MODEL 1
REMARK VINA RESULT:      -8.3      0.000      0.000
REMARK  3 active torsions:
REMARK  status: ('A' for Active; 'I' for Inactive)
REMARK    1  A    between atoms: C_5  and  N_1 
REMARK    2  A    between atoms: C_4  and  C_5 
REMARK       I    between atoms: N_8  and  C_4 
REMARK    3  A    between atoms: C_13  and  N_8 
ROOT
ATOM      1  C   UNL d   1      53.461  32.693  53.563  0.00  0.00     0.297 C 
ATOM      2  N   UNL d   1      53.837  32.051  53.224  0.00  0.00    -0.207 NA
ATOM      3  O   UNL d   1      52.757  32.598  53.987  0.00  0.00    -0.264 OA
ENDROOT
BRANCH   1   4
ATOM      4  C   UNL d   1      53.787  33.447  53.482  0.00  0.00     0.148 C 
BRANCH   4   5
ATOM      5  N   UNL d   1      53.453  34.085  53.888  0.00  0.00    -0.235 N 
ATOM      6  C   UNL d   1      52.868  34.547  53.522  0.00  0.00     0.274 A 
ATOM      7  O   UNL d   1      52.622  34.367  52.751  0.00  0.00    -0.266 OA
ATOM      8  C   UNL d   1      52.538  35.178  53.924  0.00  0.00     0.097 A 
ATOM      9  S   UNL d   1      52.776  35.363  54.688  0.00  0.00    -0.076 SA
ATOM     10  C   UNL d   1      53.355  34.908  55.054  0.00  0.00     0.097 A 
ATOM     11  C   UNL d   1      53.698  34.268  54.662  0.00  0.00     0.274 A 
ATOM     12  O   UNL d   1      54.278  33.810  55.026  0.00  0.00    -0.266 OA
ENDBRANCH   4   5
ENDBRANCH   1   4
BRANCH   2  13
ATOM     13  C   UNL d   1      53.511  31.298  53.305  0.00  0.00     0.087 A 
ATOM     14  C   UNL d   1      53.777  30.797  53.904  0.00  0.00     0.045 A 
ATOM     15  C   UNL d   1      53.460  30.047  53.992  0.00  0.00     0.121 A 
ATOM     16  O   UNL d   1      53.613  29.433  54.530  0.00  0.00    -0.299 OA
ATOM     17  C   UNL d   1      52.867  29.788  53.479  0.00  0.00     0.119 A 
ATOM     18  C   UNL d   1      53.110  28.799  54.342  0.00  0.00     0.304 A 
ATOM     19  O   UNL d   1      52.657  29.027  53.696  0.00  0.00    -0.300 OA
ATOM     20  C   UNL d   1      52.603  30.297  52.878  0.00  0.00     0.028 A 
ATOM     21  C   UNL d   1      52.925  31.048  52.793  0.00  0.00     0.021 A 
ENDBRANCH   2  13
TORSDOF 3
ENDMDL
MODEL 2
REMARK VINA RESULT:      -7.1      1.674      4.314
REMARK  3 active torsions:
REMARK  status: ('A' for Active; 'I' for Inactive)
REMARK    1  A    between atoms: C_5  and  N_1 
REMARK    2  A    between atoms: C_4  and  C_5 
REMARK       I    between atoms: N_8  and  C_4 
REMARK    3  A    between atoms: C_13  and  N_8 
ROOT
ATOM      1  C   UNL d   1      53.438  32.271  53.464  0.00  0.00     0.297 C 
ATOM      2  N   UNL d   1      53.849  32.974  53.389  0.00  0.00    -0.207 NA
ATOM      3  O   UNL d   1      52.654  32.263  53.727  0.00  0.00    -0.264 OA
ENDROOT
BRANCH   1   4
ATOM      4  C   UNL d   1      53.809  31.560  53.273  0.00  0.00     0.148 C 
BRANCH   4   5
ATOM      5  N   UNL d   1      53.418  30.843  53.407  0.00  0.00    -0.235 N 
ATOM      6  C   UNL d   1      52.959  30.505  52.802  0.00  0.00     0.274 A 
ATOM      7  O   UNL d   1      52.896  30.886  52.069  0.00  0.00    -0.266 OA
ATOM      8  C   UNL d   1      52.572  29.797  52.934  0.00  0.00     0.097 A 
ATOM      9  S   UNL d   1      52.629  29.412  53.658  0.00  0.00    -0.076 SA
ATOM     10  C   UNL d   1      53.082  29.744  54.259  0.00  0.00     0.097 A 
ATOM     11  C   UNL d   1      53.479  30.459  54.141  0.00  0.00     0.274 A 
ATOM     12  O   UNL d   1      53.934  30.794  54.742  0.00  0.00    -0.266 OA
ENDBRANCH   4   5
ENDBRANCH   1   4
BRANCH   2  13
ATOM     13  C   UNL d   1      53.477  33.686  53.579  0.00  0.00     0.087 A 
ATOM     14  C   UNL d   1      53.628  34.048  54.305  0.00  0.00     0.045 A 
ATOM     15  C   UNL d   1      53.265  34.754  54.503  0.00  0.00     0.121 A 
ATOM     16  O   UNL d   1      53.307  35.237  55.177  0.00  0.00    -0.299 OA
ATOM     17  C   UNL d   1      52.741  35.110  53.972  0.00  0.00     0.119 A 
ATOM     18  C   UNL d   1      52.806  35.889  55.054  0.00  0.00     0.304 A 
ATOM     19  O   UNL d   1      52.464  35.801  54.313  0.00  0.00    -0.300 OA
ATOM     20  C   UNL d   1      52.593  34.741  53.243  0.00  0.00     0.028 A 
ATOM     21  C   UNL d   1      52.960  34.032  53.049  0.00  0.00     0.021 A 
ENDBRANCH   2  13
TORSDOF 3
ENDMDL
MODEL 3
REMARK VINA RESULT:      -6.8      2.411      4.519
REMARK  3 active torsions:
REMARK  status: ('A' for Active; 'I' for Inactive)
REMARK    1  A    between atoms: C_5  and  N_1 
REMARK    2  A    between atoms: C_4  and  C_5 
REMARK       I    between atoms: N_8  and  C_4 
REMARK    3  A    between atoms: C_13  and  N_8 
ROOT
ATOM      1  C   UNL d   1      52.257  33.043  52.924  0.00  0.00     0.297 C 
ATOM      2  N   UNL d   1      52.105  33.770  52.582  0.00  0.00    -0.207 NA
ATOM      3  O   UNL d   1      51.656  32.615  53.297  0.00  0.00    -0.264 OA
ENDROOT
BRANCH   1   4
ATOM      4  C   UNL d   1      53.021  32.732  52.899  0.00  0.00     0.148 C 
BRANCH   4   5
ATOM      5  N   UNL d   1      53.182  32.009  53.265  0.00  0.00    -0.235 N 
ATOM      6  C   UNL d   1      53.533  31.997  54.018  0.00  0.00     0.274 A 
ATOM      7  O   UNL d   1      53.719  32.709  54.399  0.00  0.00    -0.266 OA
ATOM      8  C   UNL d   1      53.692  31.281  54.380  0.00  0.00     0.097 A 
ATOM      9  S   UNL d   1      53.511  30.570  54.011  0.00  0.00    -0.076 SA
ATOM     10  C   UNL d   1      53.164  30.578  53.265  0.00  0.00     0.097 A 
ATOM     11  C   UNL d   1      52.996  31.292  52.886  0.00  0.00     0.274 A 
ATOM     12  O   UNL d   1      52.649  31.303  52.138  0.00  0.00    -0.266 OA
ENDBRANCH   4   5
ENDBRANCH   1   4
BRANCH   2  13
ATOM     13  C   UNL d   1      51.341  34.081  52.607  0.00  0.00     0.087 A 
ATOM     14  C   UNL d   1      50.863  34.053  51.936  0.00  0.00     0.045 A 
ATOM     15  C   UNL d   1      50.103  34.359  51.952  0.00  0.00     0.121 A 
ATOM     16  O   UNL d   1      49.507  34.409  51.376  0.00  0.00    -0.299 OA
ATOM     17  C   UNL d   1      49.811  34.699  52.645  0.00  0.00     0.119 A 
ATOM     18  C   UNL d   1      48.850  34.781  51.723  0.00  0.00     0.304 A 
ATOM     19  O   UNL d   1      49.047  34.955  52.501  0.00  0.00    -0.300 OA
ATOM     20  C   UNL d   1      50.298  34.725  53.318  0.00  0.00     0.028 A 
ATOM     21  C   UNL d   1      51.059  34.417  53.298  0.00  0.00     0.021 A 
ENDBRANCH   2  13
TORSDOF 3
ENDMDL
