MODEL 1
REMARK VINA RESULT:      78.0      0.000      0.000
REMARK  2 active torsions:
REMARK  status: ('A' for Active; 'I' for Inactive)
REMARK    1  A    between atoms: C_8  and  N_2 
REMARK    2  A    between atoms: N_7  and  C_4 
ROOT
ATOM      1  C   UNL d   1      58.022  49.475  52.601  0.00  0.00     0.358 A 
ATOM      2  N   UNL d   1      58.839  49.489  52.731  0.00  0.00    -0.226 N 
ATOM      3  N   UNL d   1      57.508  49.421  53.236  0.00  0.00    -0.174 NA
ATOM      4  C   UNL d   1      57.801  49.381  54.004  0.00  0.00     0.158 A 
ATOM      5  C   UNL d   1      59.140  49.450  53.495  0.00  0.00     0.271 A 
ATOM      6  C   UNL d   1      58.617  49.395  54.134  0.00  0.00     0.099 A 
ATOM      7  O   UNL d   1      57.726  49.516  51.828  0.00  0.00    -0.244 OA
ATOM      8  O   UNL d   1      59.957  49.464  53.625  0.00  0.00    -0.266 OA
ENDROOT
BRANCH   2   9
ATOM      9  C   UNL d   1      59.358  49.543  52.092  0.00  0.00     0.071 A 
ATOM     10  C   UNL d   1      59.062  49.649  51.329  0.00  0.00     0.019 A 
ATOM     11  C   UNL d   1      59.572  49.704  50.689  0.00  0.00     0.013 A 
ATOM     12  C   UNL d   1      60.388  49.652  50.813  0.00  0.00     0.058 A 
ATOM     13  C   UNL d   1      60.677  49.547  51.574  0.00  0.00     0.013 A 
ATOM     14 CL   UNL d   1      60.899  49.707  50.177  0.00  0.00    -0.082 Cl
ATOM     15  C   UNL d   1      60.166  49.492  52.215  0.00  0.00     0.019 A 
ENDBRANCH   2   9
BRANCH   4  16
ATOM     16  N   UNL d   1      57.286  49.327  54.643  0.00  0.00    -0.285 N 
ATOM     17  C   UNL d   1      57.483  49.702  55.354  0.00  0.00     0.108 A 
ATOM     18  C   UNL d   1      56.969  49.649  55.997  0.00  0.00     0.142 A 
ATOM     19  O   UNL d   1      56.255  49.221  55.932  0.00  0.00    -0.300 OA
ATOM     20  C   UNL d   1      56.075  48.855  55.217  0.00  0.00     0.142 A 
ATOM     21  C   UNL d   1      56.589  48.908  54.574  0.00  0.00     0.108 A 
ENDBRANCH   4  16
TORSDOF 2
ENDMDL
