MODEL 1
REMARK VINA RESULT:      46.2      0.000      0.000
REMARK  6 active torsions:
REMARK  status: ('A' for Active; 'I' for Inactive)
REMARK       I    between atoms: C_2  and  N_1 
REMARK    1  A    between atoms: C_3  and  N_1 
REMARK    2  A    between atoms: C_6  and  C_2 
REMARK    3  A    between atoms: N_7  and  C_3 
REMARK    4  A    between atoms: C_8  and  N_7 
REMARK    5  A    between atoms: C_12  and  C_8 
REMARK    6  A    between atoms: C_9  and  C_12 
ROOT
ATOM      1  C   UNL d   1     -55.260-100.044 -43.881  0.00  0.00     0.179 C 
ATOM      2  S   UNL d   1     -54.716 -99.498 -44.152  0.00  0.00    -0.040 SA
ENDROOT
BRANCH   1   3
ATOM      3  N   UNL d   1     -56.015 -99.806 -43.669  0.00  0.00    -0.299 N 
ATOM      4  C   UNL d   1     -56.498 -99.485 -44.234  0.00  0.00     0.259 C 
ATOM      5  O   UNL d   1     -56.240 -99.399 -45.004  0.00  0.00    -0.267 OA
ATOM      6  H   UNL d   1     -56.272 -99.892 -42.904  0.00  0.00     0.171 HD
BRANCH   4   7
ATOM      7  C   UNL d   1     -57.264 -99.243 -44.025  0.00  0.00     0.056 A 
ATOM      8  C   UNL d   1     -57.445 -99.103 -43.247  0.00  0.00     0.005 A 
ATOM      9  C   UNL d   1     -58.201 -98.864 -43.034  0.00  0.00     0.000 A 
ATOM     10  C   UNL d   1     -58.770 -98.767 -43.616  0.00  0.00     0.000 A 
ATOM     11  C   UNL d   1     -58.588 -98.907 -44.394  0.00  0.00     0.000 A 
ATOM     12  C   UNL d   1     -57.833 -99.146 -44.607  0.00  0.00     0.005 A 
ENDBRANCH   4   7
ENDBRANCH   1   3
BRANCH   1  13
ATOM     13  N   UNL d   1     -55.055-100.835 -43.818  0.00  0.00    -0.330 N 
ATOM     14  H   UNL d   1     -55.190-101.344 -44.435  0.00  0.00     0.168 HD
BRANCH  13  15
ATOM     15  C   UNL d   1     -54.716-101.103 -43.127  0.00  0.00     0.074 C 
BRANCH  15  16
ATOM     16  C   UNL d   1     -55.010-101.786 -42.770  0.00  0.00     0.018 C 
BRANCH  16  17
ATOM     17  C   UNL d   1     -54.998-101.863 -41.938  0.00  0.00     0.002 A 
ATOM     18  C   UNL d   1     -54.727-102.564 -41.587  0.00  0.00     0.000 A 
ATOM     19  C   UNL d   1     -54.717-102.635 -40.765  0.00  0.00     0.000 A 
ATOM     20  C   UNL d   1     -54.977-102.007 -40.290  0.00  0.00     0.000 A 
ATOM     21  C   UNL d   1     -55.247-101.310 -40.637  0.00  0.00     0.000 A 
ATOM     22  C   UNL d   1     -55.258-101.236 -41.463  0.00  0.00     0.000 A 
ENDBRANCH  16  17
ENDBRANCH  15  16
ENDBRANCH  13  15
ENDBRANCH   1  13
TORSDOF 6
ENDMDL
