MODEL 1
REMARK VINA RESULT:     -10.3      0.000      0.000
REMARK  2 active torsions:
REMARK  status: ('A' for Active; 'I' for Inactive)
REMARK    1  A    between atoms: C_9  and  C_1 
REMARK    2  A    between atoms: N_7  and  C_2 
ROOT
ATOM      1  C   UNL d   1     -48.520  13.453  22.851  0.00  0.00     0.022 A 
ATOM      2  C   UNL d   1     -48.673  14.227  22.632  0.00  0.00     0.123 A 
ATOM      3  C   UNL d   1     -48.067  14.762  22.565  0.00  0.00     0.295 A 
ATOM      4  C   UNL d   1     -47.735  13.211  23.008  0.00  0.00     0.020 A 
ATOM      5  N   UNL d   1     -47.293  14.536  22.717  0.00  0.00    -0.207 NA
ATOM      6  C   UNL d   1     -47.129  13.746  22.942  0.00  0.00     0.085 A 
ATOM      7  C   UNL d   1     -47.586  12.442  23.225  0.00  0.00     0.013 A 
ATOM      8  O   UNL d   1     -48.261  15.551  22.337  0.00  0.00    -0.264 OA
ATOM      9  C   UNL d   1     -46.359  13.525  23.091  0.00  0.00     0.020 A 
ATOM     10  C   UNL d   1     -46.801  12.200  23.382  0.00  0.00     0.058 A 
ATOM     11  C   UNL d   1     -46.195  12.735  23.316  0.00  0.00     0.013 A 
ATOM     12 CL   UNL d   1     -46.610  11.415  23.609  0.00  0.00    -0.082 Cl
ENDROOT
BRANCH   1  13
ATOM     13  C   UNL d   1     -49.143  12.903  22.920  0.00  0.00     0.002 A 
ATOM     14  C   UNL d   1     -49.541  12.820  23.626  0.00  0.00     0.000 A 
ATOM     15  C   UNL d   1     -50.156  12.277  23.693  0.00  0.00     0.000 A 
ATOM     16  C   UNL d   1     -50.366  11.818  23.040  0.00  0.00     0.000 A 
ATOM     17  C   UNL d   1     -49.970  11.898  22.331  0.00  0.00     0.000 A 
ATOM     18  C   UNL d   1     -49.346  12.449  22.263  0.00  0.00     0.000 A 
ENDBRANCH   1  13
BRANCH   2  19
ATOM     19  N   UNL d   1     -49.438  14.447  22.483  0.00  0.00    -0.296 N 
ATOM     20  C   UNL d   1     -49.891  14.788  23.093  0.00  0.00     0.107 A 
ATOM     21  C   UNL d   1     -50.676  15.017  22.952  0.00  0.00     0.142 A 
ATOM     22  O   UNL d   1     -51.010  14.905  22.196  0.00  0.00    -0.300 OA
ATOM     23  C   UNL d   1     -50.560  14.568  21.596  0.00  0.00     0.142 A 
ATOM     24  C   UNL d   1     -49.775  14.336  21.729  0.00  0.00     0.107 A 
ENDBRANCH   2  19
TORSDOF 2
ENDMDL
MODEL 2
REMARK VINA RESULT:      -9.9      1.582      2.444
REMARK  2 active torsions:
REMARK  status: ('A' for Active; 'I' for Inactive)
REMARK    1  A    between atoms: C_9  and  C_1 
REMARK    2  A    between atoms: N_7  and  C_2 
ROOT
ATOM      1  C   UNL d   1     -48.252  13.173  22.858  0.00  0.00     0.022 A 
ATOM      2  C   UNL d   1     -48.599  12.442  22.986  0.00  0.00     0.123 A 
ATOM      3  C   UNL d   1     -48.138  11.785  23.106  0.00  0.00     0.295 A 
ATOM      4  C   UNL d   1     -47.419  13.245  22.851  0.00  0.00     0.020 A 
ATOM      5  N   UNL d   1     -47.320  11.844  23.101  0.00  0.00    -0.207 NA
ATOM      6  C   UNL d   1     -46.958  12.588  22.971  0.00  0.00     0.085 A 
ATOM      7  C   UNL d   1     -47.079  13.972  22.724  0.00  0.00     0.013 A 
ATOM      8  O   UNL d   1     -48.529  11.048  23.234  0.00  0.00    -0.264 OA
ATOM      9  C   UNL d   1     -46.146  12.642  22.967  0.00  0.00     0.020 A 
ATOM     10  C   UNL d   1     -46.245  14.044  22.717  0.00  0.00     0.058 A 
ATOM     11  C   UNL d   1     -45.784  13.387  22.837  0.00  0.00     0.013 A 
ATOM     12 CL   UNL d   1     -45.859  14.778  22.589  0.00  0.00    -0.082 Cl
ENDROOT
BRANCH   1  13
ATOM     13  C   UNL d   1     -48.726  13.848  22.734  0.00  0.00     0.002 A 
ATOM     14  C   UNL d   1     -48.970  14.299  23.367  0.00  0.00     0.000 A 
ATOM     15  C   UNL d   1     -49.438  14.965  23.245  0.00  0.00     0.000 A 
ATOM     16  C   UNL d   1     -49.656  15.173  22.477  0.00  0.00     0.000 A 
ATOM     17  C   UNL d   1     -49.414  14.724  21.840  0.00  0.00     0.000 A 
ATOM     18  C   UNL d   1     -48.940  14.048  21.964  0.00  0.00     0.000 A 
ENDBRANCH   1  13
BRANCH   2  19
ATOM     19  N   UNL d   1     -49.406  12.388  22.990  0.00  0.00    -0.296 N 
ATOM     20  C   UNL d   1     -49.810  12.238  22.276  0.00  0.00     0.107 A 
ATOM     21  C   UNL d   1     -50.637  12.181  22.268  0.00  0.00     0.142 A 
ATOM     22  O   UNL d   1     -51.064  12.273  22.978  0.00  0.00    -0.300 OA
ATOM     23  C   UNL d   1     -50.664  12.421  23.681  0.00  0.00     0.142 A 
ATOM     24  C   UNL d   1     -49.837  12.480  23.698  0.00  0.00     0.107 A 
ENDBRANCH   2  19
TORSDOF 2
ENDMDL
MODEL 3
REMARK VINA RESULT:      -9.3      1.982      3.549
REMARK  2 active torsions:
REMARK  status: ('A' for Active; 'I' for Inactive)
REMARK    1  A    between atoms: C_9  and  C_1 
REMARK    2  A    between atoms: N_7  and  C_2 
ROOT
ATOM      1  C   UNL d   1     -48.185  12.818  23.017  0.00  0.00     0.022 A 
ATOM      2  C   UNL d   1     -47.429  12.529  23.147  0.00  0.00     0.123 A 
ATOM      3  C   UNL d   1     -47.322  11.787  23.456  0.00  0.00     0.295 A 
ATOM      4  C   UNL d   1     -48.851  12.347  23.203  0.00  0.00     0.020 A 
ATOM      5  N   UNL d   1     -47.968  11.316  23.642  0.00  0.00    -0.207 NA
ATOM      6  C   UNL d   1     -48.744  11.605  23.512  0.00  0.00     0.085 A 
ATOM      7  C   UNL d   1     -49.598  12.638  23.072  0.00  0.00     0.013 A 
ATOM      8  O   UNL d   1     -46.531  11.520  23.577  0.00  0.00    -0.264 OA
ATOM      9  C   UNL d   1     -49.382  11.135  23.698  0.00  0.00     0.020 A 
ATOM     10  C   UNL d   1     -50.264  12.167  23.258  0.00  0.00     0.058 A 
ATOM     11  C   UNL d   1     -50.157  11.425  23.567  0.00  0.00     0.013 A 
ATOM     12 CL   UNL d   1     -51.050  12.434  23.137  0.00  0.00    -0.082 Cl
ENDROOT
BRANCH   1  13
ATOM     13  C   UNL d   1     -48.294  13.581  22.699  0.00  0.00     0.002 A 
ATOM     14  C   UNL d   1     -48.337  13.687  21.892  0.00  0.00     0.000 A 
ATOM     15  C   UNL d   1     -48.445  14.440  21.578  0.00  0.00     0.000 A 
ATOM     16  C   UNL d   1     -48.511  15.087  22.088  0.00  0.00     0.000 A 
ATOM     17  C   UNL d   1     -48.469  14.986  22.896  0.00  0.00     0.000 A 
ATOM     18  C   UNL d   1     -48.359  14.222  23.214  0.00  0.00     0.000 A 
ENDBRANCH   1  13
BRANCH   2  19
ATOM     19  N   UNL d   1     -46.795  12.996  22.962  0.00  0.00    -0.296 N 
ATOM     20  C   UNL d   1     -46.417  12.900  22.226  0.00  0.00     0.107 A 
ATOM     21  C   UNL d   1     -45.766  13.373  22.025  0.00  0.00     0.142 A 
ATOM     22  O   UNL d   1     -45.490  13.946  22.565  0.00  0.00    -0.300 OA
ATOM     23  C   UNL d   1     -45.865  14.038  23.291  0.00  0.00     0.142 A 
ATOM     24  C   UNL d   1     -46.517  13.570  23.499  0.00  0.00     0.107 A 
ENDBRANCH   2  19
TORSDOF 2
ENDMDL
MODEL 4
REMARK VINA RESULT:      -8.9      1.769      3.207
REMARK  2 active torsions:
REMARK  status: ('A' for Active; 'I' for Inactive)
REMARK    1  A    between atoms: C_9  and  C_1 
REMARK    2  A    between atoms: N_7  and  C_2 
ROOT
ATOM      1  C   UNL d   1     -48.188  13.730  22.738  0.00  0.00     0.022 A 
ATOM      2  C   UNL d   1     -47.442  14.068  22.707  0.00  0.00     0.123 A 
ATOM      3  C   UNL d   1     -47.359  14.874  22.661  0.00  0.00     0.295 A 
ATOM      4  C   UNL d   1     -48.868  14.217  22.722  0.00  0.00     0.020 A 
ATOM      5  N   UNL d   1     -48.019  15.361  22.644  0.00  0.00    -0.207 NA
ATOM      6  C   UNL d   1     -48.785  15.022  22.675  0.00  0.00     0.085 A 
ATOM      7  C   UNL d   1     -49.606  13.878  22.753  0.00  0.00     0.013 A 
ATOM      8  O   UNL d   1     -46.576  15.188  22.631  0.00  0.00    -0.264 OA
ATOM      9  C   UNL d   1     -49.437  15.509  22.658  0.00  0.00     0.020 A 
ATOM     10  C   UNL d   1     -50.287  14.364  22.736  0.00  0.00     0.058 A 
ATOM     11  C   UNL d   1     -50.203  15.170  22.690  0.00  0.00     0.013 A 
ATOM     12 CL   UNL d   1     -51.064  14.050  22.767  0.00  0.00    -0.082 Cl
ENDROOT
BRANCH   1  13
ATOM     13  C   UNL d   1     -48.274  12.902  22.786  0.00  0.00     0.002 A 
ATOM     14  C   UNL d   1     -48.289  12.533  23.512  0.00  0.00     0.000 A 
ATOM     15  C   UNL d   1     -48.374  11.716  23.560  0.00  0.00     0.000 A 
ATOM     16  C   UNL d   1     -48.442  11.274  22.865  0.00  0.00     0.000 A 
ATOM     17  C   UNL d   1     -48.427  11.639  22.137  0.00  0.00     0.000 A 
ATOM     18  C   UNL d   1     -48.341  12.468  22.089  0.00  0.00     0.000 A 
ENDBRANCH   1  13
BRANCH   2  19
ATOM     19  N   UNL d   1     -46.793  13.585  22.724  0.00  0.00    -0.296 N 
ATOM     20  C   UNL d   1     -46.431  13.361  22.008  0.00  0.00     0.107 A 
ATOM     21  C   UNL d   1     -45.766  12.866  22.013  0.00  0.00     0.142 A 
ATOM     22  O   UNL d   1     -45.460  12.593  22.739  0.00  0.00    -0.300 OA
ATOM     23  C   UNL d   1     -45.819  12.816  23.444  0.00  0.00     0.142 A 
ATOM     24  C   UNL d   1     -46.485  13.310  23.448  0.00  0.00     0.107 A 
ENDBRANCH   2  19
TORSDOF 2
ENDMDL
MODEL 5
REMARK VINA RESULT:      -8.2      2.082      3.798
REMARK  2 active torsions:
REMARK  status: ('A' for Active; 'I' for Inactive)
REMARK    1  A    between atoms: C_9  and  C_1 
REMARK    2  A    between atoms: N_7  and  C_2 
ROOT
ATOM      1  C   UNL d   1     -49.066  13.170  23.167  0.00  0.00     0.022 A 
ATOM      2  C   UNL d   1     -49.231  12.371  23.244  0.00  0.00     0.123 A 
ATOM      3  C   UNL d   1     -49.970  12.125  23.469  0.00  0.00     0.295 A 
ATOM      4  C   UNL d   1     -49.662  13.736  23.320  0.00  0.00     0.020 A 
ATOM      5  N   UNL d   1     -50.563  12.671  23.622  0.00  0.00    -0.207 NA
ATOM      6  C   UNL d   1     -50.402  13.490  23.545  0.00  0.00     0.085 A 
ATOM      7  C   UNL d   1     -49.495  14.527  23.242  0.00  0.00     0.013 A 
ATOM      8  O   UNL d   1     -50.104  11.295  23.539  0.00  0.00    -0.264 OA
ATOM      9  C   UNL d   1     -50.992  14.029  23.697  0.00  0.00     0.020 A 
ATOM     10  C   UNL d   1     -50.092  15.094  23.395  0.00  0.00     0.058 A 
ATOM     11  C   UNL d   1     -50.831  14.848  23.619  0.00  0.00     0.013 A 
ATOM     12 CL   UNL d   1     -49.955  15.919  23.324  0.00  0.00    -0.082 Cl
ENDROOT
BRANCH   1  13
ATOM     13  C   UNL d   1     -48.306  13.423  22.936  0.00  0.00     0.002 A 
ATOM     14  C   UNL d   1     -48.131  13.528  22.147  0.00  0.00     0.000 A 
ATOM     15  C   UNL d   1     -47.381  13.778  21.919  0.00  0.00     0.000 A 
ATOM     16  C   UNL d   1     -46.807  13.921  22.496  0.00  0.00     0.000 A 
ATOM     17  C   UNL d   1     -46.978  13.817  23.286  0.00  0.00     0.000 A 
ATOM     18  C   UNL d   1     -47.739  13.563  23.518  0.00  0.00     0.000 A 
ENDBRANCH   1  13
BRANCH   2  19
ATOM     19  N   UNL d   1     -48.644  11.835  23.093  0.00  0.00    -0.296 N 
ATOM     20  C   UNL d   1     -48.568  11.517  22.327  0.00  0.00     0.107 A 
ATOM     21  C   UNL d   1     -47.970  10.966  22.160  0.00  0.00     0.142 A 
ATOM     22  O   UNL d   1     -47.444  10.732  22.764  0.00  0.00    -0.300 OA
ATOM     23  C   UNL d   1     -47.522  11.047  23.519  0.00  0.00     0.142 A 
ATOM     24  C   UNL d   1     -48.117  11.598  23.694  0.00  0.00     0.107 A 
ENDBRANCH   2  19
TORSDOF 2
ENDMDL
