MODEL 1
REMARK VINA RESULT:      20.0      0.000      0.000
REMARK  2 active torsions:
REMARK  status: ('A' for Active; 'I' for Inactive)
REMARK    1  A    between atoms: C_6  and  N_1 
REMARK    2  A    between atoms: C_7  and  C_6 
ROOT
ATOM      1  N   UNL d   1      13.868  12.456  -2.551  0.00  0.00    -0.268 N 
ATOM      2  C   UNL d   1      14.138  13.485  -2.507  0.00  0.00     0.265 A 
ATOM      3  C   UNL d   1      13.485  12.406  -3.256  0.00  0.00     0.067 A 
ATOM      4  C   UNL d   1      13.843  13.772  -3.198  0.00  0.00     0.058 A 
ATOM      5  C   UNL d   1      13.487  13.159  -3.595  0.00  0.00     0.021 A 
ATOM      6  O   UNL d   1      14.538  13.989  -1.978  0.00  0.00    -0.267 OA
ATOM      7  C   UNL d   1      13.130  13.284  -4.328  0.00  0.00     0.002 A 
ATOM      8  C   UNL d   1      13.126  11.779  -3.653  0.00  0.00     0.018 A 
ATOM      9  C   UNL d   1      13.846  14.530  -3.537  0.00  0.00     0.005 A 
ATOM     10  C   UNL d   1      12.769  11.903  -4.386  0.00  0.00     0.002 A 
ATOM     11  C   UNL d   1      13.489  14.654  -4.270  0.00  0.00     0.000 A 
ATOM     12  C   UNL d   1      13.126  14.021  -4.671  0.00  0.00     0.000 A 
ATOM     13  C   UNL d   1      12.769  12.656  -4.729  0.00  0.00     0.000 A 
ENDROOT
BRANCH   1  14
ATOM     14  C   UNL d   1      13.959  11.780  -2.072  0.00  0.00     0.154 C 
BRANCH  14  15
ATOM     15  C   UNL d   1      14.374  11.857  -1.358  0.00  0.00     0.230 C 
ATOM     16  O   UNL d   1      15.184  11.801  -1.381  0.00  0.00    -0.643 OA
ATOM     17  O   UNL d   1      13.992  11.984  -0.662  0.00  0.00    -0.643 OA
ENDBRANCH  14  15
ENDBRANCH   1  14
TORSDOF 2
ENDMDL
