MODEL 1
REMARK VINA RESULT:      -5.9      0.000      0.000
REMARK  6 active torsions:
REMARK  status: ('A' for Active; 'I' for Inactive)
REMARK    1  A    between atoms: C_2  and  S_1 
REMARK    2  A    between atoms: N_7  and  S_1 
REMARK    3  A    between atoms: C_15  and  N_7 
REMARK    4  A    between atoms: C_14  and  O_21 
REMARK    5  A    between atoms: C_24  and  C_15 
REMARK    6  A    between atoms: O_21  and  C_24 
ROOT
ATOM      1  S   UNL d   1     -48.451  12.969  22.540  0.00  0.00     0.285 S 
ATOM      2  O   UNL d   1     -48.177  13.395  21.880  0.00  0.00    -0.198 OA
ATOM      3  O   UNL d   1     -48.724  12.548  23.195  0.00  0.00    -0.198 OA
ENDROOT
BRANCH   1   4
ATOM      4  C   UNL d   1     -49.084  13.512  22.616  0.00  0.00     0.107 A 
ATOM      5  C   UNL d   1     -48.996  14.186  23.070  0.00  0.00     0.040 A 
ATOM      6  C   UNL d   1     -49.621  14.709  23.138  0.00  0.00     0.123 A 
ATOM      7  O   UNL d   1     -49.537  15.391  23.595  0.00  0.00    -0.301 OA
ATOM      8  C   UNL d   1     -50.335  14.557  22.751  0.00  0.00     0.123 A 
ATOM      9  C   UNL d   1     -50.165  15.922  23.666  0.00  0.00     0.149 A 
ATOM     10  C   UNL d   1     -50.878  15.770  23.279  0.00  0.00     0.149 A 
ATOM     11  O   UNL d   1     -50.963  15.088  22.822  0.00  0.00    -0.301 OA
ATOM     12  C   UNL d   1     -50.422  13.883  22.297  0.00  0.00     0.028 A 
ATOM     13  C   UNL d   1     -49.798  13.360  22.229  0.00  0.00     0.015 A 
ENDBRANCH   1   4
BRANCH   1  14
ATOM     14  N   UNL d   1     -47.821  12.439  22.455  0.00  0.00    -0.155 NA
BRANCH  14  15
ATOM     15  C   UNL d   1     -47.153  12.512  22.931  0.00  0.00     0.139 C 
BRANCH  15  16
ATOM     16  C   UNL d   1     -46.584  11.918  22.950  0.00  0.00     0.144 C 
BRANCH  16  17
ATOM     17  O   UNL d   1     -45.903  12.004  23.403  0.00  0.00    -0.303 OA
BRANCH  17  18
ATOM     18  C   UNL d   1     -45.316  11.427  23.392  0.00  0.00     0.100 A 
ATOM     19  C   UNL d   1     -45.474  10.677  23.698  0.00  0.00     0.027 A 
ATOM     20  C   UNL d   1     -44.888  10.096  23.688  0.00  0.00     0.032 A 
ATOM     21  C   UNL d   1     -44.144  10.264  23.372  0.00  0.00     0.140 A 
ATOM     22  C   UNL d   1     -43.986  11.014  23.066  0.00  0.00     0.032 A 
ATOM     23  F   UNL d   1     -43.545   9.678  23.359  0.00  0.00    -0.204 F 
ATOM     24  C   UNL d   1     -44.573  11.591  23.078  0.00  0.00     0.027 A 
ENDBRANCH  17  18
ENDBRANCH  16  17
ENDBRANCH  15  16
ENDBRANCH  14  15
ENDBRANCH   1  14
TORSDOF 6
ENDMDL
MODEL 2
REMARK VINA RESULT:      -5.2      1.308      1.569
REMARK  6 active torsions:
REMARK  status: ('A' for Active; 'I' for Inactive)
REMARK    1  A    between atoms: C_2  and  S_1 
REMARK    2  A    between atoms: N_7  and  S_1 
REMARK    3  A    between atoms: C_15  and  N_7 
REMARK    4  A    between atoms: C_14  and  O_21 
REMARK    5  A    between atoms: C_24  and  C_15 
REMARK    6  A    between atoms: O_21  and  C_24 
ROOT
ATOM      1  S   UNL d   1     -48.341  12.917  22.789  0.00  0.00     0.285 S 
ATOM      2  O   UNL d   1     -48.415  13.218  22.017  0.00  0.00    -0.198 OA
ATOM      3  O   UNL d   1     -48.269  12.619  23.556  0.00  0.00    -0.198 OA
ENDROOT
BRANCH   1   4
ATOM      4  C   UNL d   1     -49.018  13.354  23.015  0.00  0.00     0.107 A 
ATOM      5  C   UNL d   1     -48.995  14.171  23.029  0.00  0.00     0.040 A 
ATOM      6  C   UNL d   1     -49.662  14.589  23.251  0.00  0.00     0.123 A 
ATOM      7  O   UNL d   1     -49.643  15.414  23.266  0.00  0.00    -0.301 OA
ATOM      8  C   UNL d   1     -50.354  14.188  23.459  0.00  0.00     0.123 A 
ATOM      9  C   UNL d   1     -50.314  15.839  23.490  0.00  0.00     0.149 A 
ATOM     10  C   UNL d   1     -51.006  15.439  23.698  0.00  0.00     0.149 A 
ATOM     11  O   UNL d   1     -51.025  14.614  23.682  0.00  0.00    -0.301 OA
ATOM     12  C   UNL d   1     -50.377  13.371  23.445  0.00  0.00     0.028 A 
ATOM     13  C   UNL d   1     -49.710  12.954  23.223  0.00  0.00     0.015 A 
ENDBRANCH   1   4
BRANCH   1  14
ATOM     14  N   UNL d   1     -47.672  12.488  22.556  0.00  0.00    -0.155 NA
BRANCH  14  15
ATOM     15  C   UNL d   1     -46.945  12.632  22.914  0.00  0.00     0.139 C 
BRANCH  15  16
ATOM     16  C   UNL d   1     -46.243  12.444  22.527  0.00  0.00     0.144 C 
BRANCH  16  17
ATOM     17  O   UNL d   1     -45.516  12.613  22.873  0.00  0.00    -0.303 OA
BRANCH  17  18
ATOM     18  C   UNL d   1     -44.829  12.628  22.419  0.00  0.00     0.100 A 
ATOM     19  C   UNL d   1     -44.238  12.069  22.554  0.00  0.00     0.027 A 
ATOM     20  C   UNL d   1     -43.548  12.080  22.101  0.00  0.00     0.032 A 
ATOM     21  C   UNL d   1     -43.450  12.651  21.513  0.00  0.00     0.140 A 
ATOM     22  C   UNL d   1     -44.041  13.211  21.378  0.00  0.00     0.032 A 
ATOM     23  F   UNL d   1     -42.752  12.668  21.049  0.00  0.00    -0.204 F 
ATOM     24  C   UNL d   1     -44.728  13.196  21.832  0.00  0.00     0.027 A 
ENDBRANCH  17  18
ENDBRANCH  16  17
ENDBRANCH  15  16
ENDBRANCH  14  15
ENDBRANCH   1  14
TORSDOF 6
ENDMDL
MODEL 3
REMARK VINA RESULT:      -4.9      2.381      3.303
REMARK  6 active torsions:
REMARK  status: ('A' for Active; 'I' for Inactive)
REMARK    1  A    between atoms: C_2  and  S_1 
REMARK    2  A    between atoms: N_7  and  S_1 
REMARK    3  A    between atoms: C_15  and  N_7 
REMARK    4  A    between atoms: C_14  and  O_21 
REMARK    5  A    between atoms: C_24  and  C_15 
REMARK    6  A    between atoms: O_21  and  C_24 
ROOT
ATOM      1  S   UNL d   1     -46.554  12.888  22.936  0.00  0.00     0.285 S 
ATOM      2  O   UNL d   1     -46.280  12.698  23.698  0.00  0.00    -0.198 OA
ATOM      3  O   UNL d   1     -46.828  13.075  22.180  0.00  0.00    -0.198 OA
ENDROOT
BRANCH   1   4
ATOM      4  C   UNL d   1     -47.295  12.546  23.127  0.00  0.00     0.107 A 
ATOM      5  C   UNL d   1     -47.985  12.969  23.015  0.00  0.00     0.040 A 
ATOM      6  C   UNL d   1     -48.702  12.626  23.205  0.00  0.00     0.123 A 
ATOM      7  O   UNL d   1     -49.401  13.050  23.094  0.00  0.00    -0.301 OA
ATOM      8  C   UNL d   1     -48.729  11.858  23.507  0.00  0.00     0.123 A 
ATOM      9  C   UNL d   1     -50.128  12.708  23.285  0.00  0.00     0.149 A 
ATOM     10  C   UNL d   1     -50.155  11.939  23.587  0.00  0.00     0.149 A 
ATOM     11  O   UNL d   1     -49.455  11.515  23.698  0.00  0.00    -0.301 OA
ATOM     12  C   UNL d   1     -48.039  11.435  23.619  0.00  0.00     0.028 A 
ATOM     13  C   UNL d   1     -47.322  11.778  23.429  0.00  0.00     0.015 A 
ENDBRANCH   1   4
BRANCH   1  14
ATOM     14  N   UNL d   1     -45.819  13.223  22.757  0.00  0.00    -0.155 NA
BRANCH  14  15
ATOM     15  C   UNL d   1     -45.346  12.891  22.171  0.00  0.00     0.139 C 
BRANCH  15  16
ATOM     16  C   UNL d   1     -44.590  13.183  22.027  0.00  0.00     0.144 C 
BRANCH  16  17
ATOM     17  O   UNL d   1     -44.090  12.806  21.493  0.00  0.00    -0.303 OA
BRANCH  17  18
ATOM     18  C   UNL d   1     -43.315  13.065  21.390  0.00  0.00     0.100 A 
ATOM     19  C   UNL d   1     -43.173  13.831  21.119  0.00  0.00     0.027 A 
ATOM     20  C   UNL d   1     -42.398  14.095  21.014  0.00  0.00     0.032 A 
ATOM     21  C   UNL d   1     -41.765  13.591  21.180  0.00  0.00     0.140 A 
ATOM     22  C   UNL d   1     -41.907  12.825  21.451  0.00  0.00     0.032 A 
ATOM     23  F   UNL d   1     -40.976  13.853  21.076  0.00  0.00    -0.204 F 
ATOM     24  C   UNL d   1     -42.682  12.566  21.555  0.00  0.00     0.027 A 
ENDBRANCH  17  18
ENDBRANCH  16  17
ENDBRANCH  15  16
ENDBRANCH  14  15
ENDBRANCH   1  14
TORSDOF 6
ENDMDL
MODEL 4
REMARK VINA RESULT:      -4.7      2.366      5.921
REMARK  6 active torsions:
REMARK  status: ('A' for Active; 'I' for Inactive)
REMARK    1  A    between atoms: C_2  and  S_1 
REMARK    2  A    between atoms: N_7  and  S_1 
REMARK    3  A    between atoms: C_15  and  N_7 
REMARK    4  A    between atoms: C_14  and  O_21 
REMARK    5  A    between atoms: C_24  and  C_15 
REMARK    6  A    between atoms: O_21  and  C_24 
ROOT
ATOM      1  S   UNL d   1     -45.966  12.867  22.919  0.00  0.00     0.285 S 
ATOM      2  O   UNL d   1     -45.786  13.132  23.687  0.00  0.00    -0.198 OA
ATOM      3  O   UNL d   1     -46.144  12.602  22.158  0.00  0.00    -0.198 OA
ENDROOT
BRANCH   1   4
ATOM      4  C   UNL d   1     -45.650  12.117  23.114  0.00  0.00     0.107 A 
ATOM      5  C   UNL d   1     -44.853  11.965  23.009  0.00  0.00     0.040 A 
ATOM      6  C   UNL d   1     -44.555  11.230  23.202  0.00  0.00     0.123 A 
ATOM      7  O   UNL d   1     -43.751  11.073  23.098  0.00  0.00    -0.301 OA
ATOM      8  C   UNL d   1     -45.054  10.643  23.501  0.00  0.00     0.123 A 
ATOM      9  C   UNL d   1     -43.445  10.331  23.292  0.00  0.00     0.149 A 
ATOM     10  C   UNL d   1     -43.945   9.745  23.591  0.00  0.00     0.149 A 
ATOM     11  O   UNL d   1     -44.748   9.902  23.695  0.00  0.00    -0.301 OA
ATOM     12  C   UNL d   1     -45.850  10.794  23.606  0.00  0.00     0.028 A 
ATOM     13  C   UNL d   1     -46.149  11.530  23.413  0.00  0.00     0.015 A 
ENDBRANCH   1   4
BRANCH   1  14
ATOM     14  N   UNL d   1     -46.276  13.612  22.737  0.00  0.00    -0.155 NA
BRANCH  14  15
ATOM     15  C   UNL d   1     -46.987  13.856  23.073  0.00  0.00     0.139 C 
BRANCH  15  16
ATOM     16  C   UNL d   1     -47.409  14.485  22.751  0.00  0.00     0.144 C 
BRANCH  16  17
ATOM     17  O   UNL d   1     -48.021  14.839  23.173  0.00  0.00    -0.303 OA
BRANCH  17  18
ATOM     18  C   UNL d   1     -48.778  14.886  22.852  0.00  0.00     0.100 A 
ATOM     19  C   UNL d   1     -48.881  15.175  22.087  0.00  0.00     0.027 A 
ATOM     20  C   UNL d   1     -49.638  15.223  21.762  0.00  0.00     0.032 A 
ATOM     21  C   UNL d   1     -50.293  14.982  22.204  0.00  0.00     0.140 A 
ATOM     22  C   UNL d   1     -50.190  14.693  22.970  0.00  0.00     0.032 A 
ATOM     23  F   UNL d   1     -51.064  15.029  21.880  0.00  0.00    -0.204 F 
ATOM     24  C   UNL d   1     -49.433  14.647  23.290  0.00  0.00     0.027 A 
ENDBRANCH  17  18
ENDBRANCH  16  17
ENDBRANCH  15  16
ENDBRANCH  14  15
ENDBRANCH   1  14
TORSDOF 6
ENDMDL
MODEL 5
REMARK VINA RESULT:      -4.4      3.913      5.242
REMARK  6 active torsions:
REMARK  status: ('A' for Active; 'I' for Inactive)
REMARK    1  A    between atoms: C_2  and  S_1 
REMARK    2  A    between atoms: N_7  and  S_1 
REMARK    3  A    between atoms: C_15  and  N_7 
REMARK    4  A    between atoms: C_14  and  O_21 
REMARK    5  A    between atoms: C_24  and  C_15 
REMARK    6  A    between atoms: O_21  and  C_24 
ROOT
ATOM      1  S   UNL d   1     -44.303  12.761  21.834  0.00  0.00     0.285 S 
ATOM      2  O   UNL d   1     -44.075  12.184  22.388  0.00  0.00    -0.198 OA
ATOM      3  O   UNL d   1     -44.531  13.333  21.285  0.00  0.00    -0.198 OA
ENDROOT
BRANCH   1   4
ATOM      4  C   UNL d   1     -45.046  12.821  22.215  0.00  0.00     0.107 A 
ATOM      5  C   UNL d   1     -45.376  12.168  22.580  0.00  0.00     0.040 A 
ATOM      6  C   UNL d   1     -46.102  12.238  22.949  0.00  0.00     0.123 A 
ATOM      7  O   UNL d   1     -46.438  11.581  23.319  0.00  0.00    -0.301 OA
ATOM      8  C   UNL d   1     -46.499  12.962  22.954  0.00  0.00     0.123 A 
ATOM      9  C   UNL d   1     -47.171  11.647  23.693  0.00  0.00     0.149 A 
ATOM     10  C   UNL d   1     -47.568  12.371  23.698  0.00  0.00     0.149 A 
ATOM     11  O   UNL d   1     -47.231  13.028  23.328  0.00  0.00    -0.301 OA
ATOM     12  C   UNL d   1     -46.169  13.615  22.589  0.00  0.00     0.028 A 
ATOM     13  C   UNL d   1     -45.443  13.545  22.220  0.00  0.00     0.015 A 
ENDBRANCH   1   4
BRANCH   1  14
ATOM     14  N   UNL d   1     -43.566  12.694  21.464  0.00  0.00    -0.155 NA
BRANCH  14  15
ATOM     15  C   UNL d   1     -42.969  13.235  21.634  0.00  0.00     0.139 C 
BRANCH  15  16
ATOM     16  C   UNL d   1     -42.361  13.370  21.096  0.00  0.00     0.144 C 
BRANCH  16  17
ATOM     17  O   UNL d   1     -41.685  13.783  21.322  0.00  0.00    -0.303 OA
BRANCH  17  18
ATOM     18  C   UNL d   1     -41.281  14.252  20.780  0.00  0.00     0.100 A 
ATOM     19  C   UNL d   1     -41.214  15.064  20.912  0.00  0.00     0.027 A 
ATOM     20  C   UNL d   1     -40.809  15.538  20.371  0.00  0.00     0.032 A 
ATOM     21  C   UNL d   1     -40.470  15.200  19.698  0.00  0.00     0.140 A 
ATOM     22  C   UNL d   1     -40.537  14.388  19.566  0.00  0.00     0.032 A 
ATOM     23  F   UNL d   1     -40.058  15.676  19.145  0.00  0.00    -0.204 F 
ATOM     24  C   UNL d   1     -40.942  13.919  20.108  0.00  0.00     0.027 A 
ENDBRANCH  17  18
ENDBRANCH  16  17
ENDBRANCH  15  16
ENDBRANCH  14  15
ENDBRANCH   1  14
TORSDOF 6
ENDMDL
