MODEL 1
REMARK VINA RESULT:      -7.4      0.000      0.000
REMARK  4 active torsions:
REMARK  status: ('A' for Active; 'I' for Inactive)
REMARK    1  A    between atoms: N_8  and  C_2 
REMARK    2  A    between atoms: C_9  and  C_3 
REMARK    3  A    between atoms: C_7  and  N_10 
REMARK    4  A    between atoms: N_10  and  N_8 
ROOT
ATOM      1  N   UNL d   1     -47.331  12.786  22.928  0.00  0.00    -0.219 NA
ATOM      2  C   UNL d   1     -46.571  12.967  23.159  0.00  0.00     0.215 A 
ATOM      3  C   UNL d   1     -47.700  13.517  22.748  0.00  0.00     0.090 A 
ATOM      4  S   UNL d   1     -46.467  13.786  23.126  0.00  0.00    -0.045 SA
ATOM      5  C   UNL d   1     -47.159  14.116  22.874  0.00  0.00     0.058 A 
ENDROOT
BRANCH   2   6
ATOM      6  N   UNL d   1     -45.992  12.429  23.392  0.00  0.00    -0.120 NA
BRANCH   6   7
ATOM      7  N   UNL d   1     -45.524  12.066  22.832  0.00  0.00    -0.127 NA
BRANCH   7   8
ATOM      8  C   UNL d   1     -45.019  11.447  23.056  0.00  0.00     0.184 A 
ATOM      9  N   UNL d   1     -44.236  11.595  22.864  0.00  0.00    -0.224 NA
ATOM     10  C   UNL d   1     -43.571  11.143  22.983  0.00  0.00     0.101 A 
ATOM     11  C   UNL d   1     -43.511  10.411  23.329  0.00  0.00     0.021 A 
ATOM     12  C   UNL d   1     -44.119   9.941  23.650  0.00  0.00     0.002 A 
ATOM     13  C   UNL d   1     -44.912  10.096  23.695  0.00  0.00     0.003 A 
ATOM     14  C   UNL d   1     -45.332  10.777  23.429  0.00  0.00     0.041 A 
ENDBRANCH   7   8
ENDBRANCH   6   7
ENDBRANCH   2   6
BRANCH   3  15
ATOM     15  C   UNL d   1     -48.493  13.569  22.486  0.00  0.00     0.018 A 
ATOM     16  C   UNL d   1     -48.718  13.308  21.747  0.00  0.00     0.002 A 
ATOM     17  C   UNL d   1     -49.503  13.366  21.504  0.00  0.00     0.011 A 
ATOM     18  C   UNL d   1     -50.067  13.690  22.011  0.00  0.00     0.058 A 
ATOM     19  C   UNL d   1     -49.858  13.958  22.759  0.00  0.00     0.011 A 
ATOM     20 CL   UNL d   1     -50.859  13.742  21.750  0.00  0.00    -0.082 Cl
ATOM     21  C   UNL d   1     -49.066  13.901  23.006  0.00  0.00     0.002 A 
ENDBRANCH   3  15
TORSDOF 4
ENDMDL
MODEL 2
REMARK VINA RESULT:      -6.4      1.198      1.439
REMARK  4 active torsions:
REMARK  status: ('A' for Active; 'I' for Inactive)
REMARK    1  A    between atoms: N_8  and  C_2 
REMARK    2  A    between atoms: C_9  and  C_3 
REMARK    3  A    between atoms: C_7  and  N_10 
REMARK    4  A    between atoms: N_10  and  N_8 
ROOT
ATOM      1  N   UNL d   1     -47.537  12.422  23.116  0.00  0.00    -0.219 NA
ATOM      2  C   UNL d   1     -47.431  11.651  23.359  0.00  0.00     0.215 A 
ATOM      3  C   UNL d   1     -48.343  12.604  23.262  0.00  0.00     0.090 A 
ATOM      4  S   UNL d   1     -48.148  11.359  23.649  0.00  0.00    -0.045 SA
ATOM      5  C   UNL d   1     -48.700  11.944  23.587  0.00  0.00     0.058 A 
ENDROOT
BRANCH   2   6
ATOM      6  N   UNL d   1     -46.728  11.224  23.326  0.00  0.00    -0.120 NA
BRANCH   6   7
ATOM      7  N   UNL d   1     -46.024  11.581  23.525  0.00  0.00    -0.127 NA
BRANCH   7   8
ATOM      8  C   UNL d   1     -45.312  11.160  23.450  0.00  0.00     0.184 A 
ATOM      9  N   UNL d   1     -44.713  11.611  23.121  0.00  0.00    -0.224 NA
ATOM     10  C   UNL d   1     -43.941  11.419  22.952  0.00  0.00     0.101 A 
ATOM     11  C   UNL d   1     -43.558  10.713  23.069  0.00  0.00     0.021 A 
ATOM     12  C   UNL d   1     -43.862  10.009  23.392  0.00  0.00     0.002 A 
ATOM     13  C   UNL d   1     -44.608   9.856  23.667  0.00  0.00     0.003 A 
ATOM     14  C   UNL d   1     -45.275  10.371  23.698  0.00  0.00     0.041 A 
ENDBRANCH   7   8
ENDBRANCH   6   7
ENDBRANCH   2   6
BRANCH   3  15
ATOM     15  C   UNL d   1     -48.676  13.351  23.087  0.00  0.00     0.018 A 
ATOM     16  C   UNL d   1     -49.433  13.547  23.315  0.00  0.00     0.002 A 
ATOM     17  C   UNL d   1     -49.746  14.287  23.135  0.00  0.00     0.011 A 
ATOM     18  C   UNL d   1     -49.291  14.835  22.719  0.00  0.00     0.058 A 
ATOM     19  C   UNL d   1     -48.526  14.654  22.481  0.00  0.00     0.011 A 
ATOM     20 CL   UNL d   1     -49.624  15.582  22.543  0.00  0.00    -0.082 Cl
ATOM     21  C   UNL d   1     -48.209  13.908  22.663  0.00  0.00     0.002 A 
ENDBRANCH   3  15
TORSDOF 4
ENDMDL
MODEL 3
REMARK VINA RESULT:      -6.2      2.024      5.293
REMARK  4 active torsions:
REMARK  status: ('A' for Active; 'I' for Inactive)
REMARK    1  A    between atoms: N_8  and  C_2 
REMARK    2  A    between atoms: C_9  and  C_3 
REMARK    3  A    between atoms: C_7  and  N_10 
REMARK    4  A    between atoms: N_10  and  N_8 
ROOT
ATOM      1  N   UNL d   1     -47.031  12.772  23.245  0.00  0.00    -0.219 NA
ATOM      2  C   UNL d   1     -47.253  13.504  22.965  0.00  0.00     0.215 A 
ATOM      3  C   UNL d   1     -46.243  12.652  22.985  0.00  0.00     0.090 A 
ATOM      4  S   UNL d   1     -46.624  13.834  22.543  0.00  0.00    -0.045 SA
ATOM      5  C   UNL d   1     -46.011  13.309  22.559  0.00  0.00     0.058 A 
ENDROOT
BRANCH   2   6
ATOM      6  N   UNL d   1     -47.984  13.867  23.079  0.00  0.00    -0.120 NA
BRANCH   6   7
ATOM      7  N   UNL d   1     -48.366  14.220  22.451  0.00  0.00    -0.127 NA
BRANCH   7   8
ATOM      8  C   UNL d   1     -49.145  14.494  22.544  0.00  0.00     0.184 A 
ATOM      9  N   UNL d   1     -49.682  14.072  22.093  0.00  0.00    -0.224 NA
ATOM     10  C   UNL d   1     -50.488  14.154  22.020  0.00  0.00     0.101 A 
ATOM     11  C   UNL d   1     -50.977  14.690  22.385  0.00  0.00     0.021 A 
ATOM     12  C   UNL d   1     -50.773  15.289  22.925  0.00  0.00     0.002 A 
ATOM     13  C   UNL d   1     -50.044  15.484  23.218  0.00  0.00     0.003 A 
ATOM     14  C   UNL d   1     -49.297  15.129  23.052  0.00  0.00     0.041 A 
ENDBRANCH   7   8
ENDBRANCH   6   7
ENDBRANCH   2   6
BRANCH   3  15
ATOM     15  C   UNL d   1     -45.811  11.958  23.161  0.00  0.00     0.018 A 
ATOM     16  C   UNL d   1     -46.158  11.320  23.531  0.00  0.00     0.002 A 
ATOM     17  C   UNL d   1     -45.720  10.643  23.698  0.00  0.00     0.011 A 
ATOM     18  C   UNL d   1     -44.923  10.609  23.489  0.00  0.00     0.058 A 
ATOM     19  C   UNL d   1     -44.556  11.242  23.116  0.00  0.00     0.011 A 
ATOM     20 CL   UNL d   1     -44.491   9.915  23.665  0.00  0.00    -0.082 Cl
ATOM     21  C   UNL d   1     -44.998  11.926  22.947  0.00  0.00     0.002 A 
ENDBRANCH   3  15
TORSDOF 4
ENDMDL
MODEL 4
REMARK VINA RESULT:      -5.8      1.439      1.871
REMARK  4 active torsions:
REMARK  status: ('A' for Active; 'I' for Inactive)
REMARK    1  A    between atoms: N_8  and  C_2 
REMARK    2  A    between atoms: C_9  and  C_3 
REMARK    3  A    between atoms: C_7  and  N_10 
REMARK    4  A    between atoms: N_10  and  N_8 
ROOT
ATOM      1  N   UNL d   1     -47.086  12.951  22.788  0.00  0.00    -0.219 NA
ATOM      2  C   UNL d   1     -46.495  13.512  22.756  0.00  0.00     0.215 A 
ATOM      3  C   UNL d   1     -47.802  13.374  22.901  0.00  0.00     0.090 A 
ATOM      4  S   UNL d   1     -46.830  14.262  22.844  0.00  0.00    -0.045 SA
ATOM      5  C   UNL d   1     -47.627  14.171  22.933  0.00  0.00     0.058 A 
ENDROOT
BRANCH   2   6
ATOM      6  N   UNL d   1     -45.691  13.366  22.651  0.00  0.00    -0.120 NA
BRANCH   6   7
ATOM      7  N   UNL d   1     -45.447  12.752  22.174  0.00  0.00    -0.127 NA
BRANCH   7   8
ATOM      8  C   UNL d   1     -44.638  12.642  22.026  0.00  0.00     0.184 A 
ATOM      9  N   UNL d   1     -44.318  12.029  22.464  0.00  0.00    -0.224 NA
ATOM     10  C   UNL d   1     -43.559  11.738  22.489  0.00  0.00     0.101 A 
ATOM     11  C   UNL d   1     -42.908  11.989  22.073  0.00  0.00     0.021 A 
ATOM     12  C   UNL d   1     -42.857  12.607  21.519  0.00  0.00     0.002 A 
ATOM     13  C   UNL d   1     -43.438  13.107  21.259  0.00  0.00     0.003 A 
ATOM     14  C   UNL d   1     -44.251  13.132  21.482  0.00  0.00     0.041 A 
ENDBRANCH   7   8
ENDBRANCH   6   7
ENDBRANCH   2   6
BRANCH   3  15
ATOM     15  C   UNL d   1     -48.544  12.994  22.963  0.00  0.00     0.018 A 
ATOM     16  C   UNL d   1     -48.675  12.397  23.503  0.00  0.00     0.002 A 
ATOM     17  C   UNL d   1     -49.412  12.032  23.553  0.00  0.00     0.011 A 
ATOM     18  C   UNL d   1     -50.023  12.271  23.053  0.00  0.00     0.058 A 
ATOM     19  C   UNL d   1     -49.908  12.870  22.503  0.00  0.00     0.011 A 
ATOM     20 CL   UNL d   1     -50.765  11.891  23.115  0.00  0.00    -0.082 Cl
ATOM     21  C   UNL d   1     -49.165  13.239  22.451  0.00  0.00     0.002 A 
ENDBRANCH   3  15
TORSDOF 4
ENDMDL
MODEL 5
REMARK VINA RESULT:      -5.4      8.349      9.364
REMARK  4 active torsions:
REMARK  status: ('A' for Active; 'I' for Inactive)
REMARK    1  A    between atoms: N_8  and  C_2 
REMARK    2  A    between atoms: C_9  and  C_3 
REMARK    3  A    between atoms: C_7  and  N_10 
REMARK    4  A    between atoms: N_10  and  N_8 
ROOT
ATOM      1  N   UNL d   1     -39.180  14.543  18.830  0.00  0.00    -0.219 NA
ATOM      2  C   UNL d   1     -39.764  14.667  19.385  0.00  0.00     0.215 A 
ATOM      3  C   UNL d   1     -39.576  14.353  18.115  0.00  0.00     0.090 A 
ATOM      4  S   UNL d   1     -40.502  14.558  19.030  0.00  0.00    -0.045 SA
ATOM      5  C   UNL d   1     -40.380  14.366  18.255  0.00  0.00     0.058 A 
ENDROOT
BRANCH   2   6
ATOM      6  N   UNL d   1     -39.648  14.868  20.175  0.00  0.00    -0.120 NA
BRANCH   6   7
ATOM      7  N   UNL d   1     -39.726  14.302  20.756  0.00  0.00    -0.127 NA
BRANCH   7   8
ATOM      8  C   UNL d   1     -39.431  14.450  21.518  0.00  0.00     0.184 A 
ATOM      9  N   UNL d   1     -39.158  13.772  21.887  0.00  0.00    -0.224 NA
ATOM     10  C   UNL d   1     -38.831  13.669  22.625  0.00  0.00     0.101 A 
ATOM     11  C   UNL d   1     -38.686  14.227  23.196  0.00  0.00     0.021 A 
ATOM     12  C   UNL d   1     -38.839  15.045  23.169  0.00  0.00     0.002 A 
ATOM     13  C   UNL d   1     -39.165  15.482  22.572  0.00  0.00     0.003 A 
ATOM     14  C   UNL d   1     -39.438  15.223  21.816  0.00  0.00     0.041 A 
ENDBRANCH   7   8
ENDBRANCH   6   7
ENDBRANCH   2   6
BRANCH   3  15
ATOM     15  C   UNL d   1     -39.167  14.185  17.405  0.00  0.00     0.018 A 
ATOM     16  C   UNL d   1     -39.134  14.722  16.792  0.00  0.00     0.002 A 
ATOM     17  C   UNL d   1     -38.728  14.543  16.099  0.00  0.00     0.011 A 
ATOM     18  C   UNL d   1     -38.349  13.814  16.022  0.00  0.00     0.058 A 
ATOM     19  C   UNL d   1     -38.371  13.261  16.629  0.00  0.00     0.011 A 
ATOM     20 CL   UNL d   1     -37.940  13.647  15.313  0.00  0.00    -0.082 Cl
ATOM     21  C   UNL d   1     -38.781  13.441  17.330  0.00  0.00     0.002 A 
ENDBRANCH   3  15
TORSDOF 4
ENDMDL
MODEL 6
REMARK VINA RESULT:      -5.2      7.855      9.283
REMARK  4 active torsions:
REMARK  status: ('A' for Active; 'I' for Inactive)
REMARK    1  A    between atoms: N_8  and  C_2 
REMARK    2  A    between atoms: C_9  and  C_3 
REMARK    3  A    between atoms: C_7  and  N_10 
REMARK    4  A    between atoms: N_10  and  N_8 
ROOT
ATOM      1  N   UNL d   1     -39.437  14.842  19.965  0.00  0.00    -0.219 NA
ATOM      2  C   UNL d   1     -39.940  14.706  19.338  0.00  0.00     0.215 A 
ATOM      3  C   UNL d   1     -39.920  14.863  20.651  0.00  0.00     0.090 A 
ATOM      4  S   UNL d   1     -40.714  14.644  19.622  0.00  0.00    -0.045 SA
ATOM      5  C   UNL d   1     -40.695  14.741  20.423  0.00  0.00     0.058 A 
ENDROOT
BRANCH   2   6
ATOM      6  N   UNL d   1     -39.723  14.640  18.547  0.00  0.00    -0.120 NA
BRANCH   6   7
ATOM      7  N   UNL d   1     -39.557  13.908  18.230  0.00  0.00    -0.127 NA
BRANCH   7   8
ATOM      8  C   UNL d   1     -39.126  13.854  17.521  0.00  0.00     0.184 A 
ATOM      9  N   UNL d   1     -38.596  13.230  17.523  0.00  0.00    -0.224 NA
ATOM     10  C   UNL d   1     -38.074  12.981  16.951  0.00  0.00     0.101 A 
ATOM     11  C   UNL d   1     -37.942  13.297  16.215  0.00  0.00     0.021 A 
ATOM     12  C   UNL d   1     -38.310  13.955  15.862  0.00  0.00     0.002 A 
ATOM     13  C   UNL d   1     -38.885  14.438  16.163  0.00  0.00     0.003 A 
ATOM     14  C   UNL d   1     -39.263  14.402  16.916  0.00  0.00     0.041 A 
ENDBRANCH   7   8
ENDBRANCH   6   7
ENDBRANCH   2   6
BRANCH   3  15
ATOM     15  C   UNL d   1     -39.610  14.991  21.417  0.00  0.00     0.018 A 
ATOM     16  C   UNL d   1     -39.342  14.376  21.879  0.00  0.00     0.002 A 
ATOM     17  C   UNL d   1     -39.039  14.518  22.631  0.00  0.00     0.011 A 
ATOM     18  C   UNL d   1     -39.005  15.289  22.921  0.00  0.00     0.058 A 
ATOM     19  C   UNL d   1     -39.270  15.922  22.469  0.00  0.00     0.011 A 
ATOM     20 CL   UNL d   1     -38.694  15.418  23.687  0.00  0.00    -0.082 Cl
ATOM     21  C   UNL d   1     -39.577  15.780  21.710  0.00  0.00     0.002 A 
ENDBRANCH   3  15
TORSDOF 4
ENDMDL
MODEL 7
REMARK VINA RESULT:      -5.1      8.344      8.796
REMARK  4 active torsions:
REMARK  status: ('A' for Active; 'I' for Inactive)
REMARK    1  A    between atoms: N_8  and  C_2 
REMARK    2  A    between atoms: C_9  and  C_3 
REMARK    3  A    between atoms: C_7  and  N_10 
REMARK    4  A    between atoms: N_10  and  N_8 
ROOT
ATOM      1  N   UNL d   1     -39.249  14.596  19.412  0.00  0.00    -0.219 NA
ATOM      2  C   UNL d   1     -38.689  14.102  19.738  0.00  0.00     0.215 A 
ATOM      3  C   UNL d   1     -39.276  14.410  18.594  0.00  0.00     0.090 A 
ATOM      4  S   UNL d   1     -38.374  13.622  19.144  0.00  0.00    -0.045 SA
ATOM      5  C   UNL d   1     -38.736  13.814  18.449  0.00  0.00     0.058 A 
ENDROOT
BRANCH   2   6
ATOM      6  N   UNL d   1     -38.465  14.078  20.530  0.00  0.00    -0.120 NA
BRANCH   6   7
ATOM      7  N   UNL d   1     -39.015  14.220  21.114  0.00  0.00    -0.127 NA
BRANCH   7   8
ATOM      8  C   UNL d   1     -38.787  14.186  21.912  0.00  0.00     0.184 A 
ATOM      9  N   UNL d   1     -38.828  14.915  22.283  0.00  0.00    -0.224 NA
ATOM     10  C   UNL d   1     -38.658  15.127  23.049  0.00  0.00     0.101 A 
ATOM     11  C   UNL d   1     -38.397  14.657  23.658  0.00  0.00     0.021 A 
ATOM     12  C   UNL d   1     -38.239  13.841  23.647  0.00  0.00     0.002 A 
ATOM     13  C   UNL d   1     -38.305  13.317  23.034  0.00  0.00     0.003 A 
ATOM     14  C   UNL d   1     -38.554  13.463  22.240  0.00  0.00     0.041 A 
ENDBRANCH   7   8
ENDBRANCH   6   7
ENDBRANCH   2   6
BRANCH   3  15
ATOM     15  C   UNL d   1     -39.788  14.799  18.060  0.00  0.00     0.018 A 
ATOM     16  C   UNL d   1     -39.592  15.515  17.724  0.00  0.00     0.002 A 
ATOM     17  C   UNL d   1     -40.107  15.887  17.200  0.00  0.00     0.011 A 
ATOM     18  C   UNL d   1     -40.828  15.532  17.012  0.00  0.00     0.058 A 
ATOM     19  C   UNL d   1     -41.042  14.811  17.341  0.00  0.00     0.011 A 
ATOM     20 CL   UNL d   1     -41.340  15.922  16.478  0.00  0.00    -0.082 Cl
ATOM     21  C   UNL d   1     -40.522  14.435  17.871  0.00  0.00     0.002 A 
ENDBRANCH   3  15
TORSDOF 4
ENDMDL
MODEL 8
REMARK VINA RESULT:      -5.0      7.842      9.265
REMARK  4 active torsions:
REMARK  status: ('A' for Active; 'I' for Inactive)
REMARK    1  A    between atoms: N_8  and  C_2 
REMARK    2  A    between atoms: C_9  and  C_3 
REMARK    3  A    between atoms: C_7  and  N_10 
REMARK    4  A    between atoms: N_10  and  N_8 
ROOT
ATOM      1  N   UNL d   1     -39.536  15.103  20.641  0.00  0.00    -0.219 NA
ATOM      2  C   UNL d   1     -40.134  15.509  20.264  0.00  0.00     0.215 A 
ATOM      3  C   UNL d   1     -39.787  15.003  21.435  0.00  0.00     0.090 A 
ATOM      4  S   UNL d   1     -40.740  15.660  20.805  0.00  0.00    -0.045 SA
ATOM      5  C   UNL d   1     -40.523  15.349  21.517  0.00  0.00     0.058 A 
ENDROOT
BRANCH   2   6
ATOM      6  N   UNL d   1     -40.142  15.738  19.473  0.00  0.00    -0.120 NA
BRANCH   6   7
ATOM      7  N   UNL d   1     -40.125  15.174  18.885  0.00  0.00    -0.127 NA
BRANCH   7   8
ATOM      8  C   UNL d   1     -40.155  15.407  18.089  0.00  0.00     0.184 A 
ATOM      9  N   UNL d   1     -39.411  15.522  17.766  0.00  0.00    -0.224 NA
ATOM     10  C   UNL d   1     -39.192  15.748  17.016  0.00  0.00     0.101 A 
ATOM     11  C   UNL d   1     -39.666  15.922  16.381  0.00  0.00     0.021 A 
ATOM     12  C   UNL d   1     -40.497  15.911  16.340  0.00  0.00     0.002 A 
ATOM     13  C   UNL d   1     -41.033  15.727  16.918  0.00  0.00     0.003 A 
ATOM     14  C   UNL d   1     -40.889  15.496  17.716  0.00  0.00     0.041 A 
ENDBRANCH   7   8
ENDBRANCH   6   7
ENDBRANCH   2   6
BRANCH   3  15
ATOM     15  C   UNL d   1     -39.323  14.608  22.008  0.00  0.00     0.018 A 
ATOM     16  C   UNL d   1     -38.864  15.017  22.543  0.00  0.00     0.002 A 
ATOM     17  C   UNL d   1     -38.413  14.614  23.101  0.00  0.00     0.011 A 
ATOM     18  C   UNL d   1     -38.424  13.789  23.120  0.00  0.00     0.058 A 
ATOM     19  C   UNL d   1     -38.880  13.361  22.588  0.00  0.00     0.011 A 
ATOM     20 CL   UNL d   1     -37.960  13.394  23.693  0.00  0.00    -0.082 Cl
ATOM     21  C   UNL d   1     -39.337  13.767  22.024  0.00  0.00     0.002 A 
ENDBRANCH   3  15
TORSDOF 4
ENDMDL
MODEL 9
REMARK VINA RESULT:      -4.6      2.256      5.018
REMARK  4 active torsions:
REMARK  status: ('A' for Active; 'I' for Inactive)
REMARK    1  A    between atoms: N_8  and  C_2 
REMARK    2  A    between atoms: C_9  and  C_3 
REMARK    3  A    between atoms: C_7  and  N_10 
REMARK    4  A    between atoms: N_10  and  N_8 
ROOT
ATOM      1  N   UNL d   1     -46.719  12.425  22.760  0.00  0.00    -0.219 NA
ATOM      2  C   UNL d   1     -47.242  12.036  23.250  0.00  0.00     0.215 A 
ATOM      3  C   UNL d   1     -45.964  12.094  22.915  0.00  0.00     0.090 A 
ATOM      4  S   UNL d   1     -46.828  11.479  23.698  0.00  0.00    -0.045 SA
ATOM      5  C   UNL d   1     -46.049  11.519  23.489  0.00  0.00     0.058 A 
ENDROOT
BRANCH   2   6
ATOM      6  N   UNL d   1     -48.053  12.170  23.299  0.00  0.00    -0.120 NA
BRANCH   6   7
ATOM      7  N   UNL d   1     -48.408  12.709  22.803  0.00  0.00    -0.127 NA
BRANCH   7   8
ATOM      8  C   UNL d   1     -49.234  12.804  22.819  0.00  0.00     0.184 A 
ATOM      9  N   UNL d   1     -49.570  12.761  22.074  0.00  0.00    -0.224 NA
ATOM     10  C   UNL d   1     -50.347  12.824  21.843  0.00  0.00     0.101 A 
ATOM     11  C   UNL d   1     -51.004  12.947  22.304  0.00  0.00     0.021 A 
ATOM     12  C   UNL d   1     -51.044  13.041  23.130  0.00  0.00     0.002 A 
ATOM     13  C   UNL d   1     -50.444  13.032  23.673  0.00  0.00     0.003 A 
ATOM     14  C   UNL d   1     -49.617  12.925  23.543  0.00  0.00     0.041 A 
ENDBRANCH   7   8
ENDBRANCH   6   7
ENDBRANCH   2   6
BRANCH   3  15
ATOM     15  C   UNL d   1     -45.272  12.347  22.519  0.00  0.00     0.018 A 
ATOM     16  C   UNL d   1     -45.245  13.052  22.112  0.00  0.00     0.002 A 
ATOM     17  C   UNL d   1     -44.556  13.287  21.727  0.00  0.00     0.011 A 
ATOM     18  C   UNL d   1     -43.886  12.806  21.754  0.00  0.00     0.058 A 
ATOM     19  C   UNL d   1     -43.895  12.092  22.160  0.00  0.00     0.011 A 
ATOM     20 CL   UNL d   1     -43.194  13.059  21.359  0.00  0.00    -0.082 Cl
ATOM     21  C   UNL d   1     -44.591  11.854  22.549  0.00  0.00     0.002 A 
ENDBRANCH   3  15
TORSDOF 4
ENDMDL
