MODEL 1
REMARK VINA RESULT:      49.3      0.000      0.000
REMARK  4 active torsions:
REMARK  status: ('A' for Active; 'I' for Inactive)
REMARK    1  A    between atoms: S_18  and  C_6 
REMARK    2  A    between atoms: C_8  and  N_12 
REMARK       I    between atoms: N_12  and  C_16 
REMARK    3  A    between atoms: C_16  and  C_21 
REMARK    4  A    between atoms: C_21  and  S_18 
ROOT
ATOM      1  N   UNL d   1     -51.018  24.977  33.393  0.00  0.00    -0.242 N 
ATOM      2  C   UNL d   1     -51.354  25.723  33.467  0.00  0.00     0.153 A 
ATOM      3  C   UNL d   1     -50.197  24.894  33.399  0.00  0.00     0.357 A 
ATOM      4  N   UNL d   1     -50.873  26.388  33.547  0.00  0.00    -0.203 NA
ATOM      5  N   UNL d   1     -49.716  25.559  33.479  0.00  0.00    -0.167 NA
ATOM      6  C   UNL d   1     -50.056  26.307  33.554  0.00  0.00     0.200 A 
ATOM      7  C   UNL d   1     -51.499  24.312  33.312  0.00  0.00     0.086 A 
ATOM      8  C   UNL d   1     -52.176  25.805  33.461  0.00  0.00     0.038 A 
ATOM      9  C   UNL d   1     -52.316  24.392  33.306  0.00  0.00     0.019 A 
ATOM     10  C   UNL d   1     -52.656  25.141  33.380  0.00  0.00     0.004 A 
ATOM     11  O   UNL d   1     -49.846  24.138  33.324  0.00  0.00    -0.244 OA
ATOM     12  C   UNL d   1     -53.481  25.225  33.374  0.00  0.00     0.000 C 
ENDROOT
BRANCH   6  13
ATOM     13  S   UNL d   1     -49.575  26.973  33.634  0.00  0.00    -0.043 SA
BRANCH  13  14
ATOM     14  C   UNL d   1     -49.312  27.203  34.382  0.00  0.00     0.101 C 
BRANCH  14  15
ATOM     15  C   UNL d   1     -48.753  27.799  34.449  0.00  0.00     0.287 C 
ATOM     16  N   UNL d   1     -48.623  28.157  35.181  0.00  0.00    -0.186 NA
ATOM     17  O   UNL d   1     -48.322  28.042  33.793  0.00  0.00    -0.265 OA
BRANCH  16  18
ATOM     18  C   UNL d   1     -48.061  28.757  35.253  0.00  0.00     0.194 A 
ATOM     19  N   UNL d   1     -47.307  28.858  34.929  0.00  0.00    -0.107 NA
ATOM     20  O   UNL d   1     -47.004  29.569  35.199  0.00  0.00    -0.210 OA
ATOM     21  C   UNL d   1     -47.557  29.915  35.688  0.00  0.00     0.128 A 
ATOM     22  C   UNL d   1     -48.216  29.412  35.723  0.00  0.00     0.068 A 
ATOM     23  C   UNL d   1     -47.461  30.647  36.076  0.00  0.00     0.029 C 
ENDBRANCH  16  18
ENDBRANCH  14  15
ENDBRANCH  13  14
ENDBRANCH   6  13
TORSDOF 4
ENDMDL
