MODEL 1
REMARK VINA RESULT:      -4.9      0.000      0.000
REMARK  3 active torsions:
REMARK  status: ('A' for Active; 'I' for Inactive)
REMARK    1  A    between atoms: C_8  and  C_6 
REMARK    2  A    between atoms: C_9  and  C_8 
REMARK       I    between atoms: N_10  and  C_9 
REMARK    3  A    between atoms: C_13  and  N_10 
ROOT
ATOM      1  N   UNL d   1      57.758   0.538  32.505  0.00  0.00    -0.207 NA
ATOM      2  N   UNL d   1      57.144  -0.677  31.524  0.00  0.00    -0.240 NA
ATOM      3  C   UNL d   1      57.961   0.274  31.757  0.00  0.00     0.297 A 
ATOM      4  C   UNL d   1      57.160   0.260  33.007  0.00  0.00     0.086 A 
ATOM      5  C   UNL d   1      56.647  -0.769  32.163  0.00  0.00     0.083 A 
ATOM      6  C   UNL d   1      57.749  -0.134  31.435  0.00  0.00     0.144 A 
ATOM      7  C   UNL d   1      56.619  -0.355  32.875  0.00  0.00     0.035 A 
ATOM      8  O   UNL d   1      58.587   0.681  31.417  0.00  0.00    -0.264 OA
ATOM      9  C   UNL d   1      56.068  -0.540  33.453  0.00  0.00     0.003 A 
ATOM     10  C   UNL d   1      57.139   0.682  33.721  0.00  0.00     0.019 A 
ATOM     11  C   UNL d   1      56.108  -1.384  32.029  0.00  0.00     0.019 A 
ATOM     12  C   UNL d   1      55.546  -1.578  32.611  0.00  0.00     0.002 A 
ATOM     13  C   UNL d   1      56.580   0.486  34.295  0.00  0.00     0.002 A 
ATOM     14  C   UNL d   1      55.526  -1.156  33.322  0.00  0.00     0.000 A 
ATOM     15  C   UNL d   1      56.049  -0.118  34.165  0.00  0.00     0.000 A 
ENDROOT
BRANCH   6  16
ATOM     16  C   UNL d   1      58.141  -0.197  30.710  0.00  0.00     0.086 C 
BRANCH  16  17
ATOM     17  C   UNL d   1      57.784   0.110  30.026  0.00  0.00     0.281 C 
ATOM     18  N   UNL d   1      58.044  -0.133  29.286  0.00  0.00    -0.208 NA
ATOM     19  O   UNL d   1      57.169   0.658  30.084  0.00  0.00    -0.265 OA
BRANCH  18  20
ATOM     20  C   UNL d   1      58.656  -0.679  29.219  0.00  0.00     0.085 A 
ATOM     21  C   UNL d   1      58.491  -1.484  29.152  0.00  0.00     0.019 A 
ATOM     22  C   UNL d   1      59.102  -2.023  29.087  0.00  0.00     0.002 A 
ATOM     23  C   UNL d   1      58.935  -2.819  29.021  0.00  0.00     0.000 C 
ATOM     24  C   UNL d   1      59.884  -1.768  29.086  0.00  0.00     0.000 A 
ATOM     25  C   UNL d   1      60.051  -0.958  29.153  0.00  0.00     0.002 A 
ATOM     26  C   UNL d   1      59.433  -0.417  29.220  0.00  0.00     0.019 A 
ENDBRANCH  18  20
ENDBRANCH  16  17
ENDBRANCH   6  16
TORSDOF 3
ENDMDL
MODEL 2
REMARK VINA RESULT:      -4.7      0.915      1.727
REMARK  3 active torsions:
REMARK  status: ('A' for Active; 'I' for Inactive)
REMARK    1  A    between atoms: C_8  and  C_6 
REMARK    2  A    between atoms: C_9  and  C_8 
REMARK       I    between atoms: N_10  and  C_9 
REMARK    3  A    between atoms: C_13  and  N_10 
ROOT
ATOM      1  N   UNL d   1      56.671  -1.250  31.450  0.00  0.00    -0.207 NA
ATOM      2  N   UNL d   1      57.706   0.026  31.790  0.00  0.00    -0.240 NA
ATOM      3  C   UNL d   1      57.263  -0.887  31.017  0.00  0.00     0.297 A 
ATOM      4  C   UNL d   1      56.408  -1.076  32.216  0.00  0.00     0.086 A 
ATOM      5  C   UNL d   1      57.294   0.008  32.493  0.00  0.00     0.083 A 
ATOM      6  C   UNL d   1      57.605  -0.459  31.138  0.00  0.00     0.144 A 
ATOM      7  C   UNL d   1      56.682  -0.488  32.734  0.00  0.00     0.035 A 
ATOM      8  O   UNL d   1      57.376  -1.206  30.270  0.00  0.00    -0.264 OA
ATOM      9  C   UNL d   1      56.339  -0.411  33.476  0.00  0.00     0.003 A 
ATOM     10  C   UNL d   1      55.793  -1.579  32.451  0.00  0.00     0.019 A 
ATOM     11  C   UNL d   1      57.569   0.596  33.008  0.00  0.00     0.019 A 
ATOM     12  C   UNL d   1      57.227   0.680  33.762  0.00  0.00     0.002 A 
ATOM     13  C   UNL d   1      55.456  -1.492  33.200  0.00  0.00     0.002 A 
ATOM     14  C   UNL d   1      56.613   0.177  33.995  0.00  0.00     0.000 A 
ATOM     15  C   UNL d   1      55.725  -0.915  33.708  0.00  0.00     0.000 A 
ENDROOT
BRANCH   6  16
ATOM     16  C   UNL d   1      58.122  -0.284  30.518  0.00  0.00     0.086 C 
BRANCH  16  17
ATOM     17  C   UNL d   1      57.956   0.359  30.019  0.00  0.00     0.281 C 
ATOM     18  N   UNL d   1      58.551   0.677  29.551  0.00  0.00    -0.208 NA
ATOM     19  O   UNL d   1      57.197   0.681  29.989  0.00  0.00    -0.265 OA
BRANCH  18  20
ATOM     20  C   UNL d   1      59.311   0.361  29.575  0.00  0.00     0.085 A 
ATOM     21  C   UNL d   1      59.515  -0.270  29.084  0.00  0.00     0.019 A 
ATOM     22  C   UNL d   1      60.271  -0.580  29.110  0.00  0.00     0.002 A 
ATOM     23  C   UNL d   1      60.471  -1.204  28.624  0.00  0.00     0.000 C 
ATOM     24  C   UNL d   1      60.832  -0.267  29.625  0.00  0.00     0.000 A 
ATOM     25  C   UNL d   1      60.627   0.367  30.119  0.00  0.00     0.002 A 
ATOM     26  C   UNL d   1      59.864   0.678  30.090  0.00  0.00     0.019 A 
ENDBRANCH  18  20
ENDBRANCH  16  17
ENDBRANCH   6  16
TORSDOF 3
ENDMDL
MODEL 3
REMARK VINA RESULT:      -4.6      0.818      4.364
REMARK  3 active torsions:
REMARK  status: ('A' for Active; 'I' for Inactive)
REMARK    1  A    between atoms: C_8  and  C_6 
REMARK    2  A    between atoms: C_9  and  C_8 
REMARK       I    between atoms: N_10  and  C_9 
REMARK    3  A    between atoms: C_13  and  N_10 
ROOT
ATOM      1  N   UNL d   1      59.761  -0.041  30.140  0.00  0.00    -0.207 NA
ATOM      2  N   UNL d   1      58.348  -0.943  30.093  0.00  0.00    -0.240 NA
ATOM      3  C   UNL d   1      59.041   0.037  30.521  0.00  0.00     0.297 A 
ATOM      4  C   UNL d   1      59.999  -0.619  29.596  0.00  0.00     0.086 A 
ATOM      5  C   UNL d   1      58.791  -1.378  29.566  0.00  0.00     0.083 A 
ATOM      6  C   UNL d   1      58.572  -0.270  30.500  0.00  0.00     0.144 A 
ATOM      7  C   UNL d   1      59.565  -1.264  29.305  0.00  0.00     0.035 A 
ATOM      8  O   UNL d   1      58.998   0.682  31.027  0.00  0.00    -0.264 OA
ATOM      9  C   UNL d   1      59.911  -1.774  28.765  0.00  0.00     0.003 A 
ATOM     10  C   UNL d   1      60.778  -0.497  29.339  0.00  0.00     0.019 A 
ATOM     11  C   UNL d   1      58.356  -2.021  29.276  0.00  0.00     0.019 A 
ATOM     12  C   UNL d   1      58.700  -2.544  28.728  0.00  0.00     0.002 A 
ATOM     13  C   UNL d   1      61.116  -1.017  28.795  0.00  0.00     0.002 A 
ATOM     14  C   UNL d   1      59.477  -2.419  28.473  0.00  0.00     0.000 A 
ATOM     15  C   UNL d   1      60.689  -1.650  28.510  0.00  0.00     0.000 A 
ENDROOT
BRANCH   6  16
ATOM     16  C   UNL d   1      57.978   0.028  30.991  0.00  0.00     0.086 C 
BRANCH  16  17
ATOM     17  C   UNL d   1      57.311   0.387  30.651  0.00  0.00     0.281 C 
ATOM     18  N   UNL d   1      56.624   0.472  31.093  0.00  0.00    -0.208 NA
ATOM     19  O   UNL d   1      57.332   0.660  29.873  0.00  0.00    -0.265 OA
BRANCH  18  20
ATOM     20  C   UNL d   1      56.594   0.202  31.870  0.00  0.00     0.085 A 
ATOM     21  C   UNL d   1      56.287  -0.545  32.041  0.00  0.00     0.019 A 
ATOM     22  C   UNL d   1      56.259  -0.808  32.814  0.00  0.00     0.002 A 
ATOM     23  C   UNL d   1      55.955  -1.547  32.980  0.00  0.00     0.000 C 
ATOM     24  C   UNL d   1      56.536  -0.333  33.426  0.00  0.00     0.000 A 
ATOM     25  C   UNL d   1      56.845   0.418  33.256  0.00  0.00     0.002 A 
ATOM     26  C   UNL d   1      56.871   0.681  32.475  0.00  0.00     0.019 A 
ENDBRANCH  18  20
ENDBRANCH  16  17
ENDBRANCH   6  16
TORSDOF 3
ENDMDL
