MODEL 1
REMARK VINA RESULT:      -8.4      0.000      0.000
REMARK  5 active torsions:
REMARK  status: ('A' for Active; 'I' for Inactive)
REMARK    1  A    between atoms: C_10  and  C_3 
REMARK    2  A    between atoms: S_9  and  C_4 
REMARK       I    between atoms: N_6  and  C_7 
REMARK    3  A    between atoms: C_8  and  N_6 
REMARK    4  A    between atoms: C_7  and  C_14 
REMARK    5  A    between atoms: C_14  and  S_9 
ROOT
ATOM      1  S   UNL d   1      50.589  34.027  53.050  0.00  0.00    -0.036 SA
ENDROOT
BRANCH   1   2
ATOM      2  C   UNL d   1      49.966  34.425  52.641  0.00  0.00     0.236 A 
ATOM      3  O   UNL d   1      49.426  34.898  53.051  0.00  0.00    -0.263 OA
ATOM      4  C   UNL d   1      48.908  35.196  52.505  0.00  0.00     0.205 A 
ATOM      5  N   UNL d   1      49.110  34.925  51.782  0.00  0.00    -0.120 NA
ATOM      6  N   UNL d   1      49.765  34.443  51.839  0.00  0.00    -0.114 NA
BRANCH   4   7
ATOM      7  C   UNL d   1      48.282  35.690  52.655  0.00  0.00     0.046 A 
ATOM      8  C   UNL d   1      48.212  36.085  53.371  0.00  0.00     0.024 A 
ATOM      9  C   UNL d   1      47.548  36.587  53.485  0.00  0.00     0.099 A 
ATOM     10  N   UNL d   1      46.982  36.688  52.905  0.00  0.00    -0.242 NA
ATOM     11  C   UNL d   1      47.056  36.284  52.175  0.00  0.00     0.099 A 
ATOM     12  C   UNL d   1      47.699  35.786  52.043  0.00  0.00     0.024 A 
ENDBRANCH   4   7
ENDBRANCH   1   2
BRANCH   1  13
ATOM     13  C   UNL d   1      51.357  34.172  52.844  0.00  0.00     0.101 C 
BRANCH  13  14
ATOM     14  C   UNL d   1      51.954  33.768  53.235  0.00  0.00     0.286 C 
ATOM     15  N   UNL d   1      52.623  34.185  53.512  0.00  0.00    -0.207 NA
ATOM     16  O   UNL d   1      51.908  32.952  53.363  0.00  0.00    -0.265 OA
BRANCH  15  17
ATOM     17  C   UNL d   1      53.236  33.781  53.912  0.00  0.00     0.095 A 
ATOM     18  C   UNL d   1      53.567  34.105  54.580  0.00  0.00     0.075 A 
ATOM     19 CL   UNL d   1      53.305  34.845  54.881  0.00  0.00    -0.081 Cl
ATOM     20  C   UNL d   1      54.180  33.695  54.973  0.00  0.00     0.013 A 
ATOM     21  C   UNL d   1      54.445  32.985  54.700  0.00  0.00     0.001 A 
ATOM     22  C   UNL d   1      54.120  32.645  54.025  0.00  0.00     0.002 A 
ATOM     23  C   UNL d   1      53.500  33.053  53.621  0.00  0.00     0.020 A 
ENDBRANCH  15  17
ENDBRANCH  13  14
ENDBRANCH   1  13
TORSDOF 5
ENDMDL
MODEL 2
REMARK VINA RESULT:      -8.1      1.499      5.699
REMARK  5 active torsions:
REMARK  status: ('A' for Active; 'I' for Inactive)
REMARK    1  A    between atoms: C_10  and  C_3 
REMARK    2  A    between atoms: S_9  and  C_4 
REMARK       I    between atoms: N_6  and  C_7 
REMARK    3  A    between atoms: C_8  and  N_6 
REMARK    4  A    between atoms: C_7  and  C_14 
REMARK    5  A    between atoms: C_14  and  S_9 
ROOT
ATOM      1  S   UNL d   1      50.658  34.234  52.596  0.00  0.00    -0.036 SA
ENDROOT
BRANCH   1   2
ATOM      2  C   UNL d   1      51.458  34.128  52.847  0.00  0.00     0.236 A 
ATOM      3  O   UNL d   1      51.726  33.388  53.104  0.00  0.00    -0.263 OA
ATOM      4  C   UNL d   1      52.506  33.473  53.302  0.00  0.00     0.205 A 
ATOM      5  N   UNL d   1      52.724  34.231  53.176  0.00  0.00    -0.120 NA
ATOM      6  N   UNL d   1      52.091  34.659  52.893  0.00  0.00    -0.114 NA
BRANCH   4   7
ATOM      7  C   UNL d   1      52.997  32.892  53.583  0.00  0.00     0.046 A 
ATOM      8  C   UNL d   1      53.063  32.167  53.202  0.00  0.00     0.024 A 
ATOM      9  C   UNL d   1      53.583  31.593  53.526  0.00  0.00     0.099 A 
ATOM     10  N   UNL d   1      54.018  31.741  54.202  0.00  0.00    -0.242 NA
ATOM     11  C   UNL d   1      53.950  32.481  54.588  0.00  0.00     0.099 A 
ATOM     12  C   UNL d   1      53.444  33.058  54.287  0.00  0.00     0.024 A 
ENDBRANCH   4   7
ENDBRANCH   1   2
BRANCH   1  13
ATOM     13  C   UNL d   1      50.166  34.706  53.030  0.00  0.00     0.101 C 
BRANCH  13  14
ATOM     14  C   UNL d   1      49.453  34.941  52.700  0.00  0.00     0.286 C 
ATOM     15  N   UNL d   1      48.981  35.507  53.094  0.00  0.00    -0.207 NA
ATOM     16  O   UNL d   1      49.188  34.628  51.981  0.00  0.00    -0.265 OA
BRANCH  15  17
ATOM     17  C   UNL d   1      48.253  35.752  52.765  0.00  0.00     0.095 A 
ATOM     18  C   UNL d   1      47.761  36.243  53.187  0.00  0.00     0.075 A 
ATOM     19 CL   UNL d   1      47.971  36.512  53.956  0.00  0.00    -0.081 Cl
ATOM     20  C   UNL d   1      47.034  36.483  52.851  0.00  0.00     0.013 A 
ATOM     21  C   UNL d   1      46.817  36.236  52.117  0.00  0.00     0.001 A 
ATOM     22  C   UNL d   1      47.304  35.739  51.677  0.00  0.00     0.002 A 
ATOM     23  C   UNL d   1      48.040  35.491  52.009  0.00  0.00     0.020 A 
ENDBRANCH  15  17
ENDBRANCH  13  14
ENDBRANCH   1  13
TORSDOF 5
ENDMDL
MODEL 3
REMARK VINA RESULT:      -6.0     10.051     10.968
REMARK  5 active torsions:
REMARK  status: ('A' for Active; 'I' for Inactive)
REMARK    1  A    between atoms: C_10  and  C_3 
REMARK    2  A    between atoms: S_9  and  C_4 
REMARK       I    between atoms: N_6  and  C_7 
REMARK    3  A    between atoms: C_8  and  N_6 
REMARK    4  A    between atoms: C_7  and  C_14 
REMARK    5  A    between atoms: C_14  and  S_9 
ROOT
ATOM      1  S   UNL d   1      45.210  27.314  56.779  0.00  0.00    -0.036 SA
ENDROOT
BRANCH   1   2
ATOM      2  C   UNL d   1      44.989  26.499  56.752  0.00  0.00     0.236 A 
ATOM      3  O   UNL d   1      45.063  26.064  56.052  0.00  0.00    -0.263 OA
ATOM      4  C   UNL d   1      44.808  25.312  56.210  0.00  0.00     0.205 A 
ATOM      5  N   UNL d   1      44.583  25.271  56.975  0.00  0.00    -0.120 NA
ATOM      6  N   UNL d   1      44.685  25.996  57.334  0.00  0.00    -0.114 NA
BRANCH   4   7
ATOM      7  C   UNL d   1      44.781  24.693  55.687  0.00  0.00     0.046 A 
ATOM      8  C   UNL d   1      44.413  24.767  54.957  0.00  0.00     0.024 A 
ATOM      9  C   UNL d   1      44.407  24.102  54.445  0.00  0.00     0.099 A 
ATOM     10  N   UNL d   1      44.755  23.394  54.658  0.00  0.00    -0.242 NA
ATOM     11  C   UNL d   1      45.130  23.321  55.403  0.00  0.00     0.099 A 
ATOM     12  C   UNL d   1      45.147  23.962  55.920  0.00  0.00     0.024 A 
ENDBRANCH   4   7
ENDBRANCH   1   2
BRANCH   1  13
ATOM     13  C   UNL d   1      44.897  27.791  57.352  0.00  0.00     0.101 C 
BRANCH  13  14
ATOM     14  C   UNL d   1      44.946  28.604  57.259  0.00  0.00     0.286 C 
ATOM     15  N   UNL d   1      44.695  29.108  57.876  0.00  0.00    -0.207 NA
ATOM     16  O   UNL d   1      45.242  28.940  56.562  0.00  0.00    -0.265 OA
BRANCH  15  17
ATOM     17  C   UNL d   1      44.741  29.938  57.789  0.00  0.00     0.095 A 
ATOM     18  C   UNL d   1      44.996  30.398  58.408  0.00  0.00     0.075 A 
ATOM     19 CL   UNL d   1      45.218  30.053  59.144  0.00  0.00    -0.081 Cl
ATOM     20  C   UNL d   1      45.040  31.227  58.313  0.00  0.00     0.013 A 
ATOM     21  C   UNL d   1      44.833  31.575  57.617  0.00  0.00     0.001 A 
ATOM     22  C   UNL d   1      44.572  31.123  56.981  0.00  0.00     0.002 A 
ATOM     23  C   UNL d   1      44.525  30.283  57.068  0.00  0.00     0.020 A 
ENDBRANCH  15  17
ENDBRANCH  13  14
ENDBRANCH   1  13
TORSDOF 5
ENDMDL
MODEL 4
REMARK VINA RESULT:      -5.8     10.496     10.965
REMARK  5 active torsions:
REMARK  status: ('A' for Active; 'I' for Inactive)
REMARK    1  A    between atoms: C_10  and  C_3 
REMARK    2  A    between atoms: S_9  and  C_4 
REMARK       I    between atoms: N_6  and  C_7 
REMARK    3  A    between atoms: C_8  and  N_6 
REMARK    4  A    between atoms: C_7  and  C_14 
REMARK    5  A    between atoms: C_14  and  S_9 
ROOT
ATOM      1  S   UNL d   1      45.302  27.026  57.055  0.00  0.00    -0.036 SA
ENDROOT
BRANCH   1   2
ATOM      2  C   UNL d   1      45.222  27.658  57.610  0.00  0.00     0.236 A 
ATOM      3  O   UNL d   1      45.139  28.440  57.351  0.00  0.00    -0.263 OA
ATOM      4  C   UNL d   1      45.076  28.903  58.012  0.00  0.00     0.205 A 
ATOM      5  N   UNL d   1      45.117  28.438  58.659  0.00  0.00    -0.120 NA
ATOM      6  N   UNL d   1      45.208  27.659  58.437  0.00  0.00    -0.114 NA
BRANCH   4   7
ATOM      7  C   UNL d   1      44.986  29.709  58.028  0.00  0.00     0.046 A 
ATOM      8  C   UNL d   1      44.687  30.118  57.381  0.00  0.00     0.024 A 
ATOM      9  C   UNL d   1      44.610  30.952  57.439  0.00  0.00     0.099 A 
ATOM     10  N   UNL d   1      44.823  31.357  58.116  0.00  0.00    -0.242 NA
ATOM     11  C   UNL d   1      45.128  30.938  58.774  0.00  0.00     0.099 A 
ATOM     12  C   UNL d   1      45.212  30.119  58.738  0.00  0.00     0.024 A 
ENDBRANCH   4   7
ENDBRANCH   1   2
BRANCH   1  13
ATOM     13  C   UNL d   1      44.842  26.366  57.135  0.00  0.00     0.101 C 
BRANCH  13  14
ATOM     14  C   UNL d   1      44.930  25.756  56.595  0.00  0.00     0.286 C 
ATOM     15  N   UNL d   1      44.557  25.021  56.736  0.00  0.00    -0.207 NA
ATOM     16  O   UNL d   1      45.382  25.851  55.908  0.00  0.00    -0.265 OA
BRANCH  15  17
ATOM     17  C   UNL d   1      44.642  24.393  56.190  0.00  0.00     0.095 A 
ATOM     18  C   UNL d   1      44.699  23.628  56.458  0.00  0.00     0.075 A 
ATOM     19 CL   UNL d   1      44.676  23.451  57.281  0.00  0.00    -0.081 Cl
ATOM     20  C   UNL d   1      44.784  23.006  55.906  0.00  0.00     0.013 A 
ATOM     21  C   UNL d   1      44.808  23.155  55.116  0.00  0.00     0.001 A 
ATOM     22  C   UNL d   1      44.751  23.925  54.829  0.00  0.00     0.002 A 
ATOM     23  C   UNL d   1      44.666  24.560  55.380  0.00  0.00     0.020 A 
ENDBRANCH  15  17
ENDBRANCH  13  14
ENDBRANCH   1  13
TORSDOF 5
ENDMDL
MODEL 5
REMARK VINA RESULT:      -5.8     10.334     11.126
REMARK  5 active torsions:
REMARK  status: ('A' for Active; 'I' for Inactive)
REMARK    1  A    between atoms: C_10  and  C_3 
REMARK    2  A    between atoms: S_9  and  C_4 
REMARK       I    between atoms: N_6  and  C_7 
REMARK    3  A    between atoms: C_8  and  N_6 
REMARK    4  A    between atoms: C_7  and  C_14 
REMARK    5  A    between atoms: C_14  and  S_9 
ROOT
ATOM      1  S   UNL d   1      44.880  27.562  58.127  0.00  0.00    -0.036 SA
ENDROOT
BRANCH   1   2
ATOM      2  C   UNL d   1      45.050  27.077  57.457  0.00  0.00     0.236 A 
ATOM      3  O   UNL d   1      44.679  26.343  57.362  0.00  0.00    -0.263 OA
ATOM      4  C   UNL d   1      44.959  26.023  56.673  0.00  0.00     0.205 A 
ATOM      5  N   UNL d   1      45.482  26.529  56.346  0.00  0.00    -0.120 NA
ATOM      6  N   UNL d   1      45.556  27.193  56.813  0.00  0.00    -0.114 NA
BRANCH   4   7
ATOM      7  C   UNL d   1      44.750  25.306  56.356  0.00  0.00     0.046 A 
ATOM      8  C   UNL d   1      44.742  25.185  55.544  0.00  0.00     0.024 A 
ATOM      9  C   UNL d   1      44.520  24.427  55.257  0.00  0.00     0.099 A 
ATOM     10  N   UNL d   1      44.316  23.820  55.764  0.00  0.00    -0.242 NA
ATOM     11  C   UNL d   1      44.325  23.946  56.591  0.00  0.00     0.099 A 
ATOM     12  C   UNL d   1      44.540  24.682  56.894  0.00  0.00     0.024 A 
ENDBRANCH   4   7
ENDBRANCH   1   2
BRANCH   1  13
ATOM     13  C   UNL d   1      45.228  28.289  58.190  0.00  0.00     0.101 C 
BRANCH  13  14
ATOM     14  C   UNL d   1      44.994  28.788  58.798  0.00  0.00     0.286 C 
ATOM     15  N   UNL d   1      45.179  29.602  58.759  0.00  0.00    -0.207 NA
ATOM     16  O   UNL d   1      44.577  28.501  59.452  0.00  0.00    -0.265 OA
BRANCH  15  17
ATOM     17  C   UNL d   1      44.945  30.117  59.375  0.00  0.00     0.095 A 
ATOM     18  C   UNL d   1      44.694  30.870  59.200  0.00  0.00     0.075 A 
ATOM     19 CL   UNL d   1      44.664  31.146  58.406  0.00  0.00    -0.081 Cl
ATOM     20  C   UNL d   1      44.462  31.379  59.821  0.00  0.00     0.013 A 
ATOM     21  C   UNL d   1      44.484  31.133  60.587  0.00  0.00     0.001 A 
ATOM     22  C   UNL d   1      44.735  30.373  60.780  0.00  0.00     0.002 A 
ATOM     23  C   UNL d   1      44.972  29.852  60.158  0.00  0.00     0.020 A 
ENDBRANCH  15  17
ENDBRANCH  13  14
ENDBRANCH   1  13
TORSDOF 5
ENDMDL
MODEL 6
REMARK VINA RESULT:      -5.6     10.033     10.961
REMARK  5 active torsions:
REMARK  status: ('A' for Active; 'I' for Inactive)
REMARK    1  A    between atoms: C_10  and  C_3 
REMARK    2  A    between atoms: S_9  and  C_4 
REMARK       I    between atoms: N_6  and  C_7 
REMARK    3  A    between atoms: C_8  and  N_6 
REMARK    4  A    between atoms: C_7  and  C_14 
REMARK    5  A    between atoms: C_14  and  S_9 
ROOT
ATOM      1  S   UNL d   1      44.561  30.187  59.976  0.00  0.00    -0.036 SA
ENDROOT
BRANCH   1   2
ATOM      2  C   UNL d   1      44.588  30.650  60.682  0.00  0.00     0.236 A 
ATOM      3  O   UNL d   1      44.477  30.298  61.423  0.00  0.00    -0.263 OA
ATOM      4  C   UNL d   1      44.535  30.885  61.977  0.00  0.00     0.205 A 
ATOM      5  N   UNL d   1      44.677  31.578  61.606  0.00  0.00    -0.120 NA
ATOM      6  N   UNL d   1      44.714  31.459  60.800  0.00  0.00    -0.114 NA
BRANCH   4   7
ATOM      7  C   UNL d   1      44.463  30.799  62.780  0.00  0.00     0.046 A 
ATOM      8  C   UNL d   1      44.406  30.056  63.126  0.00  0.00     0.024 A 
ATOM      9  C   UNL d   1      44.333  30.011  63.961  0.00  0.00     0.099 A 
ATOM     10  N   UNL d   1      44.319  30.682  64.427  0.00  0.00    -0.242 NA
ATOM     11  C   UNL d   1      44.377  31.438  64.073  0.00  0.00     0.099 A 
ATOM     12  C   UNL d   1      44.449  31.504  63.254  0.00  0.00     0.024 A 
ENDBRANCH   4   7
ENDBRANCH   1   2
BRANCH   1  13
ATOM     13  C   UNL d   1      44.703  30.541  59.264  0.00  0.00     0.101 C 
BRANCH  13  14
ATOM     14  C   UNL d   1      44.649  30.089  58.581  0.00  0.00     0.286 C 
ATOM     15  N   UNL d   1      44.658  30.464  57.835  0.00  0.00    -0.207 NA
ATOM     16  O   UNL d   1      44.586  29.265  58.615  0.00  0.00    -0.265 OA
BRANCH  15  17
ATOM     17  C   UNL d   1      44.604  30.012  57.134  0.00  0.00     0.095 A 
ATOM     18  C   UNL d   1      44.535  30.384  56.415  0.00  0.00     0.075 A 
ATOM     19 CL   UNL d   1      44.517  31.223  56.358  0.00  0.00    -0.081 Cl
ATOM     20  C   UNL d   1      44.482  29.924  55.719  0.00  0.00     0.013 A 
ATOM     21  C   UNL d   1      44.497  29.120  55.752  0.00  0.00     0.001 A 
ATOM     22  C   UNL d   1      44.567  28.729  56.473  0.00  0.00     0.002 A 
ATOM     23  C   UNL d   1      44.621  29.186  57.181  0.00  0.00     0.020 A 
ENDBRANCH  15  17
ENDBRANCH  13  14
ENDBRANCH   1  13
TORSDOF 5
ENDMDL
