MODEL 1
REMARK VINA RESULT:      -3.9      0.000      0.000
REMARK  6 active torsions:
REMARK  status: ('A' for Active; 'I' for Inactive)
REMARK    1  A    between atoms: C_3  and  C_1 
REMARK    2  A    between atoms: S_2  and  C_3 
REMARK    3  A    between atoms: C_8  and  S_2 
REMARK    4  A    between atoms: C_9  and  C_3 
REMARK    5  A    between atoms: N_7  and  C_4 
REMARK    6  A    between atoms: C_25  and  N_16 
ROOT
ATOM      1  C   UNL d   1     -47.769  13.110  22.723  0.00  0.00     0.128 A 
ATOM      2  C   UNL d   1     -47.183  12.538  22.669  0.00  0.00     0.166 A 
ATOM      3  N   UNL d   1     -48.518  12.910  22.990  0.00  0.00    -0.240 NA
ATOM      4  N   UNL d   1     -47.345  11.766  22.881  0.00  0.00    -0.225 NA
ATOM      5  C   UNL d   1     -48.676  12.136  23.202  0.00  0.00     0.099 A 
ATOM      6  C   UNL d   1     -48.093  11.561  23.149  0.00  0.00     0.101 A 
ATOM      7  C   UNL d   1     -48.260  10.783  23.364  0.00  0.00     0.021 A 
ATOM      8  C   UNL d   1     -49.431  11.936  23.471  0.00  0.00     0.021 A 
ATOM      9  C   UNL d   1     -49.598  11.158  23.686  0.00  0.00     0.002 A 
ATOM     10  C   UNL d   1     -49.011  10.585  23.631  0.00  0.00     0.002 A 
ENDROOT
BRANCH   1  11
ATOM     11  C   UNL d   1     -47.611  13.886  22.511  0.00  0.00     0.129 C 
BRANCH  11  12
ATOM     12  S   UNL d   1     -48.266  14.366  22.130  0.00  0.00     0.213 S 
ATOM     13  O   UNL d   1     -47.767  14.128  21.502  0.00  0.00    -0.217 OA
ATOM     14  O   UNL d   1     -48.244  14.475  21.247  0.00  0.00    -0.217 OA
BRANCH  12  15
ATOM     15  C   UNL d   1     -48.933  14.758  22.441  0.00  0.00     0.088 A 
ATOM     16  C   UNL d   1     -49.670  14.673  22.072  0.00  0.00     0.011 A 
ATOM     17  C   UNL d   1     -50.330  15.060  22.377  0.00  0.00     0.001 A 
ATOM     18  C   UNL d   1     -51.063  14.978  22.014  0.00  0.00     0.000 C 
ATOM     19  C   UNL d   1     -50.256  15.533  23.055  0.00  0.00     0.000 A 
ATOM     20  C   UNL d   1     -49.518  15.615  23.420  0.00  0.00     0.001 A 
ATOM     21  C   UNL d   1     -50.917  15.922  23.364  0.00  0.00     0.000 C 
ATOM     22  C   UNL d   1     -48.854  15.228  23.116  0.00  0.00     0.011 A 
ENDBRANCH  12  15
ENDBRANCH  11  12
BRANCH  11  23
ATOM     23  C   UNL d   1     -46.884  14.356  22.592  0.00  0.00     0.135 C 
ATOM     24  N   UNL d   1     -46.789  15.160  22.947  0.00  0.00    -0.146 N 
ENDBRANCH  11  23
ENDBRANCH   1  11
BRANCH   2  25
ATOM     25  N   UNL d   1     -46.425  12.756  22.395  0.00  0.00    -0.285 N 
ATOM     26  C   UNL d   1     -46.242  12.715  21.592  0.00  0.00     0.101 A 
ATOM     27  C   UNL d   1     -45.484  12.935  21.330  0.00  0.00     0.100 A 
ATOM     28  N   UNL d   1     -44.912  13.195  21.879  0.00  0.00    -0.300 N 
ATOM     29  C   UNL d   1     -45.099  13.235  22.689  0.00  0.00     0.100 A 
ATOM     30  C   UNL d   1     -45.853  13.016  22.944  0.00  0.00     0.101 A 
BRANCH  28  31
ATOM     31  C   UNL d   1     -44.147  13.416  21.611  0.00  0.00     0.080 C 
ATOM     32  C   UNL d   1     -43.608  12.820  21.387  0.00  0.00     0.021 C 
ENDBRANCH  28  31
ENDBRANCH   2  25
TORSDOF 6
ENDMDL
