MODEL 1
REMARK VINA RESULT:       2.3      0.000      0.000
REMARK  2 active torsions:
REMARK  status: ('A' for Active; 'I' for Inactive)
REMARK    1  A    between atoms: C_6  and  C_3 
REMARK    2  A    between atoms: C_9  and  C_6 
ROOT
ATOM      1  N   UNL d   1      14.222  11.784  -2.474  0.00  0.00    -0.225 NA
ATOM      2  N   UNL d   1      13.013  11.780  -1.899  0.00  0.00    -0.225 NA
ATOM      3  C   UNL d   1      13.412  11.782  -2.618  0.00  0.00     0.163 A 
ATOM      4  C   UNL d   1      14.327  11.783  -1.676  0.00  0.00     0.101 A 
ATOM      5  C   UNL d   1      13.567  11.781  -1.315  0.00  0.00     0.101 A 
ATOM      6  C   UNL d   1      14.994  11.785  -1.212  0.00  0.00     0.021 A 
ATOM      7  C   UNL d   1      13.507  11.780  -0.505  0.00  0.00     0.021 A 
ATOM      8  C   UNL d   1      14.943  11.784  -0.380  0.00  0.00     0.002 A 
ATOM      9  C   UNL d   1      14.183  11.781  -0.019  0.00  0.00     0.002 A 
ENDROOT
BRANCH   3  10
ATOM     10  C   UNL d   1      13.058  11.781  -3.363  0.00  0.00     0.039 C 
BRANCH  10  11
ATOM     11  C   UNL d   1      13.513  11.827  -4.043  0.00  0.00     0.003 C 
ATOM     12  C   UNL d   1      13.162  11.789  -4.789  0.00  0.00     0.000 C 
ENDBRANCH  10  11
ENDBRANCH   3  10
TORSDOF 2
ENDMDL
