MODEL 1
REMARK VINA RESULT:      68.7      0.000      0.000
REMARK  6 active torsions:
REMARK  status: ('A' for Active; 'I' for Inactive)
REMARK    1  A    between atoms: C_13  and  S_1 
REMARK    2  A    between atoms: C_2  and  C_6 
REMARK       I    between atoms: N_3  and  C_2 
REMARK    3  A    between atoms: C_4  and  N_3 
REMARK    4  A    between atoms: N_5  and  C_6 
REMARK       I    between atoms: C_7  and  N_5 
REMARK    5  A    between atoms: C_6  and  C_9 
REMARK    6  A    between atoms: C_9  and  C_13 
ROOT
ATOM      1  C   UNL d   1      60.830  48.304  50.387  0.00  0.00     0.297 C 
ATOM      2  N   UNL d   1      60.749  47.518  50.618  0.00  0.00    -0.207 NA
ATOM      3  O   UNL d   1      61.367  48.503  49.787  0.00  0.00    -0.264 OA
ENDROOT
BRANCH   1   4
ATOM      4  C   UNL d   1      60.376  48.895  50.753  0.00  0.00     0.143 C 
BRANCH   4   5
ATOM      5  N   UNL d   1      60.525  49.099  51.538  0.00  0.00    -0.203 NA
ATOM      6  C   UNL d   1      61.215  49.504  51.735  0.00  0.00     0.280 C 
ATOM      7  O   UNL d   1      61.755  49.705  51.148  0.00  0.00    -0.265 OA
ATOM      8  C   UNL d   1      61.364  49.708  52.521  0.00  0.00     0.068 C 
ENDBRANCH   4   5
BRANCH   4   9
ATOM      9  C   UNL d   1      59.779  49.278  50.333  0.00  0.00     0.036 C 
BRANCH   9  10
ATOM     10  C   UNL d   1      59.156  49.630  50.739  0.00  0.00     0.096 C 
BRANCH  10  11
ATOM     11  S   UNL d   1      58.391  49.582  50.436  0.00  0.00     0.192 S 
ATOM     12  O   UNL d   1      57.722  49.566  49.940  0.00  0.00    -0.222 OA
ATOM     13  O   UNL d   1      58.871  49.708  49.770  0.00  0.00    -0.222 OA
ATOM     14  C   UNL d   1      57.756  49.457  50.945  0.00  0.00     0.145 C 
ENDBRANCH  10  11
ENDBRANCH   9  10
ENDBRANCH   4   9
ENDBRANCH   1   4
BRANCH   2  15
ATOM     15  C   UNL d   1      61.202  46.931  50.252  0.00  0.00     0.085 A 
ATOM     16  C   UNL d   1      61.099  46.134  50.460  0.00  0.00     0.018 A 
ATOM     17  C   UNL d   1      61.546  45.544  50.101  0.00  0.00     0.002 A 
ATOM     18  C   UNL d   1      60.540  45.939  51.035  0.00  0.00     0.002 A 
ATOM     19  C   UNL d   1      61.447  44.756  50.303  0.00  0.00     0.000 A 
ATOM     20  C   UNL d   1      62.111  45.753  49.518  0.00  0.00     0.000 A 
ATOM     21  C   UNL d   1      60.885  44.552  50.883  0.00  0.00     0.000 A 
ATOM     22  C   UNL d   1      60.437  45.145  51.243  0.00  0.00     0.000 A 
ATOM     23  C   UNL d   1      62.206  46.544  49.319  0.00  0.00     0.002 A 
ATOM     24  C   UNL d   1      61.760  47.129  49.678  0.00  0.00     0.019 A 
ENDBRANCH   2  15
TORSDOF 6
ENDMDL
