MODEL 1
REMARK VINA RESULT:      -8.5      0.000      0.000
REMARK  4 active torsions:
REMARK  status: ('A' for Active; 'I' for Inactive)
REMARK    1  A    between atoms: N_8  and  C_3 
REMARK    2  A    between atoms: C_9  and  C_4 
REMARK    3  A    between atoms: C_15  and  N_8 
REMARK    4  A    between atoms: C_10  and  C_15 
ROOT
ATOM      1  C   UNL d   1      53.408  33.073  53.861  0.00  0.00     0.192 A 
ATOM      2  N   UNL d   1      52.879  33.650  53.635  0.00  0.00    -0.208 NA
ATOM      3  C   UNL d   1      53.126  32.346  53.627  0.00  0.00     0.212 A 
ATOM      4  C   UNL d   1      52.236  33.262  53.240  0.00  0.00     0.185 A 
ATOM      5  O   UNL d   1      52.402  32.444  53.242  0.00  0.00    -0.269 OA
ATOM      6  C   UNL d   1      54.130  33.188  54.269  0.00  0.00     0.124 C 
ATOM      7  N   UNL d   1      54.848  33.310  54.675  0.00  0.00    -0.190 NA
ENDROOT
BRANCH   3   8
ATOM      8  N   UNL d   1      53.529  31.607  53.768  0.00  0.00    -0.217 NA
BRANCH   8   9
ATOM      9  C   UNL d   1      53.316  30.937  53.353  0.00  0.00     0.126 C 
BRANCH   9  10
ATOM     10  C   UNL d   1      53.324  30.203  53.741  0.00  0.00     0.119 A 
ATOM     11  O   UNL d   1      53.658  29.940  54.443  0.00  0.00    -0.304 OA
ATOM     12  C   UNL d   1      53.473  29.146  54.533  0.00  0.00     0.123 A 
ATOM     13  C   UNL d   1      53.032  28.909  53.904  0.00  0.00     0.029 A 
ATOM     14  C   UNL d   1      52.928  29.545  53.403  0.00  0.00     0.028 A 
ENDBRANCH   9  10
ENDBRANCH   8   9
ENDBRANCH   3   8
BRANCH   4  15
ATOM     15  C   UNL d   1      51.576  33.647  52.921  0.00  0.00     0.041 A 
ATOM     16  C   UNL d   1      50.871  33.688  53.346  0.00  0.00     0.004 A 
ATOM     17  C   UNL d   1      50.216  34.070  53.032  0.00  0.00     0.000 A 
ATOM     18  C   UNL d   1      50.258  34.416  52.289  0.00  0.00     0.000 A 
ATOM     19  C   UNL d   1      50.965  34.373  51.866  0.00  0.00     0.000 A 
ATOM     20  C   UNL d   1      49.572  34.808  51.977  0.00  0.00     0.000 C 
ATOM     21  C   UNL d   1      51.620  33.991  52.180  0.00  0.00     0.004 A 
ENDBRANCH   4  15
TORSDOF 4
ENDMDL
MODEL 2
REMARK VINA RESULT:      -8.5      1.346      4.560
REMARK  4 active torsions:
REMARK  status: ('A' for Active; 'I' for Inactive)
REMARK    1  A    between atoms: N_8  and  C_3 
REMARK    2  A    between atoms: C_9  and  C_4 
REMARK    3  A    between atoms: C_15  and  N_8 
REMARK    4  A    between atoms: C_10  and  C_15 
ROOT
ATOM      1  C   UNL d   1      52.531  34.203  53.706  0.00  0.00     0.192 A 
ATOM      2  N   UNL d   1      53.012  33.550  53.787  0.00  0.00    -0.208 NA
ATOM      3  C   UNL d   1      51.835  33.977  53.350  0.00  0.00     0.212 A 
ATOM      4  C   UNL d   1      52.593  32.886  53.466  0.00  0.00     0.185 A 
ATOM      5  O   UNL d   1      51.856  33.167  53.195  0.00  0.00    -0.269 OA
ATOM      6  C   UNL d   1      52.706  34.986  53.943  0.00  0.00     0.124 C 
ATOM      7  N   UNL d   1      52.888  35.764  54.181  0.00  0.00    -0.190 NA
ENDROOT
BRANCH   3   8
ATOM      8  N   UNL d   1      51.193  34.511  53.173  0.00  0.00    -0.217 NA
BRANCH   8   9
ATOM      9  C   UNL d   1      50.559  34.258  52.724  0.00  0.00     0.126 C 
BRANCH   9  10
ATOM     10  C   UNL d   1      49.865  34.711  52.714  0.00  0.00     0.119 A 
ATOM     11  O   UNL d   1      49.516  35.220  53.255  0.00  0.00    -0.304 OA
ATOM     12  C   UNL d   1      48.823  35.508  52.926  0.00  0.00     0.123 A 
ATOM     13  C   UNL d   1      48.732  35.192  52.193  0.00  0.00     0.029 A 
ATOM     14  C   UNL d   1      49.363  34.697  52.042  0.00  0.00     0.028 A 
ENDBRANCH   9  10
ENDBRANCH   8   9
ENDBRANCH   3   8
BRANCH   4  15
ATOM     15  C   UNL d   1      52.885  32.111  53.439  0.00  0.00     0.041 A 
ATOM     16  C   UNL d   1      52.489  31.531  53.008  0.00  0.00     0.004 A 
ATOM     17  C   UNL d   1      52.777  30.763  52.980  0.00  0.00     0.000 A 
ATOM     18  C   UNL d   1      53.465  30.566  53.382  0.00  0.00     0.000 A 
ATOM     19  C   UNL d   1      53.860  31.149  53.812  0.00  0.00     0.000 A 
ATOM     20  C   UNL d   1      53.751  29.767  53.344  0.00  0.00     0.000 C 
ATOM     21  C   UNL d   1      53.572  31.917  53.840  0.00  0.00     0.004 A 
ENDBRANCH   4  15
TORSDOF 4
ENDMDL
MODEL 3
REMARK VINA RESULT:      -8.3      1.049      1.548
REMARK  4 active torsions:
REMARK  status: ('A' for Active; 'I' for Inactive)
REMARK    1  A    between atoms: N_8  and  C_3 
REMARK    2  A    between atoms: C_9  and  C_4 
REMARK    3  A    between atoms: C_15  and  N_8 
REMARK    4  A    between atoms: C_10  and  C_15 
ROOT
ATOM      1  C   UNL d   1      52.268  34.092  53.570  0.00  0.00     0.192 A 
ATOM      2  N   UNL d   1      51.642  34.560  53.338  0.00  0.00    -0.208 NA
ATOM      3  C   UNL d   1      52.163  33.341  53.274  0.00  0.00     0.212 A 
ATOM      4  C   UNL d   1      51.123  34.076  52.874  0.00  0.00     0.185 A 
ATOM      5  O   UNL d   1      51.460  33.313  52.841  0.00  0.00    -0.269 OA
ATOM      6  C   UNL d   1      52.922  34.326  54.037  0.00  0.00     0.124 C 
ATOM      7  N   UNL d   1      53.570  34.567  54.502  0.00  0.00    -0.190 NA
ENDROOT
BRANCH   3   8
ATOM      8  N   UNL d   1      52.706  32.696  53.401  0.00  0.00    -0.217 NA
BRANCH   8   9
ATOM      9  C   UNL d   1      52.632  32.005  52.972  0.00  0.00     0.126 C 
BRANCH   9  10
ATOM     10  C   UNL d   1      53.028  31.324  53.232  0.00  0.00     0.119 A 
ATOM     11  O   UNL d   1      53.675  31.200  53.721  0.00  0.00    -0.304 OA
ATOM     12  C   UNL d   1      53.807  30.392  53.771  0.00  0.00     0.123 A 
ATOM     13  C   UNL d   1      53.258  30.011  53.325  0.00  0.00     0.029 A 
ATOM     14  C   UNL d   1      52.767  30.566  52.983  0.00  0.00     0.028 A 
ENDBRANCH   9  10
ENDBRANCH   8   9
ENDBRANCH   3   8
BRANCH   4  15
ATOM     15  C   UNL d   1      50.416  34.336  52.529  0.00  0.00     0.041 A 
ATOM     16  C   UNL d   1      50.272  34.208  51.728  0.00  0.00     0.004 A 
ATOM     17  C   UNL d   1      49.572  34.466  51.384  0.00  0.00     0.000 A 
ATOM     18  C   UNL d   1      49.009  34.855  51.837  0.00  0.00     0.000 A 
ATOM     19  C   UNL d   1      49.158  34.982  52.639  0.00  0.00     0.000 A 
ATOM     20  C   UNL d   1      48.291  35.116  51.468  0.00  0.00     0.000 C 
ATOM     21  C   UNL d   1      49.857  34.724  52.983  0.00  0.00     0.004 A 
ENDBRANCH   4  15
TORSDOF 4
ENDMDL
MODEL 4
REMARK VINA RESULT:      -7.6      2.962      5.901
REMARK  4 active torsions:
REMARK  status: ('A' for Active; 'I' for Inactive)
REMARK    1  A    between atoms: N_8  and  C_3 
REMARK    2  A    between atoms: C_9  and  C_4 
REMARK    3  A    between atoms: C_15  and  N_8 
REMARK    4  A    between atoms: C_10  and  C_15 
ROOT
ATOM      1  C   UNL d   1      49.367  34.531  51.931  0.00  0.00     0.192 A 
ATOM      2  N   UNL d   1      50.088  34.154  51.965  0.00  0.00    -0.208 NA
ATOM      3  C   UNL d   1      49.256  34.957  52.616  0.00  0.00     0.212 A 
ATOM      4  C   UNL d   1      50.443  34.355  52.709  0.00  0.00     0.185 A 
ATOM      5  O   UNL d   1      49.912  34.859  53.108  0.00  0.00    -0.269 OA
ATOM      6  C   UNL d   1      48.815  34.500  51.303  0.00  0.00     0.124 C 
ATOM      7  N   UNL d   1      48.270  34.464  50.673  0.00  0.00    -0.190 NA
ENDROOT
BRANCH   3   8
ATOM      8  N   UNL d   1      48.563  35.426  52.782  0.00  0.00    -0.217 NA
BRANCH   8   9
ATOM      9  C   UNL d   1      48.482  35.799  53.504  0.00  0.00     0.126 C 
BRANCH   9  10
ATOM     10  C   UNL d   1      47.758  36.156  53.694  0.00  0.00     0.119 A 
ATOM     11  O   UNL d   1      47.100  36.368  53.252  0.00  0.00    -0.304 OA
ATOM     12  C   UNL d   1      46.549  36.705  53.757  0.00  0.00     0.123 A 
ATOM     13  C   UNL d   1      46.849  36.709  54.503  0.00  0.00     0.029 A 
ATOM     14  C   UNL d   1      47.593  36.375  54.488  0.00  0.00     0.028 A 
ENDBRANCH   9  10
ENDBRANCH   8   9
ENDBRANCH   3   8
BRANCH   4  15
ATOM     15  C   UNL d   1      51.183  34.086  52.967  0.00  0.00     0.041 A 
ATOM     16  C   UNL d   1      51.262  33.334  53.295  0.00  0.00     0.004 A 
ATOM     17  C   UNL d   1      51.994  33.066  53.551  0.00  0.00     0.000 A 
ATOM     18  C   UNL d   1      52.657  33.546  53.482  0.00  0.00     0.000 A 
ATOM     19  C   UNL d   1      52.574  34.298  53.153  0.00  0.00     0.000 A 
ATOM     20  C   UNL d   1      53.407  33.255  53.752  0.00  0.00     0.000 C 
ATOM     21  C   UNL d   1      51.842  34.567  52.897  0.00  0.00     0.004 A 
ENDBRANCH   4  15
TORSDOF 4
ENDMDL
MODEL 5
REMARK VINA RESULT:      -7.4      1.719      2.765
REMARK  4 active torsions:
REMARK  status: ('A' for Active; 'I' for Inactive)
REMARK    1  A    between atoms: N_8  and  C_3 
REMARK    2  A    between atoms: C_9  and  C_4 
REMARK    3  A    between atoms: C_15  and  N_8 
REMARK    4  A    between atoms: C_10  and  C_15 
ROOT
ATOM      1  C   UNL d   1      52.120  32.607  52.932  0.00  0.00     0.192 A 
ATOM      2  N   UNL d   1      51.394  32.838  52.644  0.00  0.00    -0.208 NA
ATOM      3  C   UNL d   1      52.450  33.224  53.348  0.00  0.00     0.212 A 
ATOM      4  C   UNL d   1      51.266  33.639  52.894  0.00  0.00     0.185 A 
ATOM      5  O   UNL d   1      51.936  33.869  53.335  0.00  0.00    -0.269 OA
ATOM      6  C   UNL d   1      52.486  31.861  52.828  0.00  0.00     0.124 C 
ATOM      7  N   UNL d   1      52.844  31.116  52.720  0.00  0.00    -0.190 NA
ENDROOT
BRANCH   3   8
ATOM      8  N   UNL d   1      53.211  33.190  53.732  0.00  0.00    -0.217 NA
BRANCH   8   9
ATOM      9  C   UNL d   1      53.407  33.736  54.307  0.00  0.00     0.126 C 
BRANCH   9  10
ATOM     10  C   UNL d   1      54.173  33.730  54.626  0.00  0.00     0.119 A 
ATOM     11  O   UNL d   1      54.923  33.731  54.292  0.00  0.00    -0.304 OA
ATOM     12  C   UNL d   1      55.473  33.722  54.899  0.00  0.00     0.123 A 
ATOM     13  C   UNL d   1      55.085  33.715  55.603  0.00  0.00     0.029 A 
ATOM     14  C   UNL d   1      54.282  33.720  55.458  0.00  0.00     0.028 A 
ENDBRANCH   9  10
ENDBRANCH   8   9
ENDBRANCH   3   8
BRANCH   4  15
ATOM     15  C   UNL d   1      50.592  34.086  52.718  0.00  0.00     0.041 A 
ATOM     16  C   UNL d   1      50.191  34.488  53.316  0.00  0.00     0.004 A 
ATOM     17  C   UNL d   1      49.522  34.932  53.144  0.00  0.00     0.000 A 
ATOM     18  C   UNL d   1      49.246  34.979  52.373  0.00  0.00     0.000 A 
ATOM     19  C   UNL d   1      49.649  34.575  51.777  0.00  0.00     0.000 A 
ATOM     20  C   UNL d   1      48.553  35.442  52.211  0.00  0.00     0.000 C 
ATOM     21  C   UNL d   1      50.318  34.131  51.949  0.00  0.00     0.004 A 
ENDBRANCH   4  15
TORSDOF 4
ENDMDL
MODEL 6
REMARK VINA RESULT:      -6.5      1.795      4.600
REMARK  4 active torsions:
REMARK  status: ('A' for Active; 'I' for Inactive)
REMARK    1  A    between atoms: N_8  and  C_3 
REMARK    2  A    between atoms: C_9  and  C_4 
REMARK    3  A    between atoms: C_15  and  N_8 
REMARK    4  A    between atoms: C_10  and  C_15 
ROOT
ATOM      1  C   UNL d   1      52.082  33.197  52.654  0.00  0.00     0.192 A 
ATOM      2  N   UNL d   1      52.128  32.386  52.589  0.00  0.00    -0.208 NA
ATOM      3  C   UNL d   1      52.570  33.444  53.258  0.00  0.00     0.212 A 
ATOM      4  C   UNL d   1      52.672  32.116  53.181  0.00  0.00     0.185 A 
ATOM      5  O   UNL d   1      52.942  32.788  53.594  0.00  0.00    -0.269 OA
ATOM      6  C   UNL d   1      51.615  33.711  52.188  0.00  0.00     0.124 C 
ATOM      7  N   UNL d   1      51.147  34.217  51.718  0.00  0.00    -0.190 NA
ENDROOT
BRANCH   3   8
ATOM      8  N   UNL d   1      52.669  34.258  53.491  0.00  0.00    -0.217 NA
BRANCH   8   9
ATOM      9  C   UNL d   1      53.048  34.443  54.190  0.00  0.00     0.126 C 
BRANCH   9  10
ATOM     10  C   UNL d   1      53.147  35.239  54.398  0.00  0.00     0.119 A 
ATOM     11  O   UNL d   1      53.603  35.850  54.091  0.00  0.00    -0.304 OA
ATOM     12  C   UNL d   1      53.465  36.523  54.538  0.00  0.00     0.123 A 
ATOM     13  C   UNL d   1      52.935  36.346  55.116  0.00  0.00     0.029 A 
ATOM     14  C   UNL d   1      52.726  35.561  55.048  0.00  0.00     0.028 A 
ENDBRANCH   9  10
ENDBRANCH   8   9
ENDBRANCH   3   8
BRANCH   4  15
ATOM     15  C   UNL d   1      52.878  31.323  53.305  0.00  0.00     0.041 A 
ATOM     16  C   UNL d   1      52.329  30.723  53.171  0.00  0.00     0.004 A 
ATOM     17  C   UNL d   1      52.532  29.937  53.294  0.00  0.00     0.000 A 
ATOM     18  C   UNL d   1      53.286  29.742  53.552  0.00  0.00     0.000 A 
ATOM     19  C   UNL d   1      53.834  30.345  53.685  0.00  0.00     0.000 A 
ATOM     20  C   UNL d   1      53.481  28.924  53.674  0.00  0.00     0.000 C 
ATOM     21  C   UNL d   1      53.631  31.131  53.563  0.00  0.00     0.004 A 
ENDBRANCH   4  15
TORSDOF 4
ENDMDL
MODEL 7
REMARK VINA RESULT:      -6.2      1.602      4.558
REMARK  4 active torsions:
REMARK  status: ('A' for Active; 'I' for Inactive)
REMARK    1  A    between atoms: N_8  and  C_3 
REMARK    2  A    between atoms: C_9  and  C_4 
REMARK    3  A    between atoms: C_15  and  N_8 
REMARK    4  A    between atoms: C_10  and  C_15 
ROOT
ATOM      1  C   UNL d   1      52.582  32.210  53.287  0.00  0.00     0.192 A 
ATOM      2  N   UNL d   1      53.269  32.232  53.724  0.00  0.00    -0.208 NA
ATOM      3  C   UNL d   1      52.258  32.957  53.262  0.00  0.00     0.212 A 
ATOM      4  C   UNL d   1      53.378  33.033  53.984  0.00  0.00     0.185 A 
ATOM      5  O   UNL d   1      52.737  33.478  53.687  0.00  0.00    -0.269 OA
ATOM      6  C   UNL d   1      52.246  31.540  52.917  0.00  0.00     0.124 C 
ATOM      7  N   UNL d   1      51.917  30.867  52.550  0.00  0.00    -0.190 NA
ENDROOT
BRANCH   3   8
ATOM      8  N   UNL d   1      51.534  33.152  52.854  0.00  0.00    -0.217 NA
BRANCH   8   9
ATOM      9  C   UNL d   1      51.234  33.910  52.889  0.00  0.00     0.126 C 
BRANCH   9  10
ATOM     10  C   UNL d   1      50.589  34.111  52.407  0.00  0.00     0.119 A 
ATOM     11  O   UNL d   1      50.452  34.064  51.599  0.00  0.00    -0.304 OA
ATOM     12  C   UNL d   1      49.699  34.352  51.450  0.00  0.00     0.123 A 
ATOM     13  C   UNL d   1      49.364  34.577  52.145  0.00  0.00     0.029 A 
ATOM     14  C   UNL d   1      49.895  34.438  52.748  0.00  0.00     0.028 A 
ENDBRANCH   9  10
ENDBRANCH   8   9
ENDBRANCH   3   8
BRANCH   4  15
ATOM     15  C   UNL d   1      54.012  33.298  54.445  0.00  0.00     0.041 A 
ATOM     16  C   UNL d   1      54.658  33.670  54.093  0.00  0.00     0.004 A 
ATOM     17  C   UNL d   1      55.288  33.933  54.548  0.00  0.00     0.000 A 
ATOM     18  C   UNL d   1      55.280  33.827  55.362  0.00  0.00     0.000 A 
ATOM     19  C   UNL d   1      54.632  33.454  55.712  0.00  0.00     0.000 A 
ATOM     20  C   UNL d   1      55.939  34.104  55.821  0.00  0.00     0.000 C 
ATOM     21  C   UNL d   1      54.002  33.191  55.256  0.00  0.00     0.004 A 
ENDBRANCH   4  15
TORSDOF 4
ENDMDL
