MODEL 1
REMARK VINA RESULT:      -2.3      0.000      0.000
REMARK  11 active torsions:
REMARK  status: ('A' for Active; 'I' for Inactive)
REMARK    1  A    between atoms: C_2  and  C_1 
REMARK       I    between atoms: N_5  and  C_1 
REMARK    2  A    between atoms: C_4  and  C_2 
REMARK    3  A    between atoms: C_3  and  C_4 
REMARK    4  A    between atoms: O_10  and  C_3 
REMARK    5  A    between atoms: N_9  and  C_4 
REMARK    6  A    between atoms: C_8  and  N_5 
REMARK    7  A    between atoms: C_17  and  N_9 
REMARK    8  A    between atoms: O_16  and  C_11 
REMARK    9  A    between atoms: C_19  and  C_17 
REMARK   10  A    between atoms: C_21  and  C_19 
REMARK   11  A    between atoms: C_20  and  C_21 
ROOT
ATOM      1  C   UNK d   1      32.474  17.280 -24.100  0.00  0.00     0.084 C 
ENDROOT
BRANCH   1   2
ATOM      2  C   UNK d   1      32.490  17.977 -23.648  0.00  0.00     0.259 C 
ATOM      3  N   UNK d   1      33.211  18.302 -23.421  0.00  0.00    -0.321 N 
ATOM      4  H   UNK d   1      33.920  17.940 -23.640  0.00  0.00     0.169 HD
ATOM      5  O   UNK d   1      31.781  18.332 -23.433  0.00  0.00    -0.267 OA
BRANCH   3   6
ATOM      6  C   UNK d   1      33.218  19.003 -22.965  0.00  0.00     0.059 A 
ATOM      7  C   UNK d   1      33.213  18.958 -22.145  0.00  0.00     0.019 A 
ATOM      8  C   UNK d   1      33.221  19.651 -21.701  0.00  0.00     0.026 A 
ATOM      9  C   UNK d   1      33.233  20.387 -22.073  0.00  0.00     0.094 A 
ATOM     10  C   UNK d   1      33.238  20.426 -22.898  0.00  0.00     0.026 A 
ATOM     11  C   UNK d   1      33.230  19.727 -23.341  0.00  0.00     0.019 A 
BRANCH   9  12
ATOM     12  O   UNK d   1      33.240  21.080 -21.628  0.00  0.00    -0.328 OA
ATOM     13  C   UNK d   1      32.542  21.369 -21.306  0.00  0.00     0.181 C 
ENDBRANCH   9  12
ENDBRANCH   3   6
ENDBRANCH   1   2
BRANCH   1  14
ATOM     14  C   UNK d   1      32.119  16.604 -23.808  0.00  0.00     0.124 C 
BRANCH  14  15
ATOM     15  C   UNK d   1      32.580  15.957 -23.591  0.00  0.00     0.194 C 
ATOM     16  O   UNK d   1      32.988  15.519 -24.168  0.00  0.00    -0.645 OA
BRANCH  15  17
ATOM     17  O   UNK d   1      32.640  15.739 -22.802  0.00  0.00    -0.772 OA
ATOM     18  H   UNK d   1      32.663  14.942 -22.596  0.00  0.00     0.167 HD
ENDBRANCH  15  17
ENDBRANCH  14  15
BRANCH  14  19
ATOM     19  N   UNK d   1      31.292  16.571 -23.732  0.00  0.00    -0.347 N 
ATOM     20  H   UNK d   1      30.909  17.088 -23.216  0.00  0.00     0.166 HD
BRANCH  19  21
ATOM     21  C   UNK d   0      30.859  16.023 -24.169  0.00  0.00     0.073 C 
BRANCH  21  22
ATOM     22  C   UNK d   0      30.101  16.215 -24.431  0.00  0.00     0.018 C 
BRANCH  22  23
ATOM     23  C   UNK d   0      29.444  15.929 -24.017  0.00  0.00     0.002 C 
BRANCH  23  24
ATOM     24  C   UNK d   0      28.685  16.192 -24.196  0.00  0.00     0.000 C 
ATOM     25  C   UNK d   0      28.115  16.203 -23.599  0.00  0.00     0.000 C 
ENDBRANCH  23  24
ENDBRANCH  22  23
ENDBRANCH  21  22
ENDBRANCH  19  21
ENDBRANCH  14  19
ENDBRANCH   1  14
TORSDOF 11
ENDMDL
MODEL 2
REMARK VINA RESULT:      -2.2      1.314      2.003
REMARK  11 active torsions:
REMARK  status: ('A' for Active; 'I' for Inactive)
REMARK    1  A    between atoms: C_2  and  C_1 
REMARK       I    between atoms: N_5  and  C_1 
REMARK    2  A    between atoms: C_4  and  C_2 
REMARK    3  A    between atoms: C_3  and  C_4 
REMARK    4  A    between atoms: O_10  and  C_3 
REMARK    5  A    between atoms: N_9  and  C_4 
REMARK    6  A    between atoms: C_8  and  N_5 
REMARK    7  A    between atoms: C_17  and  N_9 
REMARK    8  A    between atoms: O_16  and  C_11 
REMARK    9  A    between atoms: C_19  and  C_17 
REMARK   10  A    between atoms: C_21  and  C_19 
REMARK   11  A    between atoms: C_20  and  C_21 
ROOT
ATOM      1  C   UNK d   1      33.037  18.561 -23.262  0.00  0.00     0.084 C 
ENDROOT
BRANCH   1   2
ATOM      2  C   UNK d   1      32.966  19.322 -22.935  0.00  0.00     0.259 C 
ATOM      3  N   UNK d   1      32.978  19.421 -22.119  0.00  0.00    -0.321 N 
ATOM      4  H   UNK d   1      33.061  18.768 -21.620  0.00  0.00     0.169 HD
ATOM      5  O   UNK d   1      32.883  19.967 -23.437  0.00  0.00    -0.267 OA
BRANCH   3   6
ATOM      6  C   UNK d   1      32.906  20.190 -21.799  0.00  0.00     0.059 A 
ATOM      7  C   UNK d   1      33.230  20.831 -22.198  0.00  0.00     0.019 A 
ATOM      8  C   UNK d   1      33.156  21.586 -21.879  0.00  0.00     0.026 A 
ATOM      9  C   UNK d   1      32.761  21.703 -21.164  0.00  0.00     0.094 A 
ATOM     10  C   UNK d   1      32.437  21.054 -20.768  0.00  0.00     0.026 A 
ATOM     11  C   UNK d   1      32.513  20.296 -21.092  0.00  0.00     0.019 A 
BRANCH   9  12
ATOM     12  O   UNK d   1      32.687  22.458 -20.846  0.00  0.00    -0.328 OA
ATOM     13  C   UNK d   1      32.870  23.116 -21.303  0.00  0.00     0.181 C 
ENDBRANCH   9  12
ENDBRANCH   3   6
ENDBRANCH   1   2
BRANCH   1  14
ATOM     14  C   UNK d   1      32.509  18.302 -23.830  0.00  0.00     0.124 C 
BRANCH  14  15
ATOM     15  C   UNK d   1      32.704  18.357 -24.629  0.00  0.00     0.194 C 
ATOM     16  O   UNK d   1      33.240  17.820 -24.969  0.00  0.00    -0.645 OA
BRANCH  15  17
ATOM     17  O   UNK d   1      32.369  18.942 -25.097  0.00  0.00    -0.772 OA
ATOM     18  H   UNK d   1      32.853  19.471 -25.503  0.00  0.00     0.167 HD
ENDBRANCH  15  17
ENDBRANCH  14  15
BRANCH  14  19
ATOM     19  N   UNK d   1      31.777  17.984 -23.601  0.00  0.00    -0.347 N 
ATOM     20  H   UNK d   1      31.148  18.489 -23.433  0.00  0.00     0.166 HD
BRANCH  19  21
ATOM     21  C   UNK d   0      31.682  17.168 -23.543  0.00  0.00     0.073 C 
BRANCH  21  22
ATOM     22  C   UNK d   0      30.951  16.855 -23.324  0.00  0.00     0.018 C 
BRANCH  22  23
ATOM     23  C   UNK d   0      30.729  16.108 -23.605  0.00  0.00     0.002 C 
BRANCH  23  24
ATOM     24  C   UNK d   0      30.152  15.667 -23.219  0.00  0.00     0.000 C 
ATOM     25  C   UNK d   0      29.409  15.587 -23.570  0.00  0.00     0.000 C 
ENDBRANCH  23  24
ENDBRANCH  22  23
ENDBRANCH  21  22
ENDBRANCH  19  21
ENDBRANCH  14  19
ENDBRANCH   1  14
TORSDOF 11
ENDMDL
MODEL 3
REMARK VINA RESULT:       0.0      1.380      1.739
REMARK  11 active torsions:
REMARK  status: ('A' for Active; 'I' for Inactive)
REMARK    1  A    between atoms: C_2  and  C_1 
REMARK       I    between atoms: N_5  and  C_1 
REMARK    2  A    between atoms: C_4  and  C_2 
REMARK    3  A    between atoms: C_3  and  C_4 
REMARK    4  A    between atoms: O_10  and  C_3 
REMARK    5  A    between atoms: N_9  and  C_4 
REMARK    6  A    between atoms: C_8  and  N_5 
REMARK    7  A    between atoms: C_17  and  N_9 
REMARK    8  A    between atoms: O_16  and  C_11 
REMARK    9  A    between atoms: C_19  and  C_17 
REMARK   10  A    between atoms: C_21  and  C_19 
REMARK   11  A    between atoms: C_20  and  C_21 
ROOT
ATOM      1  C   UNK d   1      31.844  16.890 -23.445  0.00  0.00     0.084 C 
ENDROOT
BRANCH   1   2
ATOM      2  C   UNK d   1      32.198  17.575 -23.757  0.00  0.00     0.259 C 
ATOM      3  N   UNK d   1      31.810  18.298 -23.702  0.00  0.00    -0.321 N 
ATOM      4  H   UNK d   1      31.071  18.350 -23.338  0.00  0.00     0.169 HD
ATOM      5  O   UNK d   1      32.934  17.517 -24.118  0.00  0.00    -0.267 OA
BRANCH   3   6
ATOM      6  C   UNK d   1      32.173  18.982 -24.018  0.00  0.00     0.059 A 
ATOM      7  C   UNK d   1      32.720  19.399 -23.568  0.00  0.00     0.019 A 
ATOM      8  C   UNK d   1      33.075  20.072 -23.884  0.00  0.00     0.026 A 
ATOM      9  C   UNK d   1      32.886  20.328 -24.645  0.00  0.00     0.094 A 
ATOM     10  C   UNK d   1      32.335  19.904 -25.091  0.00  0.00     0.026 A 
ATOM     11  C   UNK d   1      31.981  19.228 -24.771  0.00  0.00     0.019 A 
BRANCH   9  12
ATOM     12  O   UNK d   1      33.241  21.001 -24.959  0.00  0.00    -0.328 OA
ATOM     13  C   UNK d   1      32.854  21.724 -24.923  0.00  0.00     0.181 C 
ENDBRANCH   9  12
ENDBRANCH   3   6
ENDBRANCH   1   2
BRANCH   1  14
ATOM     14  C   UNK d   1      31.686  16.249 -23.927  0.00  0.00     0.124 C 
BRANCH  14  15
ATOM     15  C   UNK d   1      32.305  15.802 -24.235  0.00  0.00     0.194 C 
ATOM     16  O   UNK d   1      32.998  15.682 -23.792  0.00  0.00    -0.645 OA
BRANCH  15  17
ATOM     17  O   UNK d   1      32.243  15.470 -24.983  0.00  0.00    -0.772 OA
ATOM     18  H   UNK d   1      32.670  15.788 -25.612  0.00  0.00     0.167 HD
ENDBRANCH  15  17
ENDBRANCH  14  15
BRANCH  14  19
ATOM     19  N   UNK d   1      30.899  16.049 -24.105  0.00  0.00    -0.347 N 
ATOM     20  H   UNK d   1      30.658  16.006 -24.893  0.00  0.00     0.166 HD
BRANCH  19  21
ATOM     21  C   UNK d   0      30.364  15.896 -23.497  0.00  0.00     0.073 C 
BRANCH  21  22
ATOM     22  C   UNK d   0      29.598  15.650 -23.678  0.00  0.00     0.018 C 
BRANCH  22  23
ATOM     23  C   UNK d   0      28.962  15.958 -23.247  0.00  0.00     0.002 C 
BRANCH  23  24
ATOM     24  C   UNK d   0      28.246  16.129 -23.616  0.00  0.00     0.000 C 
ATOM     25  C   UNK d   0      27.706  16.621 -23.231  0.00  0.00     0.000 C 
ENDBRANCH  23  24
ENDBRANCH  22  23
ENDBRANCH  21  22
ENDBRANCH  19  21
ENDBRANCH  14  19
ENDBRANCH   1  14
TORSDOF 11
ENDMDL
MODEL 4
REMARK VINA RESULT:       0.1      3.695      6.175
REMARK  11 active torsions:
REMARK  status: ('A' for Active; 'I' for Inactive)
REMARK    1  A    between atoms: C_2  and  C_1 
REMARK       I    between atoms: N_5  and  C_1 
REMARK    2  A    between atoms: C_4  and  C_2 
REMARK    3  A    between atoms: C_3  and  C_4 
REMARK    4  A    between atoms: O_10  and  C_3 
REMARK    5  A    between atoms: N_9  and  C_4 
REMARK    6  A    between atoms: C_8  and  N_5 
REMARK    7  A    between atoms: C_17  and  N_9 
REMARK    8  A    between atoms: O_16  and  C_11 
REMARK    9  A    between atoms: C_19  and  C_17 
REMARK   10  A    between atoms: C_21  and  C_19 
REMARK   11  A    between atoms: C_20  and  C_21 
ROOT
ATOM      1  C   UNK d   1      32.071  22.372 -20.526  0.00  0.00     0.084 C 
ENDROOT
BRANCH   1   2
ATOM      2  C   UNK d   1      32.393  22.628 -19.804  0.00  0.00     0.259 C 
ATOM      3  N   UNK d   1      31.913  22.687 -19.139  0.00  0.00    -0.321 N 
ATOM      4  H   UNK d   1      31.111  22.494 -19.183  0.00  0.00     0.169 HD
ATOM      5  O   UNK d   1      33.191  22.818 -19.766  0.00  0.00    -0.267 OA
BRANCH   3   6
ATOM      6  C   UNK d   1      32.245  22.945 -18.416  0.00  0.00     0.059 A 
ATOM      7  C   UNK d   1      32.917  23.417 -18.421  0.00  0.00     0.019 A 
ATOM      8  C   UNK d   1      33.241  23.668 -17.707  0.00  0.00     0.026 A 
ATOM      9  C   UNK d   1      32.895  23.450 -16.990  0.00  0.00     0.094 A 
ATOM     10  C   UNK d   1      32.219  22.976 -16.992  0.00  0.00     0.026 A 
ATOM     11  C   UNK d   1      31.897  22.725 -17.712  0.00  0.00     0.019 A 
BRANCH   9  12
ATOM     12  O   UNK d   1      33.219  23.702 -16.276  0.00  0.00    -0.328 OA
ATOM     13  C   UNK d   1      33.114  23.254 -15.596  0.00  0.00     0.181 C 
ENDBRANCH   9  12
ENDBRANCH   3   6
ENDBRANCH   1   2
BRANCH   1  14
ATOM     14  C   UNK d   1      32.553  22.252 -21.176  0.00  0.00     0.124 C 
BRANCH  14  15
ATOM     15  C   UNK d   1      32.508  22.760 -21.822  0.00  0.00     0.194 C 
ATOM     16  O   UNK d   1      33.175  22.888 -22.303  0.00  0.00    -0.645 OA
BRANCH  15  17
ATOM     17  O   UNK d   1      31.805  23.144 -21.998  0.00  0.00    -0.772 OA
ATOM     18  H   UNK d   1      31.718  23.945 -21.822  0.00  0.00     0.167 HD
ENDBRANCH  15  17
ENDBRANCH  14  15
BRANCH  14  19
ATOM     19  N   UNK d   1      33.088  21.616 -21.182  0.00  0.00    -0.347 N 
ATOM     20  H   UNK d   1      33.882  21.750 -21.005  0.00  0.00     0.166 HD
BRANCH  19  21
ATOM     21  C   UNK d   0      32.824  20.857 -21.365  0.00  0.00     0.073 C 
BRANCH  21  22
ATOM     22  C   UNK d   0      33.091  20.485 -22.051  0.00  0.00     0.018 C 
BRANCH  22  23
ATOM     23  C   UNK d   0      33.108  19.658 -22.082  0.00  0.00     0.002 C 
BRANCH  23  24
ATOM     24  C   UNK d   0      33.083  19.263 -22.804  0.00  0.00     0.000 C 
ATOM     25  C   UNK d   0      32.545  18.644 -22.902  0.00  0.00     0.000 C 
ENDBRANCH  23  24
ENDBRANCH  22  23
ENDBRANCH  21  22
ENDBRANCH  19  21
ENDBRANCH  14  19
ENDBRANCH   1  14
TORSDOF 11
ENDMDL
MODEL 5
REMARK VINA RESULT:       0.4      1.796      5.458
REMARK  11 active torsions:
REMARK  status: ('A' for Active; 'I' for Inactive)
REMARK    1  A    between atoms: C_2  and  C_1 
REMARK       I    between atoms: N_5  and  C_1 
REMARK    2  A    between atoms: C_4  and  C_2 
REMARK    3  A    between atoms: C_3  and  C_4 
REMARK    4  A    between atoms: O_10  and  C_3 
REMARK    5  A    between atoms: N_9  and  C_4 
REMARK    6  A    between atoms: C_8  and  N_5 
REMARK    7  A    between atoms: C_17  and  N_9 
REMARK    8  A    between atoms: O_16  and  C_11 
REMARK    9  A    between atoms: C_19  and  C_17 
REMARK   10  A    between atoms: C_21  and  C_19 
REMARK   11  A    between atoms: C_20  and  C_21 
ROOT
ATOM      1  C   UNK d   1      33.239  20.634 -22.830  0.00  0.00     0.084 C 
ENDROOT
BRANCH   1   2
ATOM      2  C   UNK d   1      32.945  19.859 -22.768  0.00  0.00     0.259 C 
ATOM      3  N   UNK d   1      32.879  19.390 -23.440  0.00  0.00    -0.321 N 
ATOM      4  H   UNK d   1      33.102  19.684 -24.178  0.00  0.00     0.169 HD
ATOM      5  O   UNK d   1      32.724  19.573 -22.030  0.00  0.00    -0.267 OA
BRANCH   3   6
ATOM      6  C   UNK d   1      32.583  18.611 -23.367  0.00  0.00     0.059 A 
ATOM      7  C   UNK d   1      31.824  18.437 -23.631  0.00  0.00     0.019 A 
ATOM      8  C   UNK d   1      31.537  17.669 -23.558  0.00  0.00     0.026 A 
ATOM      9  C   UNK d   1      32.003  17.076 -23.223  0.00  0.00     0.094 A 
ATOM     10  C   UNK d   1      32.765  17.258 -22.960  0.00  0.00     0.026 A 
ATOM     11  C   UNK d   1      33.050  18.032 -23.035  0.00  0.00     0.019 A 
BRANCH   9  12
ATOM     12  O   UNK d   1      31.715  16.309 -23.150  0.00  0.00    -0.328 OA
ATOM     13  C   UNK d   1      32.236  15.674 -23.143  0.00  0.00     0.181 C 
ENDBRANCH   9  12
ENDBRANCH   3   6
ENDBRANCH   1   2
BRANCH   1  14
ATOM     14  C   UNK d   1      32.857  21.254 -22.458  0.00  0.00     0.124 C 
BRANCH  14  15
ATOM     15  C   UNK d   1      32.599  21.903 -22.895  0.00  0.00     0.194 C 
ATOM     16  O   UNK d   1      31.910  22.312 -22.674  0.00  0.00    -0.645 OA
BRANCH  15  17
ATOM     17  O   UNK d   1      33.021  22.151 -23.554  0.00  0.00    -0.772 OA
ATOM     18  H   UNK d   1      33.770  21.842 -23.704  0.00  0.00     0.167 HD
ENDBRANCH  15  17
ENDBRANCH  14  15
BRANCH  14  19
ATOM     19  N   UNK d   1      32.729  21.228 -21.637  0.00  0.00    -0.347 N 
ATOM     20  H   UNK d   1      32.092  20.798 -21.337  0.00  0.00     0.166 HD
BRANCH  19  21
ATOM     21  C   UNK d   0      33.236  21.631 -21.128  0.00  0.00     0.073 C 
BRANCH  21  22
ATOM     22  C   UNK d   0      32.924  22.100 -20.525  0.00  0.00     0.018 C 
BRANCH  22  23
ATOM     23  C   UNK d   0      33.222  22.023 -19.757  0.00  0.00     0.002 C 
BRANCH  23  24
ATOM     24  C   UNK d   0      32.955  22.512 -19.151  0.00  0.00     0.000 C 
ATOM     25  C   UNK d   0      33.105  22.294 -18.368  0.00  0.00     0.000 C 
ENDBRANCH  23  24
ENDBRANCH  22  23
ENDBRANCH  21  22
ENDBRANCH  19  21
ENDBRANCH  14  19
ENDBRANCH   1  14
TORSDOF 11
ENDMDL
