MODEL 1
REMARK VINA RESULT:      -0.1      0.000      0.000
REMARK  4 active torsions:
REMARK  status: ('A' for Active; 'I' for Inactive)
REMARK    1  A    between atoms: N_9  and  C_3 
REMARK    2  A    between atoms: C_12  and  C_5 
REMARK    3  A    between atoms: C_15  and  N_11 
REMARK    4  A    between atoms: C_19  and  C_15 
ROOT
ATOM      1  N   UNL d   1      56.870   0.218  32.661  0.00  0.00    -0.196 N 
ATOM      2  C   UNL d   1      56.718   0.376  33.456  0.00  0.00     0.167 A 
ATOM      3  C   UNL d   1      57.645   0.212  32.383  0.00  0.00     0.152 A 
ATOM      4  N   UNL d   1      56.153   0.090  32.289  0.00  0.00    -0.163 NA
ATOM      5  C   UNL d   1      55.906   0.345  33.574  0.00  0.00     0.055 A 
ATOM      6  C   UNL d   1      55.555   0.169  32.855  0.00  0.00     0.104 A 
ATOM      7  N   UNL d   1      57.340   0.527  33.972  0.00  0.00    -0.227 NA
ATOM      8  C   UNL d   1      58.274   0.365  32.901  0.00  0.00     0.057 A 
ATOM      9  C   UNL d   1      58.122   0.523  33.696  0.00  0.00     0.086 A 
ATOM     10  C   UNL d   1      54.746   0.085  32.721  0.00  0.00     0.023 C 
ATOM     11  C   UNL d   1      58.746   0.677  34.225  0.00  0.00     0.021 C 
ENDROOT
BRANCH   3  12
ATOM     12  N   UNL d   1      57.797   0.055  31.587  0.00  0.00    -0.286 N 
ATOM     13  C   UNL d   1      58.045   0.651  31.089  0.00  0.00     0.101 A 
ATOM     14  C   UNL d   1      58.197   0.489  30.291  0.00  0.00     0.100 A 
ATOM     15  N   UNL d   1      58.101  -0.254  30.005  0.00  0.00    -0.300 N 
ATOM     16  C   UNL d   1      57.849  -0.862  30.509  0.00  0.00     0.100 A 
ATOM     17  C   UNL d   1      57.699  -0.707  31.292  0.00  0.00     0.101 A 
BRANCH  15  18
ATOM     18  C   UNL d   1      58.260  -0.394  29.200  0.00  0.00     0.080 C 
BRANCH  18  19
ATOM     19  C   UNL d   1      58.955  -0.783  28.983  0.00  0.00     0.018 A 
ATOM     20  C   UNL d   1      59.650  -0.353  28.856  0.00  0.00     0.002 A 
ATOM     21  C   UNL d   1      60.341  -0.755  28.639  0.00  0.00     0.000 A 
ATOM     22  C   UNL d   1      60.329  -1.563  28.552  0.00  0.00     0.000 A 
ATOM     23  C   UNL d   1      59.645  -1.980  28.678  0.00  0.00     0.000 A 
ATOM     24  C   UNL d   1      58.950  -1.591  28.895  0.00  0.00     0.002 A 
ENDBRANCH  18  19
ENDBRANCH  15  18
ENDBRANCH   3  12
BRANCH   5  25
ATOM     25  C   UNL d   1      55.436   0.454  34.244  0.00  0.00     0.004 A 
ATOM     26  C   UNL d   1      55.775   0.446  34.996  0.00  0.00     0.000 A 
ATOM     27  C   UNL d   1      55.308   0.555  35.663  0.00  0.00     0.000 A 
ATOM     28  C   UNL d   1      54.489   0.674  35.581  0.00  0.00     0.000 A 
ATOM     29  C   UNL d   1      54.149   0.682  34.830  0.00  0.00     0.000 A 
ATOM     30  C   UNL d   1      54.620   0.572  34.160  0.00  0.00     0.000 A 
ENDBRANCH   5  25
TORSDOF 4
ENDMDL
