MODEL 1
REMARK VINA RESULT:      -1.7      0.000      0.000
REMARK  6 active torsions:
REMARK  status: ('A' for Active; 'I' for Inactive)
REMARK       I    between atoms: C_2  and  N_1 
REMARK    1  A    between atoms: O_20  and  C_2 
REMARK       I    between atoms: C_5  and  N_3 
REMARK    2  A    between atoms: C_15  and  C_5 
REMARK    3  A    between atoms: C_7  and  S_13 
REMARK    4  A    between atoms: C_18  and  C_8 
REMARK    5  A    between atoms: S_13  and  C_15 
REMARK    6  A    between atoms: C_26  and  O_20 
ROOT
ATOM      1  C   UNL d   1     -41.816-122.616 -51.602  0.00  0.00     0.098 C 
ENDROOT
BRANCH   1   2
ATOM      2  S   UNL d   1     -41.276-122.362 -52.166  0.00  0.00    -0.061 SA
BRANCH   2   3
ATOM      3  C   UNL d   1     -41.511-122.254 -52.950  0.00  0.00     0.133 A 
ATOM      4  N   UNL d   1     -41.911-121.575 -53.175  0.00  0.00    -0.141 NA
ATOM      5  N   UNL d   1     -42.146-121.467 -53.958  0.00  0.00    -0.148 NA
ATOM      6  C   UNL d   1     -41.978-122.047 -54.526  0.00  0.00     0.103 A 
ATOM      7  C   UNL d   1     -41.574-122.732 -54.302  0.00  0.00     0.023 A 
ATOM      8  C   UNL d   1     -41.341-122.838 -53.520  0.00  0.00     0.029 A 
BRANCH   6   9
ATOM      9  C   UNL d   1     -42.213-121.938 -55.310  0.00  0.00     0.022 A 
ATOM     10  C   UNL d   1     -42.799-122.433 -55.628  0.00  0.00     0.022 A 
ATOM     11  C   UNL d   1     -43.028-122.317 -56.413  0.00  0.00     0.099 A 
ATOM     12  N   UNL d   1     -42.685-121.728 -56.865  0.00  0.00    -0.242 NA
ATOM     13  C   UNL d   1     -42.099-121.240 -56.534  0.00  0.00     0.099 A 
ATOM     14  C   UNL d   1     -41.869-121.351 -55.756  0.00  0.00     0.022 A 
ENDBRANCH   6   9
ENDBRANCH   2   3
ENDBRANCH   1   2
BRANCH   1  15
ATOM     15  C   UNL d   1     -41.590-123.189 -51.050  0.00  0.00     0.272 C 
ATOM     16  N   UNL d   1     -41.839-123.124 -50.269  0.00  0.00    -0.269 N 
ATOM     17  C   UNL d   1     -41.615-123.690 -49.722  0.00  0.00     0.102 A 
ATOM     18  C   UNL d   1     -42.314-122.483 -50.042  0.00  0.00     0.102 A 
ATOM     19  C   UNL d   1     -41.862-123.629 -48.937  0.00  0.00     0.104 A 
ATOM     20  N   UNL d   1     -42.337-122.991 -48.708  0.00  0.00    -0.249 N 
ATOM     21  C   UNL d   1     -42.578-122.937 -47.926  0.00  0.00     0.378 C 
ATOM     22  C   UNL d   1     -42.557-122.426 -49.263  0.00  0.00     0.104 A 
ATOM     23  O   UNL d   1     -43.052-122.299 -47.697  0.00  0.00    -0.237 OA
ATOM     24  O   UNL d   1     -41.123-123.817 -51.275  0.00  0.00    -0.266 OA
BRANCH  21  25
ATOM     25  O   UNL d   1     -42.354-123.506 -47.378  0.00  0.00    -0.257 OA
BRANCH  25  26
ATOM     26  C   UNL d   1     -41.931-123.294 -46.711  0.00  0.00     0.128 C 
ATOM     27  C   UNL d   1     -41.127-123.420 -46.676  0.00  0.00     0.029 C 
ENDBRANCH  25  26
ENDBRANCH  21  25
ENDBRANCH   1  15
TORSDOF 6
ENDMDL
MODEL 2
REMARK VINA RESULT:      -0.6      1.719      6.538
REMARK  6 active torsions:
REMARK  status: ('A' for Active; 'I' for Inactive)
REMARK       I    between atoms: C_2  and  N_1 
REMARK    1  A    between atoms: O_20  and  C_2 
REMARK       I    between atoms: C_5  and  N_3 
REMARK    2  A    between atoms: C_15  and  C_5 
REMARK    3  A    between atoms: C_7  and  S_13 
REMARK    4  A    between atoms: C_18  and  C_8 
REMARK    5  A    between atoms: S_13  and  C_15 
REMARK    6  A    between atoms: C_26  and  O_20 
ROOT
ATOM      1  C   UNL d   1     -41.658-122.702 -51.883  0.00  0.00     0.098 C 
ENDROOT
BRANCH   1   2
ATOM      2  S   UNL d   1     -41.131-122.762 -51.256  0.00  0.00    -0.061 SA
BRANCH   2   3
ATOM      3  C   UNL d   1     -41.406-122.907 -50.492  0.00  0.00     0.133 A 
ATOM      4  N   UNL d   1     -41.447-123.672 -50.202  0.00  0.00    -0.141 NA
ATOM      5  N   UNL d   1     -41.722-123.817 -49.438  0.00  0.00    -0.148 NA
ATOM      6  C   UNL d   1     -41.960-123.187 -48.955  0.00  0.00     0.103 A 
ATOM      7  C   UNL d   1     -41.920-122.414 -49.245  0.00  0.00     0.023 A 
ATOM      8  C   UNL d   1     -41.645-122.272 -50.008  0.00  0.00     0.029 A 
BRANCH   6   9
ATOM      9  C   UNL d   1     -42.235-123.332 -48.191  0.00  0.00     0.022 A 
ATOM     10  C   UNL d   1     -42.995-123.653 -48.089  0.00  0.00     0.022 A 
ATOM     11  C   UNL d   1     -43.261-123.795 -47.321  0.00  0.00     0.099 A 
ATOM     12  N   UNL d   1     -42.788-123.624 -46.676  0.00  0.00    -0.242 NA
ATOM     13  C   UNL d   1     -42.029-123.303 -46.793  0.00  0.00     0.099 A 
ATOM     14  C   UNL d   1     -41.761-123.161 -47.553  0.00  0.00     0.022 A 
ENDBRANCH   6   9
ENDBRANCH   2   3
ENDBRANCH   1   2
BRANCH   1  15
ATOM     15  C   UNL d   1     -41.478-123.064 -52.604  0.00  0.00     0.272 C 
ATOM     16  N   UNL d   1     -41.657-122.682 -53.310  0.00  0.00    -0.269 N 
ATOM     17  C   UNL d   1     -41.479-123.041 -54.023  0.00  0.00     0.102 A 
ATOM     18  C   UNL d   1     -42.017-121.935 -53.292  0.00  0.00     0.102 A 
ATOM     19  C   UNL d   1     -41.657-122.661 -54.734  0.00  0.00     0.104 A 
ATOM     20  N   UNL d   1     -42.016-121.916 -54.719  0.00  0.00    -0.249 N 
ATOM     21  C   UNL d   1     -42.190-121.545 -55.429  0.00  0.00     0.378 C 
ATOM     22  C   UNL d   1     -42.192-121.562 -53.998  0.00  0.00     0.104 A 
ATOM     23  O   UNL d   1     -42.549-120.800 -55.414  0.00  0.00    -0.237 OA
ATOM     24  O   UNL d   1     -41.124-123.798 -52.620  0.00  0.00    -0.266 OA
BRANCH  21  25
ATOM     25  O   UNL d   1     -42.011-121.906 -56.145  0.00  0.00    -0.257 OA
BRANCH  25  26
ATOM     26  C   UNL d   1     -42.284-121.588 -56.847  0.00  0.00     0.128 C 
ATOM     27  C   UNL d   1     -41.822-121.068 -57.271  0.00  0.00     0.029 C 
ENDBRANCH  25  26
ENDBRANCH  21  25
ENDBRANCH   1  15
TORSDOF 6
ENDMDL
