MODEL 1
REMARK VINA RESULT:      -5.2      0.000      0.000
REMARK  3 active torsions:
REMARK  status: ('A' for Active; 'I' for Inactive)
REMARK    1  A    between atoms: N_11  and  C_4 
REMARK    2  A    between atoms: C_18  and  N_15 
REMARK    3  A    between atoms: C_22  and  C_18 
ROOT
ATOM      1  N   UNL d   1     -39.277  14.988  18.610  0.00  0.00    -0.195 N 
ATOM      2  C   UNL d   1     -39.589  14.935  17.866  0.00  0.00     0.168 A 
ATOM      3  C   UNL d   1     -39.182  14.578  17.278  0.00  0.00     0.073 A 
ATOM      4  C   UNL d   1     -39.696  15.348  19.184  0.00  0.00     0.153 A 
ATOM      5  N   UNL d   1     -38.149  14.328  18.185  0.00  0.00    -0.143 NA
ATOM      6  C   UNL d   1     -38.461  14.275  17.440  0.00  0.00     0.185 A 
ATOM      7  N   UNL d   1     -40.313  15.243  17.714  0.00  0.00    -0.227 NA
ATOM      8  C   UNL d   1     -39.492  14.525  16.540  0.00  0.00     0.007 A 
ATOM      9  N   UNL d   1     -38.038  13.910  16.855  0.00  0.00    -0.225 NA
ATOM     10  C   UNL d   1     -40.414  15.654  19.039  0.00  0.00     0.057 A 
ATOM     11  C   UNL d   1     -39.085  14.168  15.953  0.00  0.00     0.019 A 
ATOM     12  C   UNL d   1     -40.726  15.601  18.295  0.00  0.00     0.086 A 
ATOM     13  C   UNL d   1     -38.350  13.857  16.110  0.00  0.00     0.083 A 
ATOM     14  C   UNL d   1     -40.219  14.835  16.391  0.00  0.00     0.000 C 
ATOM     15  C   UNL d   1     -41.480  15.922  18.140  0.00  0.00     0.021 C 
ATOM     16  C   UNL d   1     -37.940  13.501  15.531  0.00  0.00     0.021 C 
ENDROOT
BRANCH   4  17
ATOM     17  N   UNL d   1     -39.367  15.399  19.951  0.00  0.00    -0.286 N 
ATOM     18  C   UNL d   1     -39.920  14.994  20.408  0.00  0.00     0.101 A 
ATOM     19  C   UNL d   1     -39.791  14.918  21.234  0.00  0.00     0.100 A 
ATOM     20  N   UNL d   1     -39.113  15.246  21.595  0.00  0.00    -0.300 N 
ATOM     21  C   UNL d   1     -38.557  15.657  21.121  0.00  0.00     0.100 A 
ATOM     22  C   UNL d   1     -38.681  15.736  20.297  0.00  0.00     0.101 A 
BRANCH  20  23
ATOM     23  C   UNL d   1     -38.993  15.167  22.411  0.00  0.00     0.080 C 
BRANCH  23  24
ATOM     24  C   UNL d   1     -38.796  14.422  22.737  0.00  0.00     0.018 A 
ATOM     25  C   UNL d   1     -39.265  14.105  23.337  0.00  0.00     0.002 A 
ATOM     26  C   UNL d   1     -39.080  13.363  23.672  0.00  0.00     0.000 A 
ATOM     27  C   UNL d   1     -38.415  12.940  23.397  0.00  0.00     0.000 A 
ATOM     28  C   UNL d   1     -37.940  13.264  22.788  0.00  0.00     0.000 A 
ATOM     29  C   UNL d   1     -38.136  14.004  22.463  0.00  0.00     0.002 A 
ENDBRANCH  23  24
ENDBRANCH  20  23
ENDBRANCH   4  17
TORSDOF 3
ENDMDL
MODEL 2
REMARK VINA RESULT:      -4.8      8.326      9.822
REMARK  3 active torsions:
REMARK  status: ('A' for Active; 'I' for Inactive)
REMARK    1  A    between atoms: N_11  and  C_4 
REMARK    2  A    between atoms: C_18  and  N_15 
REMARK    3  A    between atoms: C_22  and  C_18 
ROOT
ATOM      1  N   UNL d   1     -48.175  13.686  22.970  0.00  0.00    -0.195 N 
ATOM      2  C   UNL d   1     -48.933  13.541  23.213  0.00  0.00     0.168 A 
ATOM      3  C   UNL d   1     -49.470  14.131  23.248  0.00  0.00     0.073 A 
ATOM      4  C   UNL d   1     -47.652  13.085  22.941  0.00  0.00     0.153 A 
ATOM      5  N   UNL d   1     -48.486  15.013  22.794  0.00  0.00    -0.143 NA
ATOM      6  C   UNL d   1     -49.244  14.867  23.037  0.00  0.00     0.185 A 
ATOM      7  N   UNL d   1     -49.149  12.798  23.422  0.00  0.00    -0.227 NA
ATOM      8  C   UNL d   1     -50.221  13.986  23.489  0.00  0.00     0.007 A 
ATOM      9  N   UNL d   1     -49.777  15.475  23.067  0.00  0.00    -0.225 NA
ATOM     10  C   UNL d   1     -47.861  12.348  23.147  0.00  0.00     0.057 A 
ATOM     11  C   UNL d   1     -50.758  14.577  23.523  0.00  0.00     0.019 A 
ATOM     12  C   UNL d   1     -48.619  12.202  23.390  0.00  0.00     0.086 A 
ATOM     13  C   UNL d   1     -50.536  15.330  23.311  0.00  0.00     0.083 A 
ATOM     14  C   UNL d   1     -50.435  13.240  23.698  0.00  0.00     0.000 C 
ATOM     15  C   UNL d   1     -48.841  11.428  23.607  0.00  0.00     0.021 C 
ATOM     16  C   UNL d   1     -51.064  15.921  23.343  0.00  0.00     0.021 C 
ENDROOT
BRANCH   4  17
ATOM     17  N   UNL d   1     -46.871  13.243  22.689  0.00  0.00    -0.286 N 
ATOM     18  C   UNL d   1     -46.791  12.745  22.038  0.00  0.00     0.101 A 
ATOM     19  C   UNL d   1     -46.067  12.736  21.616  0.00  0.00     0.100 A 
ATOM     20  N   UNL d   1     -45.429  13.224  21.846  0.00  0.00    -0.300 N 
ATOM     21  C   UNL d   1     -45.521  13.728  22.509  0.00  0.00     0.100 A 
ATOM     22  C   UNL d   1     -46.241  13.740  22.934  0.00  0.00     0.101 A 
BRANCH  20  23
ATOM     23  C   UNL d   1     -44.717  13.211  21.424  0.00  0.00     0.080 C 
BRANCH  23  24
ATOM     24  C   UNL d   1     -44.069  12.760  21.704  0.00  0.00     0.018 A 
ATOM     25  C   UNL d   1     -43.304  12.959  21.469  0.00  0.00     0.002 A 
ATOM     26  C   UNL d   1     -42.650  12.519  21.741  0.00  0.00     0.000 A 
ATOM     27  C   UNL d   1     -42.772  11.871  22.255  0.00  0.00     0.000 A 
ATOM     28  C   UNL d   1     -43.549  11.671  22.492  0.00  0.00     0.000 A 
ATOM     29  C   UNL d   1     -44.193  12.119  22.214  0.00  0.00     0.002 A 
ENDBRANCH  23  24
ENDBRANCH  20  23
ENDBRANCH   4  17
TORSDOF 3
ENDMDL
MODEL 3
REMARK VINA RESULT:      -4.0      7.504      8.925
REMARK  3 active torsions:
REMARK  status: ('A' for Active; 'I' for Inactive)
REMARK    1  A    between atoms: N_11  and  C_4 
REMARK    2  A    between atoms: C_18  and  N_15 
REMARK    3  A    between atoms: C_22  and  C_18 
ROOT
ATOM      1  N   UNL d   1     -47.080  12.859  22.851  0.00  0.00    -0.195 N 
ATOM      2  C   UNL d   1     -47.803  13.198  22.981  0.00  0.00     0.168 A 
ATOM      3  C   UNL d   1     -48.438  12.749  23.160  0.00  0.00     0.073 A 
ATOM      4  C   UNL d   1     -46.457  13.323  22.674  0.00  0.00     0.153 A 
ATOM      5  N   UNL d   1     -47.623  11.617  23.079  0.00  0.00    -0.143 NA
ATOM      6  C   UNL d   1     -48.346  11.957  23.209  0.00  0.00     0.185 A 
ATOM      7  N   UNL d   1     -47.885  13.994  22.930  0.00  0.00    -0.227 NA
ATOM      8  C   UNL d   1     -49.154  13.085  23.289  0.00  0.00     0.007 A 
ATOM      9  N   UNL d   1     -48.981  11.488  23.389  0.00  0.00    -0.225 NA
ATOM     10  C   UNL d   1     -46.533  14.111  22.622  0.00  0.00     0.057 A 
ATOM     11  C   UNL d   1     -49.789  12.636  23.468  0.00  0.00     0.019 A 
ATOM     12  C   UNL d   1     -47.255  14.451  22.751  0.00  0.00     0.086 A 
ATOM     13  C   UNL d   1     -49.704  11.829  23.519  0.00  0.00     0.083 A 
ATOM     14  C   UNL d   1     -49.234  13.884  23.237  0.00  0.00     0.000 C 
ATOM     15  C   UNL d   1     -47.337  15.279  22.697  0.00  0.00     0.021 C 
ATOM     16  C   UNL d   1     -50.331  11.375  23.697  0.00  0.00     0.021 C 
ENDROOT
BRANCH   4  17
ATOM     17  N   UNL d   1     -45.714  12.964  22.541  0.00  0.00    -0.286 N 
ATOM     18  C   UNL d   1     -45.533  13.210  21.776  0.00  0.00     0.101 A 
ATOM     19  C   UNL d   1     -44.812  12.963  21.426  0.00  0.00     0.100 A 
ATOM     20  N   UNL d   1     -44.278  12.473  21.842  0.00  0.00    -0.300 N 
ATOM     21  C   UNL d   1     -44.471  12.229  22.620  0.00  0.00     0.100 A 
ATOM     22  C   UNL d   1     -45.189  12.473  22.974  0.00  0.00     0.101 A 
BRANCH  20  23
ATOM     23  C   UNL d   1     -43.568  12.233  21.491  0.00  0.00     0.080 C 
BRANCH  23  24
ATOM     24  C   UNL d   1     -42.942  12.779  21.390  0.00  0.00     0.018 A 
ATOM     25  C   UNL d   1     -42.312  12.779  21.923  0.00  0.00     0.002 A 
ATOM     26  C   UNL d   1     -41.682  13.318  21.834  0.00  0.00     0.000 A 
ATOM     27  C   UNL d   1     -41.689  13.861  21.200  0.00  0.00     0.000 A 
ATOM     28  C   UNL d   1     -42.328  13.860  20.660  0.00  0.00     0.000 A 
ATOM     29  C   UNL d   1     -42.951  13.317  20.760  0.00  0.00     0.002 A 
ENDBRANCH  23  24
ENDBRANCH  20  23
ENDBRANCH   4  17
TORSDOF 3
ENDMDL
MODEL 4
REMARK VINA RESULT:      -3.3      5.356      7.215
REMARK  3 active torsions:
REMARK  status: ('A' for Active; 'I' for Inactive)
REMARK    1  A    between atoms: N_11  and  C_4 
REMARK    2  A    between atoms: C_18  and  N_15 
REMARK    3  A    between atoms: C_22  and  C_18 
ROOT
ATOM      1  N   UNL d   1     -44.583  12.638  22.223  0.00  0.00    -0.195 N 
ATOM      2  C   UNL d   1     -45.122  12.291  22.716  0.00  0.00     0.168 A 
ATOM      3  C   UNL d   1     -45.833  12.631  22.846  0.00  0.00     0.073 A 
ATOM      4  C   UNL d   1     -43.879  12.284  22.104  0.00  0.00     0.153 A 
ATOM      5  N   UNL d   1     -45.460  13.669  21.989  0.00  0.00    -0.143 NA
ATOM      6  C   UNL d   1     -46.000  13.322  22.481  0.00  0.00     0.185 A 
ATOM      7  N   UNL d   1     -44.945  11.598  23.077  0.00  0.00    -0.227 NA
ATOM      8  C   UNL d   1     -46.368  12.287  23.334  0.00  0.00     0.007 A 
ATOM      9  N   UNL d   1     -46.715  13.679  22.604  0.00  0.00    -0.225 NA
ATOM     10  C   UNL d   1     -43.698  11.598  22.459  0.00  0.00     0.057 A 
ATOM     11  C   UNL d   1     -47.078  12.628  23.465  0.00  0.00     0.019 A 
ATOM     12  C   UNL d   1     -44.237  11.250  22.952  0.00  0.00     0.086 A 
ATOM     13  C   UNL d   1     -47.256  13.331  23.097  0.00  0.00     0.083 A 
ATOM     14  C   UNL d   1     -46.187  11.591  23.695  0.00  0.00     0.000 C 
ATOM     15  C   UNL d   1     -44.049  10.529  23.326  0.00  0.00     0.021 C 
ATOM     16  C   UNL d   1     -47.960  13.675  23.222  0.00  0.00     0.021 C 
ENDROOT
BRANCH   4  17
ATOM     17  N   UNL d   1     -43.326  12.649  21.594  0.00  0.00    -0.286 N 
ATOM     18  C   UNL d   1     -42.639  12.648  22.049  0.00  0.00     0.101 A 
ATOM     19  C   UNL d   1     -41.936  12.975  21.728  0.00  0.00     0.100 A 
ATOM     20  N   UNL d   1     -41.924  13.300  20.959  0.00  0.00    -0.300 N 
ATOM     21  C   UNL d   1     -42.629  13.296  20.505  0.00  0.00     0.100 A 
ATOM     22  C   UNL d   1     -43.333  12.971  20.820  0.00  0.00     0.101 A 
BRANCH  20  23
ATOM     23  C   UNL d   1     -41.227  13.621  20.649  0.00  0.00     0.080 C 
BRANCH  23  24
ATOM     24  C   UNL d   1     -40.985  14.392  20.867  0.00  0.00     0.018 A 
ATOM     25  C   UNL d   1     -40.340  14.486  21.374  0.00  0.00     0.002 A 
ATOM     26  C   UNL d   1     -40.087  15.248  21.600  0.00  0.00     0.000 A 
ATOM     27  C   UNL d   1     -40.490  15.920  21.311  0.00  0.00     0.000 A 
ATOM     28  C   UNL d   1     -41.144  15.822  20.797  0.00  0.00     0.000 A 
ATOM     29  C   UNL d   1     -41.385  15.057  20.580  0.00  0.00     0.002 A 
ENDBRANCH  23  24
ENDBRANCH  20  23
ENDBRANCH   4  17
TORSDOF 3
ENDMDL
MODEL 5
REMARK VINA RESULT:      -2.8      0.721      1.132
REMARK  3 active torsions:
REMARK  status: ('A' for Active; 'I' for Inactive)
REMARK    1  A    between atoms: N_11  and  C_4 
REMARK    2  A    between atoms: C_18  and  N_15 
REMARK    3  A    between atoms: C_22  and  C_18 
ROOT
ATOM      1  N   UNL d   1     -40.046  14.781  18.190  0.00  0.00    -0.195 N 
ATOM      2  C   UNL d   1     -40.150  14.769  17.387  0.00  0.00     0.168 A 
ATOM      3  C   UNL d   1     -39.619  14.406  16.914  0.00  0.00     0.073 A 
ATOM      4  C   UNL d   1     -40.586  15.148  18.647  0.00  0.00     0.153 A 
ATOM      5  N   UNL d   1     -38.881  14.067  18.050  0.00  0.00    -0.143 NA
ATOM      6  C   UNL d   1     -38.985  14.054  17.248  0.00  0.00     0.185 A 
ATOM      7  N   UNL d   1     -40.791  15.124  17.062  0.00  0.00    -0.227 NA
ATOM      8  C   UNL d   1     -39.722  14.393  16.119  0.00  0.00     0.007 A 
ATOM      9  N   UNL d   1     -38.438  13.683  16.780  0.00  0.00    -0.225 NA
ATOM     10  C   UNL d   1     -41.222  15.501  18.331  0.00  0.00     0.057 A 
ATOM     11  C   UNL d   1     -39.191  14.030  15.645  0.00  0.00     0.019 A 
ATOM     12  C   UNL d   1     -41.326  15.489  17.528  0.00  0.00     0.086 A 
ATOM     13  C   UNL d   1     -38.542  13.670  15.977  0.00  0.00     0.083 A 
ATOM     14  C   UNL d   1     -40.366  14.751  15.795  0.00  0.00     0.000 C 
ATOM     15  C   UNL d   1     -41.993  15.860  17.194  0.00  0.00     0.021 C 
ATOM     16  C   UNL d   1     -38.010  13.307  15.513  0.00  0.00     0.021 C 
ENDROOT
BRANCH   4  17
ATOM     17  N   UNL d   1     -40.472  15.156  19.475  0.00  0.00    -0.286 N 
ATOM     18  C   UNL d   1     -39.817  15.649  19.559  0.00  0.00     0.101 A 
ATOM     19  C   UNL d   1     -39.518  15.805  20.327  0.00  0.00     0.100 A 
ATOM     20  N   UNL d   1     -39.873  15.469  21.004  0.00  0.00    -0.300 N 
ATOM     21  C   UNL d   1     -40.539  14.969  20.908  0.00  0.00     0.100 A 
ATOM     22  C   UNL d   1     -40.842  14.810  20.144  0.00  0.00     0.101 A 
BRANCH  20  23
ATOM     23  C   UNL d   1     -39.573  15.627  21.759  0.00  0.00     0.080 C 
BRANCH  23  24
ATOM     24  C   UNL d   1     -39.161  15.033  22.181  0.00  0.00     0.018 A 
ATOM     25  C   UNL d   1     -38.362  15.141  22.360  0.00  0.00     0.002 A 
ATOM     26  C   UNL d   1     -37.940  14.558  22.780  0.00  0.00     0.000 A 
ATOM     27  C   UNL d   1     -38.330  13.859  23.022  0.00  0.00     0.000 A 
ATOM     28  C   UNL d   1     -39.140  13.752  22.840  0.00  0.00     0.000 A 
ATOM     29  C   UNL d   1     -39.549  14.342  22.420  0.00  0.00     0.002 A 
ENDBRANCH  23  24
ENDBRANCH  20  23
ENDBRANCH   4  17
TORSDOF 3
ENDMDL
