MODEL 1
REMARK VINA RESULT:      -4.0      0.000      0.000
REMARK  4 active torsions:
REMARK  status: ('A' for Active; 'I' for Inactive)
REMARK    1  A    between atoms: C_8  and  C_1 
REMARK    2  A    between atoms: C_12  and  C_3 
REMARK    3  A    between atoms: N_10  and  C_8 
REMARK    4  A    between atoms: C_25  and  C_13 
ROOT
ATOM      1  C   UNL d   1      59.030  -1.130  29.241  0.00  0.00     0.079 A 
ATOM      2  C   UNL d   1      58.635  -0.225  30.270  0.00  0.00     0.062 A 
ATOM      3  C   UNL d   1      57.463  -0.488  31.037  0.00  0.00     0.064 A 
ATOM      4  C   UNL d   1      58.508  -0.916  29.839  0.00  0.00     0.108 A 
ATOM      5  C   UNL d   1      58.112  -0.010  30.870  0.00  0.00     0.199 A 
ATOM      6  O   UNL d   1      57.858  -1.393  30.008  0.00  0.00    -0.305 OA
ATOM      7  C   UNL d   1      57.336  -1.179  30.606  0.00  0.00     0.126 A 
ATOM      8  C   UNL d   1      59.683  -0.653  29.070  0.00  0.00     0.199 A 
ATOM      9  C   UNL d   1      59.284   0.253  30.103  0.00  0.00     0.008 A 
ATOM     10  C   UNL d   1      59.810   0.039  29.501  0.00  0.00     0.039 A 
ATOM     11  O   UNL d   1      58.239   0.682  31.301  0.00  0.00    -0.286 OA
ATOM     12  O   UNL d   1      60.203  -0.861  28.478  0.00  0.00    -0.286 OA
ENDROOT
BRANCH   3  13
ATOM     13  C   UNL d   1      56.940  -0.273  31.637  0.00  0.00     0.007 A 
ATOM     14  C   UNL d   1      56.853  -0.756  32.312  0.00  0.00     0.027 A 
ATOM     15  C   UNL d   1      56.331  -0.541  32.911  0.00  0.00     0.123 A 
ATOM     16  O   UNL d   1      56.249  -1.021  33.575  0.00  0.00    -0.301 OA
ATOM     17  C   UNL d   1      55.892   0.154  32.842  0.00  0.00     0.123 A 
ATOM     18  C   UNL d   1      55.723  -0.808  34.181  0.00  0.00     0.149 A 
ATOM     19  C   UNL d   1      55.282  -0.105  34.108  0.00  0.00     0.149 A 
ATOM     20  O   UNL d   1      55.370   0.368  33.442  0.00  0.00    -0.301 OA
ATOM     21  C   UNL d   1      55.977   0.636  32.171  0.00  0.00     0.027 A 
ATOM     22  C   UNL d   1      56.499   0.421  31.572  0.00  0.00     0.002 A 
ENDBRANCH   3  13
BRANCH   1  23
ATOM     23  C   UNL d   1      58.903  -1.822  28.810  0.00  0.00     0.085 C 
BRANCH  23  24
ATOM     24  N   UNL d   1      59.360  -2.492  28.959  0.00  0.00    -0.304 N 
ATOM     25  C   UNL d   1      59.068  -3.243  28.782  0.00  0.00     0.064 A 
ATOM     26  C   UNL d   1      58.318  -3.324  28.455  0.00  0.00     0.019 C 
ATOM     27  C   UNL d   1      59.527  -3.904  28.934  0.00  0.00     0.018 A 
ATOM     28  C   UNL d   1      60.287  -3.822  29.265  0.00  0.00     0.003 A 
ATOM     29  C   UNL d   1      60.573  -3.074  29.439  0.00  0.00     0.019 A 
ATOM     30  C   UNL d   1      60.117  -2.405  29.290  0.00  0.00     0.080 A 
ENDBRANCH  23  24
ENDBRANCH   1  23
BRANCH  10  31
ATOM     31  C   UNL d   1      60.466   0.519  29.329  0.00  0.00     0.003 C 
ATOM     32  C   UNL d   1      61.125   0.506  29.826  0.00  0.00     0.000 C 
ENDBRANCH  10  31
TORSDOF 4
ENDMDL
