MODEL 1
REMARK VINA RESULT:      -1.0      0.000      0.000
REMARK  5 active torsions:
REMARK  status: ('A' for Active; 'I' for Inactive)
REMARK    1  A    between atoms: C_11  and  N_5 
REMARK    2  A    between atoms: C_15  and  C_8 
REMARK    3  A    between atoms: C_12  and  C_11 
REMARK    4  A    between atoms: O_20  and  C_15 
REMARK    5  A    between atoms: C_23  and  O_20 
ROOT
ATOM      1  C   UNL d   1      59.714  -1.249  29.840  0.00  0.00     0.130 A 
ATOM      2  C   UNL d   1      58.924  -1.473  29.839  0.00  0.00     0.157 A 
ATOM      3  C   UNL d   1      59.941  -0.532  30.186  0.00  0.00     0.272 A 
ATOM      4  N   UNL d   1      58.360  -0.986  30.183  0.00  0.00    -0.208 NA
ATOM      5  N   UNL d   1      59.376  -0.045  30.530  0.00  0.00    -0.254 N 
ATOM      6  C   UNL d   1      60.287  -1.737  29.494  0.00  0.00     0.204 A 
ATOM      7  N   UNL d   1      58.696  -2.194  29.491  0.00  0.00    -0.289 N 
ATOM      8  C   UNL d   1      58.586  -0.269  30.530  0.00  0.00     0.177 A 
ATOM      9  C   UNL d   1      60.059  -2.458  29.146  0.00  0.00     0.055 A 
ATOM     10  C   UNL d   1      59.261  -2.681  29.147  0.00  0.00     0.069 A 
ATOM     11  O   UNL d   1      60.746  -0.298  30.189  0.00  0.00    -0.266 OA
ATOM     12  O   UNL d   1      61.082  -1.509  29.496  0.00  0.00    -0.286 OA
ATOM     13  C   UNL d   1      57.902  -2.421  29.490  0.00  0.00     0.101 C 
ATOM     14  C   UNL d   1      60.627  -2.946  28.801  0.00  0.00     0.005 A 
ATOM     15  C   UNL d   1      59.036  -3.393  28.802  0.00  0.00     0.018 A 
ATOM     16  C   UNL d   1      60.402  -3.658  28.456  0.00  0.00     0.000 A 
ATOM     17  C   UNL d   1      59.600  -3.881  28.458  0.00  0.00     0.002 A 
ENDROOT
BRANCH   8  18
ATOM     18  C   UNL d   1      58.013   0.228  30.880  0.00  0.00     0.160 C 
BRANCH  18  19
ATOM     19  O   UNL d   1      57.217   0.008  30.872  0.00  0.00    -0.302 OA
BRANCH  19  20
ATOM     20  C   UNL d   1      56.800  -0.042  31.580  0.00  0.00     0.100 A 
ATOM     21  C   UNL d   1      56.553  -0.776  31.855  0.00  0.00     0.025 A 
ATOM     22  C   UNL d   1      56.132  -0.833  32.566  0.00  0.00     0.002 A 
ATOM     23  C   UNL d   1      55.967  -0.148  32.992  0.00  0.00     0.000 A 
ATOM     24  C   UNL d   1      56.216   0.587  32.714  0.00  0.00     0.002 A 
ATOM     25  C   UNL d   1      56.632   0.641  32.008  0.00  0.00     0.025 A 
ENDBRANCH  19  20
ENDBRANCH  18  19
ENDBRANCH   8  18
BRANCH   5  26
ATOM     26  C   UNL d   1      59.602   0.668  30.875  0.00  0.00     0.109 C 
BRANCH  26  27
ATOM     27  C   UNL d   1      60.109   0.671  31.521  0.00  0.00     0.118 A 
ATOM     28  O   UNL d   1      60.932   0.671  31.581  0.00  0.00    -0.304 OA
ATOM     29  C   UNL d   1      61.124   0.674  32.381  0.00  0.00     0.123 A 
ATOM     30  C   UNL d   1      60.439   0.676  32.822  0.00  0.00     0.029 A 
ATOM     31  C   UNL d   1      59.802   0.673  32.291  0.00  0.00     0.028 A 
ENDBRANCH  26  27
ENDBRANCH   5  26
TORSDOF 5
ENDMDL
MODEL 2
REMARK VINA RESULT:      -0.9      1.155      4.286
REMARK  5 active torsions:
REMARK  status: ('A' for Active; 'I' for Inactive)
REMARK    1  A    between atoms: C_11  and  N_5 
REMARK    2  A    between atoms: C_15  and  C_8 
REMARK    3  A    between atoms: C_12  and  C_11 
REMARK    4  A    between atoms: O_20  and  C_15 
REMARK    5  A    between atoms: C_23  and  O_20 
ROOT
ATOM      1  C   UNL d   1      57.442  -0.414  31.679  0.00  0.00     0.130 A 
ATOM      2  C   UNL d   1      57.129  -1.134  31.436  0.00  0.00     0.157 A 
ATOM      3  C   UNL d   1      58.042  -0.053  31.237  0.00  0.00     0.272 A 
ATOM      4  N   UNL d   1      57.411  -1.494  30.754  0.00  0.00    -0.208 NA
ATOM      5  N   UNL d   1      58.324  -0.413  30.555  0.00  0.00    -0.254 N 
ATOM      6  C   UNL d   1      57.160  -0.048  32.366  0.00  0.00     0.204 A 
ATOM      7  N   UNL d   1      56.526  -1.497  31.880  0.00  0.00    -0.289 N 
ATOM      8  C   UNL d   1      58.011  -1.133  30.312  0.00  0.00     0.177 A 
ATOM      9  C   UNL d   1      56.557  -0.411  32.810  0.00  0.00     0.055 A 
ATOM     10  C   UNL d   1      56.244  -1.136  32.562  0.00  0.00     0.069 A 
ATOM     11  O   UNL d   1      58.364   0.681  31.481  0.00  0.00    -0.266 OA
ATOM     12  O   UNL d   1      57.477   0.677  32.609  0.00  0.00    -0.286 OA
ATOM     13  C   UNL d   1      56.210  -2.221  31.636  0.00  0.00     0.101 C 
ATOM     14  C   UNL d   1      56.275  -0.047  33.494  0.00  0.00     0.005 A 
ATOM     15  C   UNL d   1      55.648  -1.495  33.001  0.00  0.00     0.018 A 
ATOM     16  C   UNL d   1      55.678  -0.406  33.933  0.00  0.00     0.000 A 
ATOM     17  C   UNL d   1      55.364  -1.135  33.683  0.00  0.00     0.002 A 
ENDROOT
BRANCH   8  18
ATOM     18  C   UNL d   1      58.300  -1.498  29.618  0.00  0.00     0.160 C 
BRANCH  18  19
ATOM     19  O   UNL d   1      57.987  -2.222  29.374  0.00  0.00    -0.302 OA
BRANCH  19  20
ATOM     20  C   UNL d   1      58.488  -2.800  29.067  0.00  0.00     0.100 A 
ATOM     21  C   UNL d   1      58.207  -3.565  28.962  0.00  0.00     0.025 A 
ATOM     22  C   UNL d   1      58.705  -4.152  28.653  0.00  0.00     0.002 A 
ATOM     23  C   UNL d   1      59.480  -3.958  28.455  0.00  0.00     0.000 A 
ATOM     24  C   UNL d   1      59.759  -3.189  28.562  0.00  0.00     0.002 A 
ATOM     25  C   UNL d   1      59.263  -2.610  28.868  0.00  0.00     0.025 A 
ENDBRANCH  19  20
ENDBRANCH  18  19
ENDBRANCH   8  18
BRANCH   5  26
ATOM     26  C   UNL d   1      58.920  -0.054  30.116  0.00  0.00     0.109 C 
BRANCH  26  27
ATOM     27  C   UNL d   1      59.689  -0.031  30.406  0.00  0.00     0.118 A 
ATOM     28  O   UNL d   1      60.035  -0.345  31.086  0.00  0.00    -0.304 OA
ATOM     29  C   UNL d   1      60.831  -0.139  31.079  0.00  0.00     0.123 A 
ATOM     30  C   UNL d   1      60.990   0.298  30.409  0.00  0.00     0.029 A 
ATOM     31  C   UNL d   1      60.280   0.368  29.985  0.00  0.00     0.028 A 
ENDBRANCH  26  27
ENDBRANCH   5  26
TORSDOF 5
ENDMDL
MODEL 3
REMARK VINA RESULT:       1.7      0.928      1.275
REMARK  5 active torsions:
REMARK  status: ('A' for Active; 'I' for Inactive)
REMARK    1  A    between atoms: C_11  and  N_5 
REMARK    2  A    between atoms: C_15  and  C_8 
REMARK    3  A    between atoms: C_12  and  C_11 
REMARK    4  A    between atoms: O_20  and  C_15 
REMARK    5  A    between atoms: C_23  and  O_20 
ROOT
ATOM      1  C   UNL d   1      58.807  -1.011  30.256  0.00  0.00     0.130 A 
ATOM      2  C   UNL d   1      58.087  -1.403  30.298  0.00  0.00     0.157 A 
ATOM      3  C   UNL d   1      58.926  -0.313  30.685  0.00  0.00     0.272 A 
ATOM      4  N   UNL d   1      57.483  -1.101  30.766  0.00  0.00    -0.208 NA
ATOM      5  N   UNL d   1      58.322  -0.012  31.154  0.00  0.00    -0.254 N 
ATOM      6  C   UNL d   1      59.418  -1.312  29.784  0.00  0.00     0.204 A 
ATOM      7  N   UNL d   1      57.968  -2.104  29.866  0.00  0.00    -0.289 N 
ATOM      8  C   UNL d   1      57.601  -0.403  31.196  0.00  0.00     0.177 A 
ATOM      9  C   UNL d   1      59.300  -2.013  29.353  0.00  0.00     0.055 A 
ATOM     10  C   UNL d   1      58.571  -2.405  29.397  0.00  0.00     0.069 A 
ATOM     11  O   UNL d   1      59.659   0.090  30.646  0.00  0.00    -0.266 OA
ATOM     12  O   UNL d   1      60.143  -0.916  29.743  0.00  0.00    -0.286 OA
ATOM     13  C   UNL d   1      57.243  -2.499  29.907  0.00  0.00     0.101 C 
ATOM     14  C   UNL d   1      59.907  -2.314  28.883  0.00  0.00     0.005 A 
ATOM     15  C   UNL d   1      58.454  -3.099  28.970  0.00  0.00     0.018 A 
ATOM     16  C   UNL d   1      59.789  -3.008  28.456  0.00  0.00     0.000 A 
ATOM     17  C   UNL d   1      59.057  -3.401  28.501  0.00  0.00     0.002 A 
ENDROOT
BRANCH   8  18
ATOM     18  C   UNL d   1      56.988  -0.095  31.673  0.00  0.00     0.160 C 
BRANCH  18  19
ATOM     19  O   UNL d   1      56.318  -0.551  31.827  0.00  0.00    -0.302 OA
BRANCH  19  20
ATOM     20  C   UNL d   1      55.851  -0.383  32.485  0.00  0.00     0.100 A 
ATOM     21  C   UNL d   1      55.534   0.369  32.575  0.00  0.00     0.025 A 
ATOM     22  C   UNL d   1      55.064   0.546  33.234  0.00  0.00     0.002 A 
ATOM     23  C   UNL d   1      54.920  -0.040  33.794  0.00  0.00     0.000 A 
ATOM     24  C   UNL d   1      55.240  -0.795  33.701  0.00  0.00     0.002 A 
ATOM     25  C   UNL d   1      55.706  -0.966  33.047  0.00  0.00     0.025 A 
ENDBRANCH  19  20
ENDBRANCH  18  19
ENDBRANCH   8  18
BRANCH   5  26
ATOM     26  C   UNL d   1      58.439   0.682  31.581  0.00  0.00     0.109 C 
BRANCH  26  27
ATOM     27  C   UNL d   1      58.929   0.682  32.240  0.00  0.00     0.118 A 
ATOM     28  O   UNL d   1      59.750   0.682  32.322  0.00  0.00    -0.304 OA
ATOM     29  C   UNL d   1      59.921   0.682  33.127  0.00  0.00     0.123 A 
ATOM     30  C   UNL d   1      59.224   0.681  33.549  0.00  0.00     0.029 A 
ATOM     31  C   UNL d   1      58.601   0.681  33.001  0.00  0.00     0.028 A 
ENDBRANCH  26  27
ENDBRANCH   5  26
TORSDOF 5
ENDMDL
