MODEL 1
REMARK VINA RESULT:      -5.8      0.000      0.000
REMARK  3 active torsions:
REMARK  status: ('A' for Active; 'I' for Inactive)
REMARK    1  A    between atoms: C_6  and  C_2 
REMARK    2  A    between atoms: C_8  and  C_3 
REMARK    3  A    between atoms: C_7  and  C_6 
ROOT
ATOM      1  N   UNL d   1     -41.485-122.348 -52.351  0.00  0.00    -0.238 NA
ATOM      2  C   UNL d   1     -41.273-122.777 -51.681  0.00  0.00     0.113 A 
ATOM      3  C   UNL d   1     -41.466-122.859 -53.027  0.00  0.00     0.088 A 
ATOM      4  S   UNL d   1     -41.123-123.551 -51.931  0.00  0.00    -0.066 SA
ATOM      5  C   UNL d   1     -41.232-123.619 -52.728  0.00  0.00     0.056 A 
ENDROOT
BRANCH   3   6
ATOM      6  C   UNL d   1     -41.648-122.603 -53.779  0.00  0.00     0.018 A 
ATOM      7  C   UNL d   1     -41.296-122.916 -54.439  0.00  0.00     0.002 A 
ATOM      8  C   UNL d   1     -41.477-122.660 -55.190  0.00  0.00     0.011 A 
ATOM      9  C   UNL d   1     -42.050-122.051 -55.283  0.00  0.00     0.058 A 
ATOM     10  C   UNL d   1     -42.414-121.727 -54.622  0.00  0.00     0.011 A 
ATOM     11 CL   UNL d   1     -42.256-121.771 -56.033  0.00  0.00    -0.082 Cl
ATOM     12  C   UNL d   1     -42.220-121.996 -53.863  0.00  0.00     0.002 A 
ENDBRANCH   3   6
BRANCH   2  13
ATOM     13  C   UNL d   1     -41.218-122.502 -50.905  0.00  0.00     0.058 C 
BRANCH  13  14
ATOM     14  C   UNL d   1     -41.767-122.734 -50.344  0.00  0.00     0.159 C 
ATOM     15  S   UNL d   1     -41.673-123.397 -49.799  0.00  0.00    -0.055 SA
ATOM     16  N   UNL d   1     -42.403-122.305 -50.332  0.00  0.00    -0.136 N 
ENDBRANCH  13  14
ENDBRANCH   2  13
TORSDOF 3
ENDMDL
MODEL 2
REMARK VINA RESULT:      -5.2      2.282      3.859
REMARK  3 active torsions:
REMARK  status: ('A' for Active; 'I' for Inactive)
REMARK    1  A    between atoms: C_6  and  C_2 
REMARK    2  A    between atoms: C_8  and  C_3 
REMARK    3  A    between atoms: C_7  and  C_6 
ROOT
ATOM      1  N   UNL d   1     -41.358-122.455 -53.326  0.00  0.00    -0.238 NA
ATOM      2  C   UNL d   1     -41.346-122.683 -54.117  0.00  0.00     0.113 A 
ATOM      3  C   UNL d   1     -41.231-123.136 -52.837  0.00  0.00     0.088 A 
ATOM      4  S   UNL d   1     -41.213-123.499 -54.127  0.00  0.00    -0.066 SA
ATOM      5  C   UNL d   1     -41.141-123.786 -53.376  0.00  0.00     0.056 A 
ENDROOT
BRANCH   3   6
ATOM      6  C   UNL d   1     -41.210-123.097 -52.023  0.00  0.00     0.018 A 
ATOM      7  C   UNL d   1     -41.205-122.392 -51.624  0.00  0.00     0.002 A 
ATOM      8  C   UNL d   1     -41.185-122.354 -50.811  0.00  0.00     0.011 A 
ATOM      9  C   UNL d   1     -41.169-123.071 -50.372  0.00  0.00     0.058 A 
ATOM     10  C   UNL d   1     -41.174-123.792 -50.765  0.00  0.00     0.011 A 
ATOM     11 CL   UNL d   1     -41.149-123.064 -49.546  0.00  0.00    -0.082 Cl
ATOM     12  C   UNL d   1     -41.195-123.817 -51.593  0.00  0.00     0.002 A 
ENDBRANCH   3   6
BRANCH   2  13
ATOM     13  C   UNL d   1     -41.447-122.203 -54.780  0.00  0.00     0.058 C 
BRANCH  13  14
ATOM     14  C   UNL d   1     -42.197-121.989 -55.025  0.00  0.00     0.159 C 
ATOM     15  S   UNL d   1     -42.619-122.331 -55.696  0.00  0.00    -0.055 SA
ATOM     16  N   UNL d   1     -42.520-121.436 -54.602  0.00  0.00    -0.136 N 
ENDBRANCH  13  14
ENDBRANCH   2  13
TORSDOF 3
ENDMDL
MODEL 3
REMARK VINA RESULT:      -4.8      2.405      4.240
REMARK  3 active torsions:
REMARK  status: ('A' for Active; 'I' for Inactive)
REMARK    1  A    between atoms: C_6  and  C_2 
REMARK    2  A    between atoms: C_8  and  C_3 
REMARK    3  A    between atoms: C_7  and  C_6 
ROOT
ATOM      1  N   UNL d   1     -41.468-123.255 -51.929  0.00  0.00    -0.238 NA
ATOM      2  C   UNL d   1     -41.233-122.890 -52.628  0.00  0.00     0.113 A 
ATOM      3  C   UNL d   1     -41.507-122.676 -51.311  0.00  0.00     0.088 A 
ATOM      4  S   UNL d   1     -41.124-122.089 -52.454  0.00  0.00    -0.066 SA
ATOM      5  C   UNL d   1     -41.282-121.943 -51.676  0.00  0.00     0.056 A 
ENDROOT
BRANCH   3   6
ATOM      6  C   UNL d   1     -41.724-122.859 -50.547  0.00  0.00     0.018 A 
ATOM      7  C   UNL d   1     -42.459-122.683 -50.252  0.00  0.00     0.002 A 
ATOM      8  C   UNL d   1     -42.675-122.866 -49.490  0.00  0.00     0.011 A 
ATOM      9  C   UNL d   1     -42.117-123.251 -48.992  0.00  0.00     0.058 A 
ATOM     10  C   UNL d   1     -41.369-123.434 -49.279  0.00  0.00     0.011 A 
ATOM     11 CL   UNL d   1     -42.308-123.449 -48.212  0.00  0.00    -0.082 Cl
ATOM     12  C   UNL d   1     -41.162-123.242 -50.057  0.00  0.00     0.002 A 
ENDBRANCH   3   6
BRANCH   2  13
ATOM     13  C   UNL d   1     -41.123-123.241 -53.366  0.00  0.00     0.058 C 
BRANCH  13  14
ATOM     14  C   UNL d   1     -41.691-123.165 -53.950  0.00  0.00     0.159 C 
ATOM     15  S   UNL d   1     -41.806-122.467 -54.446  0.00  0.00    -0.055 SA
ATOM     16  N   UNL d   1     -42.139-123.782 -54.035  0.00  0.00    -0.136 N 
ENDBRANCH  13  14
ENDBRANCH   2  13
TORSDOF 3
ENDMDL
MODEL 4
REMARK VINA RESULT:      -3.4      1.994      3.103
REMARK  3 active torsions:
REMARK  status: ('A' for Active; 'I' for Inactive)
REMARK    1  A    between atoms: C_6  and  C_2 
REMARK    2  A    between atoms: C_8  and  C_3 
REMARK    3  A    between atoms: C_7  and  C_6 
ROOT
ATOM      1  N   UNL d   1     -42.109-122.643 -49.552  0.00  0.00    -0.238 NA
ATOM      2  C   UNL d   1     -42.063-122.967 -48.797  0.00  0.00     0.113 A 
ATOM      3  C   UNL d   1     -41.537-123.018 -50.053  0.00  0.00     0.088 A 
ATOM      4  S   UNL d   1     -41.468-123.541 -48.820  0.00  0.00    -0.066 SA
ATOM      5  C   UNL d   1     -41.144-123.586 -49.559  0.00  0.00     0.056 A 
ENDROOT
BRANCH   3   6
ATOM      6  C   UNL d   1     -41.441-122.822 -50.838  0.00  0.00     0.018 A 
ATOM      7  C   UNL d   1     -41.390-122.052 -51.088  0.00  0.00     0.002 A 
ATOM      8  C   UNL d   1     -41.294-121.856 -51.872  0.00  0.00     0.011 A 
ATOM      9  C   UNL d   1     -41.247-122.474 -52.441  0.00  0.00     0.058 A 
ATOM     10  C   UNL d   1     -41.297-123.258 -52.200  0.00  0.00     0.011 A 
ATOM     11 CL   UNL d   1     -41.149-122.306 -53.244  0.00  0.00    -0.082 Cl
ATOM     12  C   UNL d   1     -41.394-123.444 -51.399  0.00  0.00     0.002 A 
ENDBRANCH   3   6
BRANCH   2  13
ATOM     13  C   UNL d   1     -42.515-122.769 -48.136  0.00  0.00     0.058 C 
BRANCH  13  14
ATOM     14  C   UNL d   1     -42.460-123.212 -47.450  0.00  0.00     0.159 C 
ATOM     15  S   UNL d   1     -43.033-123.804 -47.192  0.00  0.00    -0.055 SA
ATOM     16  N   UNL d   1     -41.837-123.062 -47.028  0.00  0.00    -0.136 N 
ENDBRANCH  13  14
ENDBRANCH   2  13
TORSDOF 3
ENDMDL
