MODEL 1
REMARK VINA RESULT:      55.7      0.000      0.000
REMARK  6 active torsions:
REMARK  status: ('A' for Active; 'I' for Inactive)
REMARK    1  A    between atoms: C_2  and  C_4 
REMARK    2  A    between atoms: C_3  and  C_2 
REMARK       I    between atoms: N_8  and  C_3 
REMARK    3  A    between atoms: C_5  and  C_9 
REMARK    4  A    between atoms: O_16  and  C_5 
REMARK    5  A    between atoms: C_15  and  N_8 
REMARK    6  A    between atoms: C_21  and  O_16 
ROOT
ATOM      1  C   UNL d   1      57.274  49.587  50.504  0.00  0.00     0.064 A 
ATOM      2  C   UNL d   1      57.668  49.401  49.799  0.00  0.00     0.007 A 
ATOM      3  C   UNL d   1      57.710  49.706  51.200  0.00  0.00     0.007 A 
ATOM      4  C   UNL d   1      58.917  49.458  50.494  0.00  0.00     0.085 A 
ATOM      5  C   UNL d   1      58.526  49.641  51.191  0.00  0.00     0.019 A 
ATOM      6  C   UNL d   1      58.488  49.337  49.793  0.00  0.00     0.019 A 
ENDROOT
BRANCH   4   7
ATOM      7  N   UNL d   1      59.737  49.393  50.487  0.00  0.00    -0.208 NA
ATOM      8  C   UNL d   1      60.109  48.778  50.896  0.00  0.00     0.281 C 
ATOM      9  O   UNL d   1      59.649  48.233  51.310  0.00  0.00    -0.265 OA
BRANCH   8  10
ATOM     10  C   UNL d   1      60.926  48.715  50.888  0.00  0.00     0.086 C 
BRANCH  10  11
ATOM     11  C   UNL d   1      61.290  48.048  50.554  0.00  0.00     0.144 A 
ATOM     12  C   UNL d   1      61.721  47.534  51.035  0.00  0.00     0.297 A 
ATOM     13  N   UNL d   1      62.086  46.870  50.715  0.00  0.00    -0.204 NA
ATOM     14  O   UNL d   1      61.785  47.690  51.847  0.00  0.00    -0.264 OA
ATOM     15  C   UNL d   1      62.015  46.726  49.908  0.00  0.00     0.123 A 
ATOM     16  C   UNL d   1      61.585  47.240  49.427  0.00  0.00     0.120 A 
ATOM     17  N   UNL d   1      61.223  47.900  49.751  0.00  0.00    -0.237 NA
ENDBRANCH  10  11
ENDBRANCH   8  10
ENDBRANCH   4   7
BRANCH   1  18
ATOM     18  C   UNL d   1      56.449  49.652  50.508  0.00  0.00     0.300 C 
ATOM     19  O   UNL d   1      56.035  49.707  49.797  0.00  0.00    -0.259 OA
BRANCH  18  20
ATOM     20  O   UNL d   1      56.038  49.661  51.221  0.00  0.00    -0.271 OA
BRANCH  20  21
ATOM     21  C   UNL d   1      56.397  49.387  51.905  0.00  0.00     0.126 C 
ATOM     22  C   UNL d   1      56.112  49.613  52.638  0.00  0.00     0.029 C 
ENDBRANCH  20  21
ENDBRANCH  18  20
ENDBRANCH   1  18
TORSDOF 6
ENDMDL
MODEL 2
REMARK VINA RESULT:      55.7      1.464      5.052
REMARK  6 active torsions:
REMARK  status: ('A' for Active; 'I' for Inactive)
REMARK    1  A    between atoms: C_2  and  C_4 
REMARK    2  A    between atoms: C_3  and  C_2 
REMARK       I    between atoms: N_8  and  C_3 
REMARK    3  A    between atoms: C_5  and  C_9 
REMARK    4  A    between atoms: O_16  and  C_5 
REMARK    5  A    between atoms: C_15  and  N_8 
REMARK    6  A    between atoms: C_21  and  O_16 
ROOT
ATOM      1  C   UNL d   1      61.151  46.974  50.343  0.00  0.00     0.064 A 
ATOM      2  C   UNL d   1      60.800  47.196  51.060  0.00  0.00     0.007 A 
ATOM      3  C   UNL d   1      61.051  47.450  49.671  0.00  0.00     0.007 A 
ATOM      4  C   UNL d   1      60.260  48.358  50.425  0.00  0.00     0.085 A 
ATOM      5  C   UNL d   1      60.607  48.138  49.715  0.00  0.00     0.019 A 
ATOM      6  C   UNL d   1      60.355  47.887  51.102  0.00  0.00     0.019 A 
ENDROOT
BRANCH   4   7
ATOM      7  N   UNL d   1      59.814  49.049  50.467  0.00  0.00    -0.208 NA
ATOM      8  C   UNL d   1      59.021  49.018  50.696  0.00  0.00     0.281 C 
ATOM      9  O   UNL d   1      58.682  48.289  50.882  0.00  0.00    -0.265 OA
BRANCH   8  10
ATOM     10  C   UNL d   1      58.579  49.707  50.738  0.00  0.00     0.086 C 
BRANCH  10  11
ATOM     11  C   UNL d   1      57.752  49.678  50.671  0.00  0.00     0.144 A 
ATOM     12  C   UNL d   1      57.403  49.678  49.924  0.00  0.00     0.297 A 
ATOM     13  N   UNL d   1      56.584  49.649  49.845  0.00  0.00    -0.204 NA
ATOM     14  O   UNL d   1      57.881  49.708  49.247  0.00  0.00    -0.264 OA
ATOM     15  C   UNL d   1      56.119  49.620  50.524  0.00  0.00     0.123 A 
ATOM     16  C   UNL d   1      56.469  49.619  51.271  0.00  0.00     0.120 A 
ATOM     17  N   UNL d   1      57.284  49.648  51.343  0.00  0.00    -0.237 NA
ENDBRANCH  10  11
ENDBRANCH   8  10
ENDBRANCH   4   7
BRANCH   1  18
ATOM     18  C   UNL d   1      61.599  46.279  50.303  0.00  0.00     0.300 C 
ATOM     19  O   UNL d   1      61.517  45.700  50.885  0.00  0.00    -0.259 OA
BRANCH  18  20
ATOM     20  O   UNL d   1      62.127  46.161  49.683  0.00  0.00    -0.271 OA
BRANCH  20  21
ATOM     21  C   UNL d   1      62.222  45.413  49.362  0.00  0.00     0.126 C 
ATOM     22  C   UNL d   1      62.939  45.195  49.032  0.00  0.00     0.029 C 
ENDBRANCH  20  21
ENDBRANCH  18  20
ENDBRANCH   1  18
TORSDOF 6
ENDMDL
