MODEL 1
REMARK VINA RESULT:     -10.0      0.000      0.000
REMARK  3 active torsions:
REMARK  status: ('A' for Active; 'I' for Inactive)
REMARK    1  A    between atoms: N_4  and  C_8 
REMARK    2  A    between atoms: N_12  and  C_6 
REMARK       I    between atoms: C_11  and  N_12 
REMARK    3  A    between atoms: C_14  and  C_11 
ROOT
ATOM      1  C   UNL d   1     -48.600  11.833  23.330  0.00  0.00     0.279 C 
ATOM      2  N   UNL d   1     -48.021  12.368  23.239  0.00  0.00    -0.208 NA
ATOM      3  O   UNL d   1     -48.421  11.009  23.430  0.00  0.00    -0.265 OA
ENDROOT
BRANCH   1   4
ATOM      4  C   UNL d   1     -49.390  12.065  23.329  0.00  0.00     0.059 A 
ATOM      5  C   UNL d   1     -49.624  12.779  22.974  0.00  0.00     0.022 A 
ATOM      6  C   UNL d   1     -50.416  13.001  22.980  0.00  0.00     0.070 A 
ATOM      7  C   UNL d   1     -50.995  12.576  23.307  0.00  0.00     0.018 A 
ATOM      8  C   UNL d   1     -50.808  11.868  23.666  0.00  0.00     0.002 A 
ATOM      9  C   UNL d   1     -50.021  11.579  23.698  0.00  0.00     0.005 A 
BRANCH   6  10
ATOM     10  N   UNL d   1     -50.636  13.749  22.604  0.00  0.00    -0.242 N 
ATOM     11  C   UNL d   1     -50.880  13.760  21.816  0.00  0.00     0.267 A 
ATOM     12  C   UNL d   1     -51.046  14.545  21.630  0.00  0.00     0.066 A 
ATOM     13  O   UNL d   1     -50.942  13.049  21.293  0.00  0.00    -0.267 OA
ATOM     14  C   UNL d   1     -50.913  15.005  22.270  0.00  0.00     0.066 A 
ATOM     15  C   UNL d   1     -50.652  14.511  22.895  0.00  0.00     0.267 A 
ATOM     16  O   UNL d   1     -50.437  14.731  23.691  0.00  0.00    -0.267 OA
ENDBRANCH   6  10
ENDBRANCH   1   4
BRANCH   2  17
ATOM     17  C   UNL d   1     -47.202  12.127  23.240  0.00  0.00     0.089 A 
ATOM     18  C   UNL d   1     -46.616  12.565  22.862  0.00  0.00     0.080 A 
ATOM     19  C   UNL d   1     -46.653  13.289  22.421  0.00  0.00     0.283 A 
ATOM     20  C   UNL d   1     -45.778  12.319  22.863  0.00  0.00     0.064 A 
ATOM     21  N   UNL d   1     -45.886  13.474  22.167  0.00  0.00    -0.169 NA
ATOM     22  O   UNL d   1     -47.359  13.760  22.257  0.00  0.00    -0.265 OA
ATOM     23  C   UNL d   1     -45.348  12.880  22.437  0.00  0.00     0.282 A 
ATOM     24  O   UNL d   1     -44.502  12.841  22.308  0.00  0.00    -0.265 OA
ATOM     25  C   UNL d   1     -45.585  11.630  23.254  0.00  0.00     0.005 A 
ATOM     26  C   UNL d   1     -46.147  11.185  23.632  0.00  0.00     0.002 A 
ATOM     27  C   UNL d   1     -46.981  11.419  23.638  0.00  0.00     0.019 A 
ENDBRANCH   2  17
TORSDOF 3
ENDMDL
MODEL 2
REMARK VINA RESULT:      -9.0      1.292      2.163
REMARK  3 active torsions:
REMARK  status: ('A' for Active; 'I' for Inactive)
REMARK    1  A    between atoms: N_4  and  C_8 
REMARK    2  A    between atoms: N_12  and  C_6 
REMARK       I    between atoms: C_11  and  N_12 
REMARK    3  A    between atoms: C_14  and  C_11 
ROOT
ATOM      1  C   UNL d   1     -47.116  12.878  23.112  0.00  0.00     0.279 C 
ATOM      2  N   UNL d   1     -46.404  12.798  22.771  0.00  0.00    -0.208 NA
ATOM      3  O   UNL d   1     -47.384  12.324  23.698  0.00  0.00    -0.265 OA
ENDROOT
BRANCH   1   4
ATOM      4  C   UNL d   1     -47.612  13.502  22.906  0.00  0.00     0.059 A 
ATOM      5  C   UNL d   1     -48.396  13.362  22.668  0.00  0.00     0.022 A 
ATOM      6  C   UNL d   1     -48.882  13.994  22.464  0.00  0.00     0.070 A 
ATOM      7  C   UNL d   1     -48.658  14.750  22.476  0.00  0.00     0.018 A 
ATOM      8  C   UNL d   1     -47.896  14.930  22.704  0.00  0.00     0.002 A 
ATOM      9  C   UNL d   1     -47.346  14.338  22.925  0.00  0.00     0.005 A 
BRANCH   6  10
ATOM     10  N   UNL d   1     -49.695  13.823  22.219  0.00  0.00    -0.242 N 
ATOM     11  C   UNL d   1     -50.315  13.908  22.757  0.00  0.00     0.267 A 
ATOM     12  C   UNL d   1     -51.005  13.706  22.355  0.00  0.00     0.066 A 
ATOM     13  O   UNL d   1     -50.227  14.169  23.597  0.00  0.00    -0.267 OA
ATOM     14  C   UNL d   1     -50.828  13.503  21.604  0.00  0.00     0.066 A 
ATOM     15  C   UNL d   1     -49.999  13.574  21.504  0.00  0.00     0.267 A 
ATOM     16  O   UNL d   1     -49.532  13.422  20.806  0.00  0.00    -0.267 OA
ENDBRANCH   6  10
ENDBRANCH   1   4
BRANCH   2  17
ATOM     17  C   UNL d   1     -45.889  12.152  22.985  0.00  0.00     0.089 A 
ATOM     18  C   UNL d   1     -45.110  12.106  22.723  0.00  0.00     0.080 A 
ATOM     19  C   UNL d   1     -44.653  12.624  22.229  0.00  0.00     0.283 A 
ATOM     20  C   UNL d   1     -44.583  11.445  22.942  0.00  0.00     0.064 A 
ATOM     21  N   UNL d   1     -43.894  12.299  22.150  0.00  0.00    -0.169 NA
ATOM     22  O   UNL d   1     -44.920  13.361  21.866  0.00  0.00    -0.265 OA
ATOM     23  C   UNL d   1     -43.850  11.575  22.587  0.00  0.00     0.282 A 
ATOM     24  O   UNL d   1     -43.177  11.052  22.666  0.00  0.00    -0.265 OA
ATOM     25  C   UNL d   1     -44.888  10.860  23.423  0.00  0.00     0.005 A 
ATOM     26  C   UNL d   1     -45.651  10.886  23.690  0.00  0.00     0.002 A 
ATOM     27  C   UNL d   1     -46.183  11.537  23.480  0.00  0.00     0.019 A 
ENDBRANCH   2  17
TORSDOF 3
ENDMDL
MODEL 3
REMARK VINA RESULT:      -9.0      1.311      2.307
REMARK  3 active torsions:
REMARK  status: ('A' for Active; 'I' for Inactive)
REMARK    1  A    between atoms: N_4  and  C_8 
REMARK    2  A    between atoms: N_12  and  C_6 
REMARK       I    between atoms: C_11  and  N_12 
REMARK    3  A    between atoms: C_14  and  C_11 
ROOT
ATOM      1  C   UNL d   1     -47.110  13.903  22.563  0.00  0.00     0.279 C 
ATOM      2  N   UNL d   1     -46.956  13.142  22.732  0.00  0.00    -0.208 NA
ATOM      3  O   UNL d   1     -46.491  14.428  22.315  0.00  0.00    -0.265 OA
ENDROOT
BRANCH   1   4
ATOM      4  C   UNL d   1     -47.875  14.199  22.625  0.00  0.00     0.059 A 
ATOM      5  C   UNL d   1     -48.533  13.721  22.456  0.00  0.00     0.022 A 
ATOM      6  C   UNL d   1     -49.293  14.029  22.521  0.00  0.00     0.070 A 
ATOM      7  C   UNL d   1     -49.456  14.770  22.740  0.00  0.00     0.018 A 
ATOM      8  C   UNL d   1     -48.838  15.272  22.915  0.00  0.00     0.002 A 
ATOM      9  C   UNL d   1     -48.038  15.027  22.870  0.00  0.00     0.005 A 
BRANCH   6  10
ATOM     10  N   UNL d   1     -49.963  13.512  22.339  0.00  0.00    -0.242 N 
ATOM     11  C   UNL d   1     -50.155  13.345  21.554  0.00  0.00     0.267 A 
ATOM     12  C   UNL d   1     -50.809  12.844  21.572  0.00  0.00     0.066 A 
ATOM     13  O   UNL d   1     -49.724  13.657  20.848  0.00  0.00    -0.267 OA
ATOM     14  C   UNL d   1     -51.017  12.703  22.330  0.00  0.00     0.066 A 
ATOM     15  C   UNL d   1     -50.488  13.122  22.827  0.00  0.00     0.267 A 
ATOM     16  O   UNL d   1     -50.473  13.155  23.680  0.00  0.00    -0.267 OA
ENDBRANCH   6  10
ENDBRANCH   1   4
BRANCH   2  17
ATOM     17  C   UNL d   1     -46.163  12.834  22.668  0.00  0.00     0.089 A 
ATOM     18  C   UNL d   1     -45.940  12.121  23.014  0.00  0.00     0.080 A 
ATOM     19  C   UNL d   1     -46.379  11.560  23.474  0.00  0.00     0.283 A 
ATOM     20  C   UNL d   1     -45.128  11.806  22.948  0.00  0.00     0.064 A 
ATOM     21  N   UNL d   1     -45.868  10.939  23.677  0.00  0.00    -0.169 NA
ATOM     22  O   UNL d   1     -47.212  11.613  23.698  0.00  0.00    -0.265 OA
ATOM     23  C   UNL d   1     -45.100  11.089  23.355  0.00  0.00     0.282 A 
ATOM     24  O   UNL d   1     -44.399  10.602  23.424  0.00  0.00    -0.265 OA
ATOM     25  C   UNL d   1     -44.583  12.244  22.527  0.00  0.00     0.005 A 
ATOM     26  C   UNL d   1     -44.783  12.947  22.180  0.00  0.00     0.002 A 
ATOM     27  C   UNL d   1     -45.584  13.270  22.238  0.00  0.00     0.019 A 
ENDBRANCH   2  17
TORSDOF 3
ENDMDL
MODEL 4
REMARK VINA RESULT:      -8.3      8.680     10.677
REMARK  3 active torsions:
REMARK  status: ('A' for Active; 'I' for Inactive)
REMARK    1  A    between atoms: N_4  and  C_8 
REMARK    2  A    between atoms: N_12  and  C_6 
REMARK       I    between atoms: C_11  and  N_12 
REMARK    3  A    between atoms: C_14  and  C_11 
ROOT
ATOM      1  C   UNL d   1     -39.867  14.970  18.955  0.00  0.00     0.279 C 
ATOM      2  N   UNL d   1     -39.565  14.433  18.453  0.00  0.00    -0.208 NA
ATOM      3  O   UNL d   1     -39.943  15.785  18.726  0.00  0.00    -0.265 OA
ENDROOT
BRANCH   1   4
ATOM      4  C   UNL d   1     -40.112  14.749  19.709  0.00  0.00     0.059 A 
ATOM      5  C   UNL d   1     -39.583  14.757  20.348  0.00  0.00     0.022 A 
ATOM      6  C   UNL d   1     -39.840  14.533  21.098  0.00  0.00     0.070 A 
ATOM      7  C   UNL d   1     -40.576  14.304  21.266  0.00  0.00     0.018 A 
ATOM      8  C   UNL d   1     -41.127  14.282  20.665  0.00  0.00     0.002 A 
ATOM      9  C   UNL d   1     -40.936  14.496  19.877  0.00  0.00     0.005 A 
BRANCH   6  10
ATOM     10  N   UNL d   1     -39.270  14.550  21.749  0.00  0.00    -0.242 N 
ATOM     11  C   UNL d   1     -39.235  15.203  22.252  0.00  0.00     0.267 A 
ATOM     12  C   UNL d   1     -38.644  15.045  22.804  0.00  0.00     0.066 A 
ATOM     13  O   UNL d   1     -39.747  15.921  22.189  0.00  0.00    -0.267 OA
ATOM     14  C   UNL d   1     -38.323  14.330  22.654  0.00  0.00     0.066 A 
ATOM     15  C   UNL d   1     -38.712  14.004  21.987  0.00  0.00     0.267 A 
ATOM     16  O   UNL d   1     -38.575  13.253  21.606  0.00  0.00    -0.267 OA
ENDBRANCH   6  10
ENDBRANCH   1   4
BRANCH   2  17
ATOM     17  C   UNL d   1     -39.310  14.662  17.672  0.00  0.00     0.089 A 
ATOM     18  C   UNL d   1     -38.941  14.135  17.158  0.00  0.00     0.080 A 
ATOM     19  C   UNL d   1     -38.735  13.316  17.249  0.00  0.00     0.283 A 
ATOM     20  C   UNL d   1     -38.681  14.369  16.359  0.00  0.00     0.064 A 
ATOM     21  N   UNL d   1     -38.371  13.065  16.547  0.00  0.00    -0.169 NA
ATOM     22  O   UNL d   1     -38.874  12.821  17.943  0.00  0.00    -0.265 OA
ATOM     23  C   UNL d   1     -38.337  13.710  16.000  0.00  0.00     0.282 A 
ATOM     24  O   UNL d   1     -38.010  13.709  15.209  0.00  0.00    -0.265 OA
ATOM     25  C   UNL d   1     -38.814  15.140  16.126  0.00  0.00     0.005 A 
ATOM     26  C   UNL d   1     -39.175  15.673  16.616  0.00  0.00     0.002 A 
ATOM     27  C   UNL d   1     -39.438  15.453  17.411  0.00  0.00     0.019 A 
ENDBRANCH   2  17
TORSDOF 3
ENDMDL
MODEL 5
REMARK VINA RESULT:      -7.7      1.602      5.172
REMARK  3 active torsions:
REMARK  status: ('A' for Active; 'I' for Inactive)
REMARK    1  A    between atoms: N_4  and  C_8 
REMARK    2  A    between atoms: N_12  and  C_6 
REMARK       I    between atoms: C_11  and  N_12 
REMARK    3  A    between atoms: C_14  and  C_11 
ROOT
ATOM      1  C   UNL d   1     -46.773  13.562  22.674  0.00  0.00     0.279 C 
ATOM      2  N   UNL d   1     -47.437  13.305  22.322  0.00  0.00    -0.208 NA
ATOM      3  O   UNL d   1     -46.792  14.214  23.219  0.00  0.00    -0.265 OA
ENDROOT
BRANCH   1   4
ATOM      4  C   UNL d   1     -46.050  13.201  22.520  0.00  0.00     0.059 A 
ATOM      5  C   UNL d   1     -45.854  12.472  22.866  0.00  0.00     0.022 A 
ATOM      6  C   UNL d   1     -45.128  12.121  22.703  0.00  0.00     0.070 A 
ATOM      7  C   UNL d   1     -44.580  12.431  22.228  0.00  0.00     0.018 A 
ATOM      8  C   UNL d   1     -44.732  13.147  21.868  0.00  0.00     0.002 A 
ATOM      9  C   UNL d   1     -45.451  13.562  21.987  0.00  0.00     0.005 A 
BRANCH   6  10
ATOM     10  N   UNL d   1     -44.947  11.361  23.076  0.00  0.00    -0.242 N 
ATOM     11  C   UNL d   1     -44.171  11.081  23.089  0.00  0.00     0.267 A 
ATOM     12  C   UNL d   1     -44.187  10.355  23.478  0.00  0.00     0.066 A 
ATOM     13  O   UNL d   1     -43.473  11.501  22.745  0.00  0.00    -0.267 OA
ATOM     14  C   UNL d   1     -44.936  10.187  23.698  0.00  0.00     0.066 A 
ATOM     15  C   UNL d   1     -45.429  10.818  23.448  0.00  0.00     0.267 A 
ATOM     16  O   UNL d   1     -46.272  10.906  23.548  0.00  0.00    -0.267 OA
ENDBRANCH   6  10
ENDBRANCH   1   4
BRANCH   2  17
ATOM     17  C   UNL d   1     -48.187  13.679  22.483  0.00  0.00     0.089 A 
ATOM     18  C   UNL d   1     -48.854  13.541  22.020  0.00  0.00     0.080 A 
ATOM     19  C   UNL d   1     -48.971  13.050  21.337  0.00  0.00     0.283 A 
ATOM     20  C   UNL d   1     -49.621  13.924  22.184  0.00  0.00     0.064 A 
ATOM     21  N   UNL d   1     -49.761  13.128  21.099  0.00  0.00    -0.169 NA
ATOM     22  O   UNL d   1     -48.380  12.553  20.950  0.00  0.00    -0.265 OA
ATOM     23  C   UNL d   1     -50.161  13.663  21.617  0.00  0.00     0.282 A 
ATOM     24  O   UNL d   1     -50.981  13.910  21.584  0.00  0.00    -0.265 OA
ATOM     25  C   UNL d   1     -49.664  14.432  22.821  0.00  0.00     0.005 A 
ATOM     26  C   UNL d   1     -49.020  14.581  23.288  0.00  0.00     0.002 A 
ATOM     27  C   UNL d   1     -48.253  14.208  23.135  0.00  0.00     0.019 A 
ENDBRANCH   2  17
TORSDOF 3
ENDMDL
