MODEL 1
REMARK VINA RESULT:      -8.9      0.000      0.000
REMARK  5 active torsions:
REMARK  status: ('A' for Active; 'I' for Inactive)
REMARK    1  A    between atoms: N_6  and  S_1 
REMARK    2  A    between atoms: C_11  and  S_1 
REMARK    3  A    between atoms: C_2  and  N_5 
REMARK    4  A    between atoms: C_9  and  C_4 
REMARK       I    between atoms: N_5  and  C_7 
REMARK    5  A    between atoms: C_7  and  C_15 
ROOT
ATOM      1  C   UNL d   1      48.603  35.075  52.090  0.00  0.00     0.104 A 
ATOM      2  C   UNL d   1      50.170  34.434  52.376  0.00  0.00     0.058 A 
ATOM      3  C   UNL d   1      48.993  35.145  52.849  0.00  0.00     0.013 A 
ATOM      4  C   UNL d   1      49.034  34.680  51.512  0.00  0.00     0.013 A 
ATOM      5  C   UNL d   1      49.795  34.366  51.645  0.00  0.00     0.005 A 
ATOM      6  C   UNL d   1      49.736  34.849  53.007  0.00  0.00     0.005 A 
ENDROOT
BRANCH   2   7
ATOM      7  C   UNL d   1      50.902  34.139  52.521  0.00  0.00     0.281 C 
ATOM      8  N   UNL d   1      51.026  33.563  53.106  0.00  0.00    -0.183 NA
ATOM      9  O   UNL d   1      51.565  34.426  52.060  0.00  0.00    -0.265 OA
BRANCH   8  10
ATOM     10  C   UNL d   1      51.818  33.239  53.268  0.00  0.00     0.197 A 
ATOM     11  N   UNL d   1      52.387  33.577  53.812  0.00  0.00    -0.220 NA
ATOM     12  C   UNL d   1      53.079  33.093  53.803  0.00  0.00     0.096 A 
ATOM     13  C   UNL d   1      52.918  32.453  53.243  0.00  0.00     0.058 A 
ATOM     14  S   UNL d   1      52.151  32.562  52.932  0.00  0.00    -0.046 SA
BRANCH  12  15
ATOM     15  C   UNL d   1      53.778  33.176  54.223  0.00  0.00     0.048 A 
ATOM     16  S   UNL d   1      53.884  33.254  55.027  0.00  0.00    -0.085 SA
ATOM     17  C   UNL d   1      54.683  33.323  55.198  0.00  0.00     0.035 A 
ATOM     18  C   UNL d   1      55.068  33.286  54.475  0.00  0.00     0.007 A 
ATOM     19  C   UNL d   1      54.515  33.196  53.875  0.00  0.00     0.009 A 
ENDBRANCH  12  15
ENDBRANCH   8  10
ENDBRANCH   2   7
BRANCH   1  20
ATOM     20  S   UNL d   1      47.840  35.393  51.969  0.00  0.00     0.271 S 
ATOM     21  O   UNL d   1      47.975  35.949  52.585  0.00  0.00    -0.200 OA
ATOM     22  O   UNL d   1      47.686  34.836  51.343  0.00  0.00    -0.200 OA
BRANCH  20  23
ATOM     23  N   UNL d   1      47.053  35.713  51.837  0.00  0.00    -0.229 N 
ATOM     24  C   UNL d   1      46.455  35.569  51.281  0.00  0.00     0.092 A 
ATOM     25  C   UNL d   1      45.818  36.054  51.440  0.00  0.00     0.021 A 
ATOM     26  C   UNL d   1      45.986  36.524  52.101  0.00  0.00     0.021 A 
ATOM     27  C   UNL d   1      46.756  36.304  52.339  0.00  0.00     0.092 A 
ENDBRANCH  20  23
ENDBRANCH   1  20
TORSDOF 5
ENDMDL
MODEL 2
REMARK VINA RESULT:      -8.7      1.149      6.389
REMARK  5 active torsions:
REMARK  status: ('A' for Active; 'I' for Inactive)
REMARK    1  A    between atoms: N_6  and  S_1 
REMARK    2  A    between atoms: C_11  and  S_1 
REMARK    3  A    between atoms: C_2  and  N_5 
REMARK    4  A    between atoms: C_9  and  C_4 
REMARK       I    between atoms: N_5  and  C_7 
REMARK    5  A    between atoms: C_7  and  C_15 
ROOT
ATOM      1  C   UNL d   1      51.646  33.609  52.936  0.00  0.00     0.104 A 
ATOM      2  C   UNL d   1      50.188  34.394  52.480  0.00  0.00     0.058 A 
ATOM      3  C   UNL d   1      50.941  33.580  53.420  0.00  0.00     0.013 A 
ATOM      4  C   UNL d   1      51.572  34.039  52.239  0.00  0.00     0.013 A 
ATOM      5  C   UNL d   1      50.866  34.422  52.013  0.00  0.00     0.005 A 
ATOM      6  C   UNL d   1      50.238  33.944  53.225  0.00  0.00     0.005 A 
ENDROOT
BRANCH   2   7
ATOM      7  C   UNL d   1      49.502  34.756  52.277  0.00  0.00     0.281 C 
ATOM      8  N   UNL d   1      49.049  35.167  52.840  0.00  0.00    -0.183 NA
ATOM      9  O   UNL d   1      49.234  34.717  51.464  0.00  0.00    -0.265 OA
BRANCH   8  10
ATOM     10  C   UNL d   1      48.303  35.563  52.626  0.00  0.00     0.197 A 
ATOM     11  N   UNL d   1      47.626  35.178  52.268  0.00  0.00    -0.220 NA
ATOM     12  C   UNL d   1      47.024  35.759  52.153  0.00  0.00     0.096 A 
ATOM     13  C   UNL d   1      47.349  36.505  52.447  0.00  0.00     0.058 A 
ATOM     14  S   UNL d   1      48.123  36.362  52.728  0.00  0.00    -0.046 SA
BRANCH  12  15
ATOM     15  C   UNL d   1      46.275  35.674  51.832  0.00  0.00     0.048 A 
ATOM     16  S   UNL d   1      45.562  35.581  52.217  0.00  0.00    -0.085 SA
ATOM     17  C   UNL d   1      44.955  35.518  51.670  0.00  0.00     0.035 A 
ATOM     18  C   UNL d   1      45.314  35.575  50.934  0.00  0.00     0.007 A 
ATOM     19  C   UNL d   1      46.124  35.671  51.031  0.00  0.00     0.009 A 
ENDBRANCH  12  15
ENDBRANCH   8  10
ENDBRANCH   2   7
BRANCH   1  20
ATOM     20  S   UNL d   1      52.346  33.221  53.173  0.00  0.00     0.271 S 
ATOM     21  O   UNL d   1      52.409  33.739  53.833  0.00  0.00    -0.200 OA
ATOM     22  O   UNL d   1      52.299  32.687  52.511  0.00  0.00    -0.200 OA
BRANCH  20  23
ATOM     23  N   UNL d   1      53.067  32.815  53.410  0.00  0.00    -0.229 N 
ATOM     24  C   UNL d   1      53.325  32.028  53.377  0.00  0.00     0.092 A 
ATOM     25  C   UNL d   1      54.076  31.979  53.692  0.00  0.00     0.021 A 
ATOM     26  C   UNL d   1      54.324  32.730  53.937  0.00  0.00     0.021 A 
ATOM     27  C   UNL d   1      53.688  33.242  53.756  0.00  0.00     0.092 A 
ENDBRANCH  20  23
ENDBRANCH   1  20
TORSDOF 5
ENDMDL
MODEL 3
REMARK VINA RESULT:      -6.6     10.587     11.147
REMARK  5 active torsions:
REMARK  status: ('A' for Active; 'I' for Inactive)
REMARK    1  A    between atoms: N_6  and  S_1 
REMARK    2  A    between atoms: C_11  and  S_1 
REMARK    3  A    between atoms: C_2  and  N_5 
REMARK    4  A    between atoms: C_9  and  C_4 
REMARK       I    between atoms: N_5  and  C_7 
REMARK    5  A    between atoms: C_7  and  C_15 
ROOT
ATOM      1  C   UNL d   1      44.922  28.646  58.487  0.00  0.00     0.104 A 
ATOM      2  C   UNL d   1      45.063  27.311  57.415  0.00  0.00     0.058 A 
ATOM      3  C   UNL d   1      44.840  28.730  57.639  0.00  0.00     0.013 A 
ATOM      4  C   UNL d   1      45.073  27.881  58.747  0.00  0.00     0.013 A 
ATOM      5  C   UNL d   1      45.143  27.229  58.232  0.00  0.00     0.005 A 
ATOM      6  C   UNL d   1      44.902  28.112  57.112  0.00  0.00     0.005 A 
ENDROOT
BRANCH   2   7
ATOM      7  C   UNL d   1      45.127  26.696  56.906  0.00  0.00     0.281 C 
ATOM      8  N   UNL d   1      44.497  26.167  56.789  0.00  0.00    -0.183 NA
ATOM      9  O   UNL d   1      45.860  26.585  56.476  0.00  0.00    -0.265 OA
BRANCH   8  10
ATOM     10  C   UNL d   1      44.560  25.496  56.236  0.00  0.00     0.197 A 
ATOM     11  N   UNL d   1      44.888  24.728  56.429  0.00  0.00    -0.220 NA
ATOM     12  C   UNL d   1      44.844  24.242  55.740  0.00  0.00     0.096 A 
ATOM     13  C   UNL d   1      44.482  24.731  55.123  0.00  0.00     0.058 A 
ATOM     14  S   UNL d   1      44.319  25.483  55.446  0.00  0.00    -0.046 SA
BRANCH  12  15
ATOM     15  C   UNL d   1      45.083  23.465  55.634  0.00  0.00     0.048 A 
ATOM     16  S   UNL d   1      45.293  22.915  56.198  0.00  0.00    -0.085 SA
ATOM     17  C   UNL d   1      45.494  22.208  55.836  0.00  0.00     0.035 A 
ATOM     18  C   UNL d   1      45.401  22.336  55.031  0.00  0.00     0.007 A 
ATOM     19  C   UNL d   1      45.149  23.108  54.905  0.00  0.00     0.009 A 
ENDBRANCH  12  15
ENDBRANCH   8  10
ENDBRANCH   2   7
BRANCH   1  20
ATOM     20  S   UNL d   1      44.851  29.306  58.993  0.00  0.00     0.271 S 
ATOM     21  O   UNL d   1      44.314  28.876  59.478  0.00  0.00    -0.200 OA
ATOM     22  O   UNL d   1      45.392  29.757  58.514  0.00  0.00    -0.200 OA
BRANCH  20  23
ATOM     23  N   UNL d   1      44.784  29.992  59.508  0.00  0.00    -0.229 N 
ATOM     24  C   UNL d   1      44.668  30.803  59.380  0.00  0.00     0.092 A 
ATOM     25  C   UNL d   1      44.652  31.188  60.100  0.00  0.00     0.021 A 
ATOM     26  C   UNL d   1      44.757  30.639  60.711  0.00  0.00     0.021 A 
ATOM     27  C   UNL d   1      44.838  29.899  60.331  0.00  0.00     0.092 A 
ENDBRANCH  20  23
ENDBRANCH   1  20
TORSDOF 5
ENDMDL
MODEL 4
REMARK VINA RESULT:      -6.3     10.401     11.044
REMARK  5 active torsions:
REMARK  status: ('A' for Active; 'I' for Inactive)
REMARK    1  A    between atoms: N_6  and  S_1 
REMARK    2  A    between atoms: C_11  and  S_1 
REMARK    3  A    between atoms: C_2  and  N_5 
REMARK    4  A    between atoms: C_9  and  C_4 
REMARK       I    between atoms: N_5  and  C_7 
REMARK    5  A    between atoms: C_7  and  C_15 
ROOT
ATOM      1  C   UNL d   1      44.993  28.501  58.011  0.00  0.00     0.104 A 
ATOM      2  C   UNL d   1      45.100  27.043  57.108  0.00  0.00     0.058 A 
ATOM      3  C   UNL d   1      44.611  28.405  57.250  0.00  0.00     0.013 A 
ATOM      4  C   UNL d   1      45.413  27.845  58.274  0.00  0.00     0.013 A 
ATOM      5  C   UNL d   1      45.469  27.134  57.840  0.00  0.00     0.005 A 
ATOM      6  C   UNL d   1      44.648  27.723  56.805  0.00  0.00     0.005 A 
ENDROOT
BRANCH   2   7
ATOM      7  C   UNL d   1      45.144  26.368  56.678  0.00  0.00     0.281 C 
ATOM      8  N   UNL d   1      44.467  25.913  56.522  0.00  0.00    -0.183 NA
ATOM      9  O   UNL d   1      45.905  26.114  56.376  0.00  0.00    -0.265 OA
BRANCH   8  10
ATOM     10  C   UNL d   1      44.507  25.178  56.056  0.00  0.00     0.197 A 
ATOM     11  N   UNL d   1      44.469  25.134  55.200  0.00  0.00    -0.220 NA
ATOM     12  C   UNL d   1      44.529  24.322  54.975  0.00  0.00     0.096 A 
ATOM     13  C   UNL d   1      44.603  23.873  55.712  0.00  0.00     0.058 A 
ATOM     14  S   UNL d   1      44.588  24.411  56.351  0.00  0.00    -0.046 SA
BRANCH  12  15
ATOM     15  C   UNL d   1      44.521  23.988  54.228  0.00  0.00     0.048 A 
ATOM     16  S   UNL d   1      44.705  23.225  54.008  0.00  0.00    -0.085 SA
ATOM     17  C   UNL d   1      44.619  23.139  53.197  0.00  0.00     0.035 A 
ATOM     18  C   UNL d   1      44.376  23.873  52.921  0.00  0.00     0.007 A 
ATOM     19  C   UNL d   1      44.315  24.396  53.553  0.00  0.00     0.009 A 
ENDBRANCH  12  15
ENDBRANCH   8  10
ENDBRANCH   2   7
BRANCH   1  20
ATOM     20  S   UNL d   1      44.930  29.217  58.435  0.00  0.00     0.271 S 
ATOM     21  O   UNL d   1      44.782  28.784  59.141  0.00  0.00    -0.200 OA
ATOM     22  O   UNL d   1      45.079  29.671  57.730  0.00  0.00    -0.200 OA
BRANCH  20  23
ATOM     23  N   UNL d   1      44.867  29.960  58.864  0.00  0.00    -0.229 N 
ATOM     24  C   UNL d   1      45.097  30.740  58.706  0.00  0.00     0.092 A 
ATOM     25  C   UNL d   1      44.884  31.215  59.335  0.00  0.00     0.021 A 
ATOM     26  C   UNL d   1      44.510  30.756  59.915  0.00  0.00     0.021 A 
ATOM     27  C   UNL d   1      44.506  29.978  59.611  0.00  0.00     0.092 A 
ENDBRANCH  20  23
ENDBRANCH   1  20
TORSDOF 5
ENDMDL
MODEL 5
REMARK VINA RESULT:      -5.9     10.629     11.342
REMARK  5 active torsions:
REMARK  status: ('A' for Active; 'I' for Inactive)
REMARK    1  A    between atoms: N_6  and  S_1 
REMARK    2  A    between atoms: C_11  and  S_1 
REMARK    3  A    between atoms: C_2  and  N_5 
REMARK    4  A    between atoms: C_9  and  C_4 
REMARK       I    between atoms: N_5  and  C_7 
REMARK    5  A    between atoms: C_7  and  C_15 
ROOT
ATOM      1  C   UNL d   1      44.747  26.072  56.724  0.00  0.00     0.104 A 
ATOM      2  C   UNL d   1      44.951  27.485  57.679  0.00  0.00     0.058 A 
ATOM      3  C   UNL d   1      44.571  26.087  57.562  0.00  0.00     0.013 A 
ATOM      4  C   UNL d   1      45.019  26.783  56.414  0.00  0.00     0.013 A 
ATOM      5  C   UNL d   1      45.120  27.473  56.873  0.00  0.00     0.005 A 
ATOM      6  C   UNL d   1      44.660  26.745  58.035  0.00  0.00     0.005 A 
ENDROOT
BRANCH   2   7
ATOM      7  C   UNL d   1      45.042  28.139  58.135  0.00  0.00     0.281 C 
ATOM      8  N   UNL d   1      44.389  28.516  58.482  0.00  0.00    -0.183 NA
ATOM      9  O   UNL d   1      45.830  28.450  58.263  0.00  0.00    -0.265 OA
BRANCH   8  10
ATOM     10  C   UNL d   1      44.482  29.226  58.978  0.00  0.00     0.197 A 
ATOM     11  N   UNL d   1      44.405  29.245  59.832  0.00  0.00    -0.220 NA
ATOM     12  C   UNL d   1      44.537  30.038  60.090  0.00  0.00     0.096 A 
ATOM     13  C   UNL d   1      44.695  30.502  59.376  0.00  0.00     0.058 A 
ATOM     14  S   UNL d   1      44.656  29.990  58.717  0.00  0.00    -0.046 SA
BRANCH  12  15
ATOM     15  C   UNL d   1      44.526  30.346  60.850  0.00  0.00     0.048 A 
ATOM     16  S   UNL d   1      44.593  29.954  61.561  0.00  0.00    -0.085 SA
ATOM     17  C   UNL d   1      44.552  30.489  62.180  0.00  0.00     0.035 A 
ATOM     18  C   UNL d   1      44.457  31.226  61.831  0.00  0.00     0.007 A 
ATOM     19  C   UNL d   1      44.441  31.140  61.014  0.00  0.00     0.009 A 
ENDBRANCH  12  15
ENDBRANCH   8  10
ENDBRANCH   2   7
BRANCH   1  20
ATOM     20  S   UNL d   1      44.641  25.376  56.275  0.00  0.00     0.271 S 
ATOM     21  O   UNL d   1      44.569  25.838  55.576  0.00  0.00    -0.200 OA
ATOM     22  O   UNL d   1      44.712  24.892  56.973  0.00  0.00    -0.200 OA
BRANCH  20  23
ATOM     23  N   UNL d   1      44.534  24.653  55.822  0.00  0.00    -0.229 N 
ATOM     24  C   UNL d   1      44.332  23.873  56.016  0.00  0.00     0.092 A 
ATOM     25  C   UNL d   1      44.315  23.423  55.336  0.00  0.00     0.021 A 
ATOM     26  C   UNL d   1      44.506  23.898  54.684  0.00  0.00     0.021 A 
ATOM     27  C   UNL d   1      44.640  24.660  54.999  0.00  0.00     0.092 A 
ENDBRANCH  20  23
ENDBRANCH   1  20
TORSDOF 5
ENDMDL
