MODEL 1
REMARK VINA RESULT:      53.8      0.000      0.000
REMARK  6 active torsions:
REMARK  status: ('A' for Active; 'I' for Inactive)
REMARK       I    between atoms: C_5  and  N_1 
REMARK    1  A    between atoms: C_10  and  C_5 
REMARK    2  A    between atoms: C_7  and  C_13 
REMARK       I    between atoms: N_8  and  C_7 
REMARK    3  A    between atoms: C_12  and  N_8 
REMARK    4  A    between atoms: C_13  and  C_10 
REMARK    5  A    between atoms: O_20  and  C_14 
REMARK    6  A    between atoms: C_22  and  O_20 
ROOT
ATOM      1  C   UNL d   1      60.701  48.871  51.563  0.00  0.00     0.279 C 
ATOM      2  N   UNL d   1      61.150  48.202  51.692  0.00  0.00    -0.208 NA
ATOM      3  O   UNL d   1      60.640  49.460  52.155  0.00  0.00    -0.265 OA
ENDROOT
BRANCH   1   4
ATOM      4  C   UNL d   1      60.313  48.966  50.857  0.00  0.00     0.068 C 
BRANCH   4   5
ATOM      5  C   UNL d   1      59.872  49.644  50.714  0.00  0.00     0.068 C 
BRANCH   5   6
ATOM      6  C   UNL d   1      59.325  49.662  50.096  0.00  0.00     0.281 C 
ATOM      7  N   UNL d   1      58.510  49.677  50.267  0.00  0.00    -0.195 N 
ATOM      8  N   UNL d   1      58.088  49.679  50.967  0.00  0.00    -0.163 NA
ATOM      9  C   UNL d   1      57.969  49.694  49.646  0.00  0.00     0.088 A 
ATOM     10  C   UNL d   1      57.267  49.698  50.778  0.00  0.00     0.103 A 
ATOM     11  C   UNL d   1      56.628  49.707  51.304  0.00  0.00     0.022 C 
ATOM     12  C   UNL d   1      57.212  49.707  49.969  0.00  0.00     0.040 A 
ATOM     13  C   UNL d   1      58.145  49.699  48.832  0.00  0.00     0.021 C 
ATOM     14  O   UNL d   1      59.588  49.664  49.310  0.00  0.00    -0.265 OA
ENDBRANCH   5   6
ENDBRANCH   4   5
ENDBRANCH   1   4
BRANCH   2  15
ATOM     15  C   UNL d   1      61.208  47.622  51.106  0.00  0.00     0.085 A 
ATOM     16  C   UNL d   1      61.735  47.724  50.469  0.00  0.00     0.021 A 
ATOM     17  C   UNL d   1      61.794  47.144  49.881  0.00  0.00     0.026 A 
ATOM     18  C   UNL d   1      61.335  46.477  49.931  0.00  0.00     0.100 A 
ATOM     19  C   UNL d   1      60.807  46.370  50.565  0.00  0.00     0.026 A 
ATOM     20  C   UNL d   1      60.744  46.941  51.151  0.00  0.00     0.021 A 
BRANCH  18  21
ATOM     21  O   UNL d   1      61.406  45.904  49.334  0.00  0.00    -0.305 OA
BRANCH  21  22
ATOM     22  C   UNL d   1      62.099  45.481  49.244  0.00  0.00     0.123 C 
ATOM     23  C   UNL d   1      62.141  44.699  49.486  0.00  0.00     0.029 C 
ENDBRANCH  21  22
ENDBRANCH  18  21
ENDBRANCH   2  15
TORSDOF 6
ENDMDL
MODEL 2
REMARK VINA RESULT:      54.6      1.239      4.374
REMARK  6 active torsions:
REMARK  status: ('A' for Active; 'I' for Inactive)
REMARK       I    between atoms: C_5  and  N_1 
REMARK    1  A    between atoms: C_10  and  C_5 
REMARK    2  A    between atoms: C_7  and  C_13 
REMARK       I    between atoms: N_8  and  C_7 
REMARK    3  A    between atoms: C_12  and  N_8 
REMARK    4  A    between atoms: C_13  and  C_10 
REMARK    5  A    between atoms: O_20  and  C_14 
REMARK    6  A    between atoms: C_22  and  O_20 
ROOT
ATOM      1  C   UNL d   1      61.113  49.171  51.364  0.00  0.00     0.279 C 
ATOM      2  N   UNL d   1      60.530  49.707  51.564  0.00  0.00    -0.208 NA
ATOM      3  O   UNL d   1      61.844  49.172  51.772  0.00  0.00    -0.265 OA
ENDROOT
BRANCH   1   4
ATOM      4  C   UNL d   1      60.982  48.637  50.769  0.00  0.00     0.068 C 
BRANCH   4   5
ATOM      5  C   UNL d   1      61.004  47.830  50.922  0.00  0.00     0.068 C 
BRANCH   5   6
ATOM      6  C   UNL d   1      61.317  47.309  50.364  0.00  0.00     0.281 C 
ATOM      7  N   UNL d   1      61.210  46.489  50.460  0.00  0.00    -0.195 N 
ATOM      8  N   UNL d   1      60.833  46.039  51.029  0.00  0.00    -0.163 NA
ATOM      9  C   UNL d   1      61.526  45.974  49.900  0.00  0.00     0.088 A 
ATOM     10  C   UNL d   1      60.915  45.227  50.820  0.00  0.00     0.103 A 
ATOM     11  C   UNL d   1      60.625  44.569  51.228  0.00  0.00     0.022 C 
ATOM     12  C   UNL d   1      61.340  45.205  50.129  0.00  0.00     0.040 A 
ATOM     13  C   UNL d   1      61.957  46.182  49.220  0.00  0.00     0.021 C 
ATOM     14  O   UNL d   1      61.736  47.603  49.713  0.00  0.00    -0.265 OA
ENDBRANCH   5   6
ENDBRANCH   4   5
ENDBRANCH   1   4
BRANCH   2  15
ATOM     15  C   UNL d   1      59.809  49.704  51.161  0.00  0.00     0.085 A 
ATOM     16  C   UNL d   1      59.092  49.703  51.585  0.00  0.00     0.021 A 
ATOM     17  C   UNL d   1      58.370  49.701  51.182  0.00  0.00     0.026 A 
ATOM     18  C   UNL d   1      58.365  49.700  50.370  0.00  0.00     0.100 A 
ATOM     19  C   UNL d   1      59.077  49.701  49.941  0.00  0.00     0.026 A 
ATOM     20  C   UNL d   1      59.798  49.703  50.335  0.00  0.00     0.021 A 
BRANCH  18  21
ATOM     21  O   UNL d   1      57.632  49.698  49.980  0.00  0.00    -0.305 OA
BRANCH  21  22
ATOM     22  C   UNL d   1      57.066  49.138  50.163  0.00  0.00     0.123 C 
ATOM     23  C   UNL d   1      56.312  49.369  50.385  0.00  0.00     0.029 C 
ENDBRANCH  21  22
ENDBRANCH  18  21
ENDBRANCH   2  15
TORSDOF 6
ENDMDL
