MODEL 1
REMARK VINA RESULT:      98.8      0.000      0.000
REMARK  4 active torsions:
REMARK  status: ('A' for Active; 'I' for Inactive)
REMARK    1  A    between atoms: N_3  and  S_1 
REMARK    2  A    between atoms: C_6  and  S_1 
REMARK       I    between atoms: C_2  and  N_4 
REMARK       I    between atoms: N_5  and  C_2 
REMARK    3  A    between atoms: C_14  and  N_5 
REMARK    4  A    between atoms: C_15  and  N_5 
ROOT
ATOM      1  C   UNL d   1     -48.963  30.485  33.970  0.00  0.00     0.339 C 
ATOM      2  N   UNL d   1     -49.929  28.219  33.728  0.00  0.00    -0.226 N 
ATOM      3  N   UNL d   1     -49.290  29.718  33.888  0.00  0.00    -0.254 N 
ATOM      4  N   UNL d   1     -48.320  30.623  34.458  0.00  0.00    -0.260 N 
ATOM      5  C   UNL d   1     -50.263  28.856  33.306  0.00  0.00     0.111 A 
ATOM      6  C   UNL d   1     -49.283  28.341  34.222  0.00  0.00     0.111 A 
ATOM      7  O   UNL d   1     -49.301  31.111  33.547  0.00  0.00    -0.245 OA
ATOM      8  C   UNL d   1     -48.964  29.089  34.302  0.00  0.00     0.104 A 
ATOM      9  C   UNL d   1     -49.944  29.604  33.386  0.00  0.00     0.104 A 
ENDROOT
BRANCH   4  10
ATOM     10  C   UNL d   1     -47.982  29.982  34.885  0.00  0.00     0.068 A 
ATOM     11  C   UNL d   1     -48.262  29.814  35.655  0.00  0.00     0.018 A 
ATOM     12  C   UNL d   1     -47.933  29.182  36.085  0.00  0.00     0.002 A 
ATOM     13  C   UNL d   1     -47.324  28.721  35.740  0.00  0.00     0.000 A 
ATOM     14  C   UNL d   1     -47.048  28.893  34.969  0.00  0.00     0.002 A 
ATOM     15  C   UNL d   1     -47.383  29.532  34.540  0.00  0.00     0.018 A 
ENDBRANCH   4  10
BRANCH   4  16
ATOM     16  C   UNL d   1     -48.012  31.371  34.529  0.00  0.00     0.068 A 
ATOM     17  C   UNL d   1     -48.110  31.916  33.914  0.00  0.00     0.018 A 
ATOM     18  C   UNL d   1     -47.801  32.670  33.982  0.00  0.00     0.002 A 
ATOM     19  C   UNL d   1     -47.393  32.886  34.664  0.00  0.00     0.000 A 
ATOM     20  C   UNL d   1     -47.297  32.342  35.274  0.00  0.00     0.002 A 
ATOM     21  C   UNL d   1     -47.607  31.589  35.203  0.00  0.00     0.018 A 
ENDBRANCH   4  16
BRANCH   2  22
ATOM     22  S   UNL d   1     -50.251  27.464  33.647  0.00  0.00     0.271 S 
ATOM     23  O   UNL d   1     -49.785  26.799  33.790  0.00  0.00    -0.200 OA
ATOM     24  O   UNL d   1     -51.038  27.372  33.424  0.00  0.00    -0.200 OA
BRANCH  22  25
ATOM     25  C   UNL d   1     -50.573  26.708  33.566  0.00  0.00     0.104 A 
ATOM     26  C   UNL d   1     -50.083  26.041  33.637  0.00  0.00     0.013 A 
ATOM     27  C   UNL d   1     -50.405  25.286  33.556  0.00  0.00     0.001 A 
ATOM     28  C   UNL d   1     -51.217  25.198  33.405  0.00  0.00     0.000 A 
ATOM     29  C   UNL d   1     -51.698  25.866  33.336  0.00  0.00     0.001 A 
ATOM     30  C   UNL d   1     -51.539  24.442  33.324  0.00  0.00     0.000 C 
ATOM     31  C   UNL d   1     -51.378  26.616  33.417  0.00  0.00     0.013 A 
ENDBRANCH  22  25
ENDBRANCH   2  22
TORSDOF 4
ENDMDL
