MODEL 1
REMARK VINA RESULT:      38.1      0.000      0.000
REMARK  3 active torsions:
REMARK  status: ('A' for Active; 'I' for Inactive)
REMARK    1  A    between atoms: C_4  and  C_1 
REMARK    2  A    between atoms: N_7  and  C_4 
REMARK    3  A    between atoms: C_9  and  N_7 
ROOT
ATOM      1  C   UNL d   1      59.496  49.701  51.116  0.00  0.00     0.159 C 
ATOM      2  S   UNL d   1      59.635  49.707  51.930  0.00  0.00    -0.055 SA
ENDROOT
BRANCH   1   3
ATOM      3  C   UNL d   1      58.721  49.702  50.834  0.00  0.00     0.139 A 
ATOM      4  N   UNL d   1      58.038  49.702  51.300  0.00  0.00    -0.236 NA
ATOM      5  C   UNL d   1      57.385  49.704  50.793  0.00  0.00     0.088 A 
ATOM      6  C   UNL d   1      56.571  49.704  50.932  0.00  0.00     0.020 A 
ATOM      7  C   UNL d   1      57.669  49.704  50.014  0.00  0.00     0.049 A 
ATOM      8  C   UNL d   1      56.045  49.706  50.304  0.00  0.00     0.002 A 
ATOM      9  C   UNL d   1      56.329  49.706  49.525  0.00  0.00     0.001 A 
ATOM     10  C   UNL d   1      57.136  49.705  49.382  0.00  0.00     0.008 A 
ATOM     11  S   UNL d   1      58.496  49.703  50.046  0.00  0.00    -0.064 SA
ENDBRANCH   1   3
BRANCH   1  12
ATOM     12  N   UNL d   1      60.125  49.693  50.587  0.00  0.00    -0.233 NA
BRANCH  12  13
ATOM     13  C   UNL d   1      60.602  49.018  50.522  0.00  0.00     0.082 A 
ATOM     14  C   UNL d   1      60.560  48.429  51.094  0.00  0.00     0.020 A 
ATOM     15  C   UNL d   1      61.029  47.757  51.037  0.00  0.00     0.013 A 
ATOM     16  C   UNL d   1      61.549  47.678  50.392  0.00  0.00     0.058 A 
ATOM     17  C   UNL d   1      61.592  48.268  49.816  0.00  0.00     0.013 A 
ATOM     18 CL   UNL d   1      62.021  47.010  50.327  0.00  0.00    -0.082 Cl
ATOM     19  C   UNL d   1      61.115  48.937  49.887  0.00  0.00     0.020 A 
ENDBRANCH  12  13
ENDBRANCH   1  12
TORSDOF 3
ENDMDL
