MODEL 1
REMARK VINA RESULT:      -3.8      0.000      0.000
REMARK  4 active torsions:
REMARK  status: ('A' for Active; 'I' for Inactive)
REMARK    1  A    between atoms: S_12  and  C_5 
REMARK       I    between atoms: N_7  and  C_9 
REMARK    2  A    between atoms: C_19  and  N_8 
REMARK    3  A    between atoms: C_9  and  C_14 
REMARK    4  A    between atoms: C_14  and  S_12 
ROOT
ATOM      1  C   UNL d   1      32.908  18.982 -23.211  0.00  0.00     0.098 C 
ENDROOT
BRANCH   1   2
ATOM      2  C   UNL d   1      33.075  19.767 -23.398  0.00  0.00     0.272 C 
ATOM      3  N   UNL d   1      33.075  20.343 -22.805  0.00  0.00    -0.269 N 
ATOM      4  C   UNL d   1      32.908  20.130 -22.029  0.00  0.00     0.102 A 
ATOM      5  C   UNL d   1      33.241  21.126 -22.989  0.00  0.00     0.102 A 
ATOM      6  C   UNL d   1      32.908  20.706 -21.436  0.00  0.00     0.100 A 
ATOM      7  N   UNL d   1      33.075  21.492 -21.622  0.00  0.00    -0.301 N 
ATOM      8  C   UNL d   1      33.241  21.699 -22.400  0.00  0.00     0.100 A 
ATOM      9  O   UNL d   1      33.241  19.972 -24.179  0.00  0.00    -0.266 OA
BRANCH   7  10
ATOM     10  C   UNL d   1      33.075  22.065 -21.033  0.00  0.00     0.064 A 
ATOM     11  C   UNL d   1      33.199  21.855 -20.249  0.00  0.00     0.018 A 
ATOM     12  C   UNL d   1      33.199  22.432 -19.659  0.00  0.00     0.002 A 
ATOM     13  C   UNL d   1      33.075  23.217 -19.853  0.00  0.00     0.000 A 
ATOM     14  C   UNL d   1      32.951  23.431 -20.640  0.00  0.00     0.002 A 
ATOM     15  C   UNL d   1      32.951  22.857 -21.229  0.00  0.00     0.018 A 
ENDBRANCH   7  10
ENDBRANCH   1   2
BRANCH   1  16
ATOM     16  S   UNL d   1      32.770  18.432 -23.815  0.00  0.00    -0.060 SA
BRANCH  16  17
ATOM     17  C   UNL d   1      32.639  17.633 -23.621  0.00  0.00     0.137 A 
ATOM     18  C   UNL d   1      31.923  17.270 -23.802  0.00  0.00     0.141 A 
ATOM     19  O   UNL d   1      31.241  17.554 -24.169  0.00  0.00    -0.303 OA
ATOM     20  C   UNL d   1      31.800  16.474 -23.606  0.00  0.00     0.110 A 
ATOM     21  C   UNL d   1      30.691  16.931 -24.201  0.00  0.00     0.102 A 
ATOM     22  C   UNL d   1      29.920  16.887 -24.503  0.00  0.00     0.025 A 
ATOM     23  C   UNL d   1      31.042  16.269 -23.853  0.00  0.00     0.043 A 
ATOM     24  C   UNL d   1      29.505  16.173 -24.452  0.00  0.00     0.002 A 
ATOM     25  C   UNL d   1      29.851  15.509 -24.105  0.00  0.00     0.000 A 
ATOM     26  C   UNL d   1      30.623  15.553 -23.803  0.00  0.00     0.004 A 
ATOM     27  N   UNL d   1      32.399  16.051 -23.230  0.00  0.00    -0.222 NA
ATOM     28  C   UNL d   1      33.116  16.414 -23.049  0.00  0.00     0.200 A 
ATOM     29  N   UNL d   1      33.240  17.202 -23.242  0.00  0.00    -0.215 NA
ENDBRANCH  16  17
ENDBRANCH   1  16
TORSDOF 4
ENDMDL
MODEL 2
REMARK VINA RESULT:      -1.3      1.430      5.996
REMARK  4 active torsions:
REMARK  status: ('A' for Active; 'I' for Inactive)
REMARK    1  A    between atoms: S_12  and  C_5 
REMARK       I    between atoms: N_7  and  C_9 
REMARK    2  A    between atoms: C_19  and  N_8 
REMARK    3  A    between atoms: C_9  and  C_14 
REMARK    4  A    between atoms: C_14  and  S_12 
ROOT
ATOM      1  C   UNL d   1      32.557  19.014 -23.300  0.00  0.00     0.098 C 
ENDROOT
BRANCH   1   2
ATOM      2  C   UNL d   1      32.511  18.568 -23.992  0.00  0.00     0.272 C 
ATOM      3  N   UNL d   1      31.853  18.087 -24.134  0.00  0.00    -0.269 N 
ATOM      4  C   UNL d   1      31.245  18.055 -23.582  0.00  0.00     0.102 A 
ATOM      5  C   UNL d   1      31.807  17.643 -24.823  0.00  0.00     0.102 A 
ATOM      6  C   UNL d   1      30.587  17.575 -23.723  0.00  0.00     0.100 A 
ATOM      7  N   UNL d   1      30.542  17.129 -24.416  0.00  0.00    -0.301 N 
ATOM      8  C   UNL d   1      31.153  17.166 -24.963  0.00  0.00     0.100 A 
ATOM      9  O   UNL d   1      33.126  18.607 -24.540  0.00  0.00    -0.266 OA
BRANCH   7  10
ATOM     10  C   UNL d   1      29.888  16.651 -24.557  0.00  0.00     0.064 A 
ATOM     11  C   UNL d   1      29.142  16.884 -24.305  0.00  0.00     0.018 A 
ATOM     12  C   UNL d   1      28.487  16.402 -24.448  0.00  0.00     0.002 A 
ATOM     13  C   UNL d   1      28.579  15.691 -24.842  0.00  0.00     0.000 A 
ATOM     14  C   UNL d   1      29.327  15.456 -25.096  0.00  0.00     0.002 A 
ATOM     15  C   UNL d   1      29.981  15.934 -24.955  0.00  0.00     0.018 A 
ENDBRANCH   7  10
ENDBRANCH   1   2
BRANCH   1  16
ATOM     16  S   UNL d   1      33.232  19.465 -23.140  0.00  0.00    -0.060 SA
BRANCH  16  17
ATOM     17  C   UNL d   1      33.188  20.092 -22.594  0.00  0.00     0.137 A 
ATOM     18  C   UNL d   1      33.192  20.873 -22.852  0.00  0.00     0.141 A 
ATOM     19  O   UNL d   1      33.234  21.202 -23.608  0.00  0.00    -0.303 OA
ATOM     20  C   UNL d   1      33.148  21.492 -22.302  0.00  0.00     0.110 A 
ATOM     21  C   UNL d   1      33.216  22.030 -23.527  0.00  0.00     0.102 A 
ATOM     22  C   UNL d   1      33.241  22.642 -24.085  0.00  0.00     0.025 A 
ATOM     23  C   UNL d   1      33.163  22.201 -22.720  0.00  0.00     0.043 A 
ATOM     24  C   UNL d   1      33.213  23.427 -23.826  0.00  0.00     0.002 A 
ATOM     25  C   UNL d   1      33.160  23.604 -23.022  0.00  0.00     0.000 A 
ATOM     26  C   UNL d   1      33.134  22.991 -22.463  0.00  0.00     0.004 A 
ATOM     27  N   UNL d   1      33.100  21.318 -21.498  0.00  0.00    -0.222 NA
ATOM     28  C   UNL d   1      33.096  20.537 -21.240  0.00  0.00     0.200 A 
ATOM     29  N   UNL d   1      33.140  19.922 -21.782  0.00  0.00    -0.215 NA
ENDBRANCH  16  17
ENDBRANCH   1  16
TORSDOF 4
ENDMDL
MODEL 3
REMARK VINA RESULT:      -1.2      1.639      6.213
REMARK  4 active torsions:
REMARK  status: ('A' for Active; 'I' for Inactive)
REMARK    1  A    between atoms: S_12  and  C_5 
REMARK       I    between atoms: N_7  and  C_9 
REMARK    2  A    between atoms: C_19  and  N_8 
REMARK    3  A    between atoms: C_9  and  C_14 
REMARK    4  A    between atoms: C_14  and  S_12 
ROOT
ATOM      1  C   UNL d   1      32.816  21.192 -22.418  0.00  0.00     0.098 C 
ENDROOT
BRANCH   1   2
ATOM      2  C   UNL d   1      32.994  20.829 -23.136  0.00  0.00     0.272 C 
ATOM      3  N   UNL d   1      32.935  20.008 -23.212  0.00  0.00    -0.269 N 
ATOM      4  C   UNL d   1      32.698  19.554 -22.569  0.00  0.00     0.102 A 
ATOM      5  C   UNL d   1      33.112  19.646 -23.927  0.00  0.00     0.102 A 
ATOM      6  C   UNL d   1      32.639  18.733 -22.645  0.00  0.00     0.100 A 
ATOM      7  N   UNL d   1      32.817  18.370 -23.364  0.00  0.00    -0.301 N 
ATOM      8  C   UNL d   1      33.053  18.829 -24.003  0.00  0.00     0.100 A 
ATOM      9  O   UNL d   1      33.231  21.292 -23.776  0.00  0.00    -0.266 OA
BRANCH   7  10
ATOM     10  C   UNL d   1      32.758  17.554 -23.440  0.00  0.00     0.064 A 
ATOM     11  C   UNL d   1      33.203  17.060 -22.959  0.00  0.00     0.018 A 
ATOM     12  C   UNL d   1      33.143  16.240 -23.037  0.00  0.00     0.002 A 
ATOM     13  C   UNL d   1      32.640  15.917 -23.595  0.00  0.00     0.000 A 
ATOM     14  C   UNL d   1      32.192  16.412 -24.080  0.00  0.00     0.002 A 
ATOM     15  C   UNL d   1      32.251  17.228 -24.004  0.00  0.00     0.018 A 
ENDBRANCH   7  10
ENDBRANCH   1   2
BRANCH   1  16
ATOM     16  S   UNL d   1      33.201  21.891 -22.199  0.00  0.00    -0.060 SA
BRANCH  16  17
ATOM     17  C   UNL d   1      32.772  22.496 -21.822  0.00  0.00     0.137 A 
ATOM     18  C   UNL d   1      32.797  22.581 -21.003  0.00  0.00     0.141 A 
ATOM     19  O   UNL d   1      33.193  22.153 -20.419  0.00  0.00    -0.303 OA
ATOM     20  C   UNL d   1      32.367  23.186 -20.635  0.00  0.00     0.110 A 
ATOM     21  C   UNL d   1      33.009  22.496 -19.684  0.00  0.00     0.102 A 
ATOM     22  C   UNL d   1      33.240  22.308 -18.911  0.00  0.00     0.025 A 
ATOM     23  C   UNL d   1      32.499  23.131 -19.825  0.00  0.00     0.043 A 
ATOM     24  C   UNL d   1      32.957  22.762 -18.280  0.00  0.00     0.002 A 
ATOM     25  C   UNL d   1      32.448  23.397 -18.415  0.00  0.00     0.000 A 
ATOM     26  C   UNL d   1      32.216  23.586 -19.189  0.00  0.00     0.004 A 
ATOM     27  N   UNL d   1      31.916  23.701 -21.095  0.00  0.00    -0.222 NA
ATOM     28  C   UNL d   1      31.891  23.617 -21.913  0.00  0.00     0.200 A 
ATOM     29  N   UNL d   1      32.316  23.018 -22.280  0.00  0.00    -0.215 NA
ENDBRANCH  16  17
ENDBRANCH   1  16
TORSDOF 4
ENDMDL
