MODEL 1
REMARK VINA RESULT:      64.0      0.000      0.000
REMARK  6 active torsions:
REMARK  status: ('A' for Active; 'I' for Inactive)
REMARK    1  A    between atoms: N_5  and  S_1 
REMARK    2  A    between atoms: C_6  and  S_1 
REMARK    3  A    between atoms: C_2  and  C_10 
REMARK       I    between atoms: N_3  and  C_2 
REMARK    4  A    between atoms: C_11  and  N_4 
REMARK    5  A    between atoms: C_17  and  N_5 
REMARK    6  A    between atoms: O_29  and  C_23 
ROOT
ATOM      1  C   UNL d   1      13.439  12.754  -4.651  0.00  0.00     0.057 A 
ATOM      2  C   UNL d   1      13.370  12.099  -3.139  0.00  0.00     0.094 A 
ATOM      3  C   UNL d   1      13.904  13.069  -4.042  0.00  0.00     0.006 A 
ATOM      4  C   UNL d   1      12.943  12.113  -4.495  0.00  0.00     0.006 A 
ATOM      5  C   UNL d   1      13.864  12.736  -3.288  0.00  0.00     0.020 A 
ATOM      6  C   UNL d   1      12.908  11.789  -3.750  0.00  0.00     0.020 A 
ENDROOT
BRANCH   1   7
ATOM      7  C   UNL d   1      13.471  13.082  -5.414  0.00  0.00     0.265 C 
ATOM      8  N   UNL d   1      13.544  13.903  -5.514  0.00  0.00    -0.269 N 
ATOM      9  C   UNL d   1      13.576  14.222  -6.264  0.00  0.00     0.102 A 
ATOM     10  C   UNL d   1      13.584  14.393  -4.854  0.00  0.00     0.102 A 
ATOM     11  C   UNL d   1      13.648  15.038  -6.363  0.00  0.00     0.100 A 
ATOM     12  N   UNL d   1      13.688  15.523  -5.701  0.00  0.00    -0.301 N 
ATOM     13  C   UNL d   1      13.656  15.203  -4.951  0.00  0.00     0.100 A 
ATOM     14  O   UNL d   1      13.431  12.590  -6.072  0.00  0.00    -0.267 OA
BRANCH  12  15
ATOM     15  C   UNL d   1      13.759  16.324  -5.795  0.00  0.00     0.064 A 
ATOM     16  C   UNL d   1      14.355  16.732  -5.395  0.00  0.00     0.020 A 
ATOM     17  C   UNL d   1      14.429  17.542  -5.488  0.00  0.00     0.026 A 
ATOM     18  C   UNL d   1      13.910  17.954  -5.980  0.00  0.00     0.094 A 
ATOM     19  C   UNL d   1      13.313  17.536  -6.378  0.00  0.00     0.026 A 
ATOM     20  C   UNL d   1      13.244  16.731  -6.283  0.00  0.00     0.020 A 
BRANCH  18  21
ATOM     21  O   UNL d   1      13.983  18.766  -6.074  0.00  0.00    -0.328 OA
ATOM     22  C   UNL d   1      13.308  19.230  -6.148  0.00  0.00     0.181 C 
ENDBRANCH  18  21
ENDBRANCH  12  15
ENDBRANCH   1   7
BRANCH   2  23
ATOM     23  N   UNL d   1      13.341  11.780  -2.390  0.00  0.00    -0.158 NA
BRANCH  23  24
ATOM     24  S   UNL d   1      13.837  12.059  -1.791  0.00  0.00     0.285 S 
ATOM     25  O   UNL d   1      13.184  12.333  -1.380  0.00  0.00    -0.198 OA
ATOM     26  O   UNL d   1      14.485  11.780  -2.214  0.00  0.00    -0.198 OA
BRANCH  24  27
ATOM     27  C   UNL d   1      14.337  12.333  -1.203  0.00  0.00     0.107 A 
ATOM     28  C   UNL d   1      14.491  13.134  -1.131  0.00  0.00     0.043 A 
ATOM     29  C   UNL d   1      14.997  13.410  -0.535  0.00  0.00     0.141 A 
ATOM     30  F   UNL d   1      15.156  14.223  -0.458  0.00  0.00    -0.204 F 
ATOM     31  C   UNL d   1      15.347  12.872  -0.014  0.00  0.00     0.030 A 
ATOM     32  C   UNL d   1      15.191  12.060  -0.088  0.00  0.00     0.003 A 
ATOM     33  C   UNL d   1      14.685  11.793  -0.684  0.00  0.00     0.013 A 
ENDBRANCH  24  27
ENDBRANCH  23  24
ENDBRANCH   2  23
TORSDOF 6
ENDMDL
