MODEL 1
REMARK VINA RESULT:      -3.1      0.000      0.000
REMARK  6 active torsions:
REMARK  status: ('A' for Active; 'I' for Inactive)
REMARK    1  A    between atoms: C_5  and  S_1 
REMARK    2  A    between atoms: N_6  and  S_1 
REMARK       I    between atoms: N_2  and  C_3 
REMARK    3  A    between atoms: C_3  and  C_14 
REMARK    4  A    between atoms: C_4  and  C_7 
REMARK    5  A    between atoms: C_23  and  N_6 
REMARK    6  A    between atoms: C_24  and  C_23 
ROOT
ATOM      1  C   UNL d   1      56.006  -0.211  32.680  0.00  0.00     0.057 A 
ATOM      2  C   UNL d   1      56.392  -0.932  32.566  0.00  0.00     0.005 A 
ATOM      3  C   UNL d   1      56.072   0.384  32.112  0.00  0.00     0.005 A 
ATOM      4  C   UNL d   1      56.906  -0.462  31.323  0.00  0.00     0.020 A 
ATOM      5  C   UNL d   1      56.841  -1.057  31.891  0.00  0.00     0.002 A 
ATOM      6  C   UNL d   1      56.522   0.258  31.433  0.00  0.00     0.002 A 
ENDROOT
BRANCH   4   7
ATOM      7  C   UNL d   1      57.356  -0.587  30.645  0.00  0.00     0.112 C 
BRANCH   7   8
ATOM      8  N   UNL d   1      58.015  -0.120  30.499  0.00  0.00    -0.157 NA
BRANCH   8   9
ATOM      9  S   UNL d   1      58.632  -0.417  30.021  0.00  0.00     0.285 S 
ATOM     10  O   UNL d   1      58.063  -0.781  29.527  0.00  0.00    -0.198 OA
ATOM     11  O   UNL d   1      59.188  -0.057  30.510  0.00  0.00    -0.198 OA
BRANCH   9  12
ATOM     12  C   UNL d   1      59.234  -0.715  29.543  0.00  0.00     0.105 A 
ATOM     13  C   UNL d   1      59.298  -1.522  29.417  0.00  0.00     0.017 A 
ATOM     14  C   UNL d   1      59.901  -1.822  28.938  0.00  0.00     0.072 A 
ATOM     15  C   UNL d   1      60.441  -1.300  28.587  0.00  0.00     0.004 A 
ATOM     16  C   UNL d   1      60.377  -0.492  28.714  0.00  0.00     0.001 A 
ATOM     17  C   UNL d   1      59.773  -0.202  29.192  0.00  0.00     0.013 A 
BRANCH  14  18
ATOM     18  C   UNL d   1      59.969  -2.630  28.809  0.00  0.00     0.419 C 
ATOM     19  F   UNL d   1      59.213  -2.642  28.474  0.00  0.00    -0.166 F 
ATOM     20  F   UNL d   1      60.727  -2.623  29.144  0.00  0.00    -0.166 F 
ATOM     21  F   UNL d   1      60.038  -3.447  28.679  0.00  0.00    -0.166 F 
ENDBRANCH  14  18
ENDBRANCH   9  12
ENDBRANCH   8   9
ENDBRANCH   7   8
ENDBRANCH   4   7
BRANCH   1  22
ATOM     22  C   UNL d   1      55.548  -0.083  33.369  0.00  0.00     0.265 C 
ATOM     23  N   UNL d   1      55.917   0.172  34.066  0.00  0.00    -0.268 N 
ATOM     24  C   UNL d   1      56.732   0.299  34.080  0.00  0.00     0.108 A 
ATOM     25  C   UNL d   1      55.464   0.298  34.743  0.00  0.00     0.108 A 
ATOM     26  C   UNL d   1      57.099   0.554  34.781  0.00  0.00     0.118 A 
ATOM     27  C   UNL d   1      57.918   0.682  34.796  0.00  0.00     0.028 C 
ATOM     28  O   UNL d   1      56.645   0.680  35.459  0.00  0.00    -0.304 OA
ATOM     29  C   UNL d   1      55.828   0.554  35.449  0.00  0.00     0.118 A 
ATOM     30  C   UNL d   1      55.377   0.682  36.132  0.00  0.00     0.028 C 
ATOM     31  O   UNL d   1      54.730  -0.211  33.350  0.00  0.00    -0.267 OA
ENDBRANCH   1  22
TORSDOF 6
ENDMDL
