MODEL 1
REMARK VINA RESULT:      40.6      0.000      0.000
REMARK  2 active torsions:
REMARK  status: ('A' for Active; 'I' for Inactive)
REMARK    1  A    between atoms: N_5  and  C_1 
REMARK       I    between atoms: C_7  and  N_5 
REMARK    2  A    between atoms: C_11  and  C_7 
ROOT
ATOM      1  C   UNL d   1     -50.726  25.943  33.387  0.00  0.00     0.124 A 
ATOM      2  C   UNL d   1     -49.932  25.962  33.388  0.00  0.00     0.093 A 
ATOM      3  S   UNL d   1     -51.019  26.711  33.433  0.00  0.00    -0.067 SA
ATOM      4  C   UNL d   1     -49.684  26.743  33.434  0.00  0.00     0.018 A 
ATOM      5  C   UNL d   1     -50.382  27.223  33.463  0.00  0.00     0.032 A 
ATOM      6  C   UNL d   1     -49.410  25.276  33.346  0.00  0.00     0.103 C 
ATOM      7  N   UNL d   1     -48.900  24.634  33.308  0.00  0.00    -0.191 NA
ATOM      8  C   UNL d   1     -48.945  27.091  33.454  0.00  0.00     0.001 A 
ATOM      9  C   UNL d   1     -50.313  28.033  33.511  0.00  0.00     0.006 A 
ATOM     10  C   UNL d   1     -48.906  27.930  33.504  0.00  0.00     0.000 A 
ATOM     11  C   UNL d   1     -49.541  28.367  33.530  0.00  0.00     0.001 A 
ENDROOT
BRANCH   1  12
ATOM     12  N   UNL d   1     -51.208  25.246  33.346  0.00  0.00    -0.201 NA
ATOM     13  C   UNL d   1     -52.029  25.301  33.426  0.00  0.00     0.280 C 
ATOM     14  O   UNL d   1     -52.405  26.061  33.552  0.00  0.00    -0.265 OA
BRANCH  13  15
ATOM     15  C   UNL d   1     -52.490  24.634  33.387  0.00  0.00     0.058 A 
ATOM     16  C   UNL d   1     -53.335  24.729  33.364  0.00  0.00     0.005 A 
ATOM     17  C   UNL d   1     -53.816  24.032  33.323  0.00  0.00     0.000 A 
ATOM     18  C   UNL d   1     -53.429  23.275  33.306  0.00  0.00     0.000 A 
ATOM     19  C   UNL d   1     -52.613  23.200  33.329  0.00  0.00     0.000 A 
ATOM     20  C   UNL d   1     -52.152  23.867  33.368  0.00  0.00     0.005 A 
ENDBRANCH  13  15
ENDBRANCH   1  12
TORSDOF 2
ENDMDL
