MODEL 1
REMARK VINA RESULT:     106.9      0.000      0.000
REMARK  3 active torsions:
REMARK  status: ('A' for Active; 'I' for Inactive)
REMARK    1  A    between atoms: N_2  and  S_1 
REMARK    2  A    between atoms: C_5  and  S_1 
REMARK    3  A    between atoms: C_4  and  C_3 
REMARK       I    between atoms: N_8  and  C_4 
ROOT
ATOM      1  N   UNL d   1      59.534  49.113  50.372  0.00  0.00    -0.226 N 
ATOM      2  C   UNL d   1      59.413  49.403  51.127  0.00  0.00     0.131 A 
ATOM      3  C   UNL d   1      58.885  49.017  49.867  0.00  0.00     0.092 A 
ATOM      4  C   UNL d   1      58.656  49.598  51.382  0.00  0.00     0.023 A 
ATOM      5  C   UNL d   1      58.137  49.210  50.120  0.00  0.00     0.018 A 
ATOM      6  C   UNL d   1      58.020  49.503  50.884  0.00  0.00     0.003 A 
ATOM      7  C   UNL d   1      57.486  49.118  49.623  0.00  0.00     0.002 A 
ATOM      8  C   UNL d   1      57.270  49.702  51.153  0.00  0.00     0.000 A 
ATOM      9  C   UNL d   1      56.620  49.609  50.652  0.00  0.00     0.000 A 
ATOM     10  C   UNL d   1      56.729  49.315  49.883  0.00  0.00     0.000 A 
ENDROOT
BRANCH   2  11
ATOM     11  C   UNL d   1      60.063  49.498  51.632  0.00  0.00     0.282 C 
ATOM     12  N   UNL d   1      59.946  49.546  52.449  0.00  0.00    -0.271 N 
ATOM     13  C   UNL d   1      59.167  49.494  52.699  0.00  0.00     0.083 A 
ATOM     14  C   UNL d   1      60.633  49.641  52.903  0.00  0.00     0.083 A 
ATOM     15  C   UNL d   1      58.867  49.522  53.470  0.00  0.00     0.019 A 
ATOM     16  C   UNL d   1      59.275  49.610  54.173  0.00  0.00     0.002 A 
ATOM     17  C   UNL d   1      60.089  49.692  54.293  0.00  0.00     0.002 A 
ATOM     18  C   UNL d   1      60.695  49.706  53.723  0.00  0.00     0.019 A 
ATOM     19  O   UNL d   1      60.824  49.545  51.330  0.00  0.00    -0.265 OA
ENDBRANCH   2  11
BRANCH   1  20
ATOM     20  S   UNL d   1      60.292  48.916  50.113  0.00  0.00     0.277 S 
ATOM     21  O   UNL d   1      60.029  48.139  50.045  0.00  0.00    -0.199 OA
ATOM     22  O   UNL d   1      60.549  49.698  50.184  0.00  0.00    -0.199 OA
BRANCH  20  23
ATOM     23  C   UNL d   1      61.046  48.704  49.851  0.00  0.00     0.133 A 
ATOM     24  S   UNL d   1      61.485  49.098  49.280  0.00  0.00    -0.074 SA
ATOM     25  C   UNL d   1      62.202  48.705  49.186  0.00  0.00     0.036 A 
ATOM     26  C   UNL d   1      62.208  48.058  49.706  0.00  0.00     0.008 A 
ATOM     27  C   UNL d   1      61.490  48.061  50.116  0.00  0.00     0.020 A 
ENDBRANCH  20  23
ENDBRANCH   1  20
TORSDOF 3
ENDMDL
MODEL 2
REMARK VINA RESULT:     108.9      1.117      1.402
REMARK  3 active torsions:
REMARK  status: ('A' for Active; 'I' for Inactive)
REMARK    1  A    between atoms: N_2  and  S_1 
REMARK    2  A    between atoms: C_5  and  S_1 
REMARK    3  A    between atoms: C_4  and  C_3 
REMARK       I    between atoms: N_8  and  C_4 
ROOT
ATOM      1  N   UNL d   1      59.677  48.126  50.506  0.00  0.00    -0.226 N 
ATOM      2  C   UNL d   1      59.804  48.880  50.797  0.00  0.00     0.131 A 
ATOM      3  C   UNL d   1      58.907  47.896  50.304  0.00  0.00     0.092 A 
ATOM      4  C   UNL d   1      59.176  49.402  50.889  0.00  0.00     0.023 A 
ATOM      5  C   UNL d   1      58.287  48.412  50.396  0.00  0.00     0.018 A 
ATOM      6  C   UNL d   1      58.421  49.173  50.691  0.00  0.00     0.003 A 
ATOM      7  C   UNL d   1      57.519  48.190  50.197  0.00  0.00     0.002 A 
ATOM      8  C   UNL d   1      57.804  49.706  50.789  0.00  0.00     0.000 A 
ATOM      9  C   UNL d   1      57.035  49.479  50.589  0.00  0.00     0.000 A 
ATOM     10  C   UNL d   1      56.892  48.717  50.291  0.00  0.00     0.000 A 
ENDROOT
BRANCH   2  11
ATOM     11  C   UNL d   1      60.574  49.111  50.999  0.00  0.00     0.282 C 
ATOM     12  N   UNL d   1      60.764  49.266  51.788  0.00  0.00    -0.271 N 
ATOM     13  C   UNL d   1      60.151  49.175  52.324  0.00  0.00     0.083 A 
ATOM     14  C   UNL d   1      61.549  49.492  51.928  0.00  0.00     0.083 A 
ATOM     15  C   UNL d   1      60.159  49.286  53.144  0.00  0.00     0.019 A 
ATOM     16  C   UNL d   1      60.782  49.514  53.622  0.00  0.00     0.002 A 
ATOM     17  C   UNL d   1      61.561  49.692  53.409  0.00  0.00     0.002 A 
ATOM     18  C   UNL d   1      61.902  49.681  52.650  0.00  0.00     0.019 A 
ATOM     19  O   UNL d   1      61.152  49.187  50.422  0.00  0.00    -0.265 OA
ENDBRANCH   2  11
BRANCH   1  20
ATOM     20  S   UNL d   1      60.304  47.599  50.412  0.00  0.00     0.277 S 
ATOM     21  O   UNL d   1      60.606  48.114  49.846  0.00  0.00    -0.199 OA
ATOM     22  O   UNL d   1      59.995  47.087  50.982  0.00  0.00    -0.199 OA
BRANCH  20  23
ATOM     23  C   UNL d   1      60.939  47.081  50.307  0.00  0.00     0.133 A 
ATOM     24  S   UNL d   1      61.529  47.152  49.740  0.00  0.00    -0.074 SA
ATOM     25  C   UNL d   1      62.050  46.521  49.827  0.00  0.00     0.036 A 
ATOM     26  C   UNL d   1      61.780  46.052  50.457  0.00  0.00     0.008 A 
ATOM     27  C   UNL d   1      61.091  46.402  50.751  0.00  0.00     0.020 A 
ENDBRANCH  20  23
ENDBRANCH   1  20
TORSDOF 3
ENDMDL
