MODEL 1
REMARK VINA RESULT:      -3.6      0.000      0.000
REMARK  3 active torsions:
REMARK  status: ('A' for Active; 'I' for Inactive)
REMARK    1  A    between atoms: N_2  and  S_1 
REMARK    2  A    between atoms: C_5  and  S_1 
REMARK    3  A    between atoms: C_4  and  C_3 
ROOT
ATOM      1  C   UNL d   1      57.111  -0.293  31.614  0.00  0.00     0.083 A 
ATOM      2  C   UNL d   1      57.743   0.232  30.437  0.00  0.00     0.104 A 
ATOM      3  C   UNL d   1      57.171  -0.259  30.796  0.00  0.00     0.018 A 
ATOM      4  C   UNL d   1      57.621   0.164  32.091  0.00  0.00     0.062 A 
ATOM      5  C   UNL d   1      58.245   0.682  30.913  0.00  0.00     0.014 A 
ATOM      6  C   UNL d   1      58.185   0.648  31.731  0.00  0.00     0.012 A 
ATOM      7 CL   UNL d   1      57.561   0.130  32.909  0.00  0.00    -0.082 Cl
ENDROOT
BRANCH   2   8
ATOM      8  S   UNL d   1      57.803   0.266  29.614  0.00  0.00     0.272 S 
ATOM      9  O   UNL d   1      57.103   0.682  29.580  0.00  0.00    -0.200 OA
ATOM     10  O   UNL d   1      57.864   0.301  28.774  0.00  0.00    -0.200 OA
BRANCH   8  11
ATOM     11  N   UNL d   1      58.537  -0.169  29.650  0.00  0.00    -0.225 N 
ATOM     12  C   UNL d   1      59.265   0.247  29.775  0.00  0.00     0.116 A 
ATOM     13  C   UNL d   1      59.971  -0.172  29.809  0.00  0.00     0.118 A 
ATOM     14  C   UNL d   1      60.689   0.227  29.931  0.00  0.00     0.028 C 
ATOM     15  O   UNL d   1      59.962  -1.016  29.720  0.00  0.00    -0.304 OA
ATOM     16  C   UNL d   1      59.244  -1.413  29.598  0.00  0.00     0.118 A 
ATOM     17  C   UNL d   1      58.539  -0.994  29.564  0.00  0.00     0.116 A 
ATOM     18  C   UNL d   1      59.249  -2.234  29.512  0.00  0.00     0.028 C 
ENDBRANCH   8  11
ENDBRANCH   2   8
BRANCH   1  19
ATOM     19  C   UNL d   1      56.530  -0.791  31.971  0.00  0.00     0.420 C 
ATOM     20  F   UNL d   1      55.949  -1.278  32.327  0.00  0.00    -0.166 F 
ATOM     21  F   UNL d   1      57.009  -1.462  31.860  0.00  0.00    -0.166 F 
ATOM     22  F   UNL d   1      56.040  -0.127  32.089  0.00  0.00    -0.166 F 
ENDBRANCH   1  19
TORSDOF 3
ENDMDL
MODEL 2
REMARK VINA RESULT:      -2.8      0.389      1.130
REMARK  3 active torsions:
REMARK  status: ('A' for Active; 'I' for Inactive)
REMARK    1  A    between atoms: N_2  and  S_1 
REMARK    2  A    between atoms: C_5  and  S_1 
REMARK    3  A    between atoms: C_4  and  C_3 
ROOT
ATOM      1  C   UNL d   1      57.314  -0.138  31.408  0.00  0.00     0.083 A 
ATOM      2  C   UNL d   1      57.972   0.214  30.183  0.00  0.00     0.104 A 
ATOM      3  C   UNL d   1      57.358  -0.179  30.589  0.00  0.00     0.018 A 
ATOM      4  C   UNL d   1      57.883   0.296  31.837  0.00  0.00     0.062 A 
ATOM      5  C   UNL d   1      58.533   0.642  30.612  0.00  0.00     0.014 A 
ATOM      6  C   UNL d   1      58.489   0.682  31.431  0.00  0.00     0.012 A 
ATOM      7 CL   UNL d   1      57.840   0.336  32.656  0.00  0.00    -0.082 Cl
ENDROOT
BRANCH   2   8
ATOM      8  S   UNL d   1      58.016   0.174  29.359  0.00  0.00     0.272 S 
ATOM      9  O   UNL d   1      57.382   0.682  29.300  0.00  0.00    -0.200 OA
ATOM     10  O   UNL d   1      58.061   0.132  28.518  0.00  0.00    -0.200 OA
BRANCH   8  11
ATOM     11  N   UNL d   1      58.681  -0.359  29.421  0.00  0.00    -0.225 N 
ATOM     12  C   UNL d   1      58.551  -1.197  29.389  0.00  0.00     0.116 A 
ATOM     13  C   UNL d   1      59.190  -1.709  29.448  0.00  0.00     0.118 A 
ATOM     14  C   UNL d   1      59.072  -2.531  29.418  0.00  0.00     0.028 C 
ATOM     15  O   UNL d   1      59.972  -1.394  29.541  0.00  0.00    -0.304 OA
ATOM     16  C   UNL d   1      60.089  -0.573  29.571  0.00  0.00     0.118 A 
ATOM     17  C   UNL d   1      59.450  -0.061  29.511  0.00  0.00     0.116 A 
ATOM     18  C   UNL d   1      60.855  -0.279  29.661  0.00  0.00     0.028 C 
ENDBRANCH   8  11
ENDBRANCH   2   8
BRANCH   1  19
ATOM     19  C   UNL d   1      56.691  -0.537  31.814  0.00  0.00     0.420 C 
ATOM     20  F   UNL d   1      56.067  -0.925  32.217  0.00  0.00    -0.166 F 
ATOM     21  F   UNL d   1      57.117  -1.250  31.811  0.00  0.00    -0.166 F 
ATOM     22  F   UNL d   1      56.251   0.172  31.825  0.00  0.00    -0.166 F 
ENDBRANCH   1  19
TORSDOF 3
ENDMDL
MODEL 3
REMARK VINA RESULT:      -1.9      2.108      3.224
REMARK  3 active torsions:
REMARK  status: ('A' for Active; 'I' for Inactive)
REMARK    1  A    between atoms: N_2  and  S_1 
REMARK    2  A    between atoms: C_5  and  S_1 
REMARK    3  A    between atoms: C_4  and  C_3 
ROOT
ATOM      1  C   UNL d   1      59.161  -1.900  29.231  0.00  0.00     0.083 A 
ATOM      2  C   UNL d   1      58.799  -0.512  29.273  0.00  0.00     0.104 A 
ATOM      3  C   UNL d   1      58.583  -1.317  29.228  0.00  0.00     0.018 A 
ATOM      4  C   UNL d   1      59.968  -1.689  29.279  0.00  0.00     0.062 A 
ATOM      5  C   UNL d   1      59.597  -0.309  29.321  0.00  0.00     0.014 A 
ATOM      6  C   UNL d   1      60.176  -0.892  29.324  0.00  0.00     0.012 A 
ATOM      7 CL   UNL d   1      60.546  -2.272  29.282  0.00  0.00    -0.082 Cl
ENDROOT
BRANCH   2   8
ATOM      8  S   UNL d   1      58.217   0.074  29.270  0.00  0.00     0.272 S 
ATOM      9  O   UNL d   1      58.236   0.089  28.456  0.00  0.00    -0.200 OA
ATOM     10  O   UNL d   1      57.623   0.672  29.267  0.00  0.00    -0.200 OA
BRANCH   8  11
ATOM     11  N   UNL d   1      58.196   0.058  30.124  0.00  0.00    -0.225 N 
ATOM     12  C   UNL d   1      57.531  -0.288  30.521  0.00  0.00     0.116 A 
ATOM     13  C   UNL d   1      57.511  -0.303  31.341  0.00  0.00     0.118 A 
ATOM     14  C   UNL d   1      56.865  -0.640  31.739  0.00  0.00     0.028 C 
ATOM     15  O   UNL d   1      58.157   0.027  31.782  0.00  0.00    -0.304 OA
ATOM     16  C   UNL d   1      58.803   0.364  31.385  0.00  0.00     0.118 A 
ATOM     17  C   UNL d   1      58.822   0.379  30.564  0.00  0.00     0.116 A 
ATOM     18  C   UNL d   1      59.424   0.682  31.825  0.00  0.00     0.028 C 
ENDBRANCH   8  11
ENDBRANCH   2   8
BRANCH   1  19
ATOM     19  C   UNL d   1      58.938  -2.713  29.185  0.00  0.00     0.420 C 
ATOM     20  F   UNL d   1      58.721  -3.521  29.148  0.00  0.00    -0.166 F 
ATOM     21  F   UNL d   1      58.465  -2.566  28.518  0.00  0.00    -0.166 F 
ATOM     22  F   UNL d   1      59.408  -2.874  29.856  0.00  0.00    -0.166 F 
ENDBRANCH   1  19
TORSDOF 3
ENDMDL
MODEL 4
REMARK VINA RESULT:      -1.9      8.606      9.535
REMARK  3 active torsions:
REMARK  status: ('A' for Active; 'I' for Inactive)
REMARK    1  A    between atoms: N_2  and  S_1 
REMARK    2  A    between atoms: C_5  and  S_1 
REMARK    3  A    between atoms: C_4  and  C_3 
ROOT
ATOM      1  C   UNL d   1      60.091  -7.021  35.708  0.00  0.00     0.083 A 
ATOM      2  C   UNL d   1      60.213  -8.451  35.694  0.00  0.00     0.104 A 
ATOM      3  C   UNL d   1      60.543  -7.694  35.577  0.00  0.00     0.018 A 
ATOM      4  C   UNL d   1      59.297  -7.093  35.958  0.00  0.00     0.062 A 
ATOM      5  C   UNL d   1      59.428  -8.516  35.941  0.00  0.00     0.014 A 
ATOM      6  C   UNL d   1      58.975  -7.844  36.072  0.00  0.00     0.012 A 
ATOM      7 CL   UNL d   1      58.844  -6.421  36.089  0.00  0.00    -0.082 Cl
ENDROOT
BRANCH   2   8
ATOM      8  S   UNL d   1      60.668  -9.127  35.562  0.00  0.00     0.272 S 
ATOM      9  O   UNL d   1      60.941  -9.093  36.330  0.00  0.00    -0.200 OA
ATOM     10  O   UNL d   1      61.133  -9.817  35.428  0.00  0.00    -0.200 OA
BRANCH   8  11
ATOM     11  N   UNL d   1      60.383  -9.163  34.758  0.00  0.00    -0.225 N 
ATOM     12  C   UNL d   1      60.899  -8.946  34.120  0.00  0.00     0.116 A 
ATOM     13  C   UNL d   1      60.625  -8.980  33.347  0.00  0.00     0.118 A 
ATOM     14  C   UNL d   1      61.122  -8.770  32.716  0.00  0.00     0.028 C 
ATOM     15  O   UNL d   1      59.829  -9.233  33.196  0.00  0.00    -0.304 OA
ATOM     16  C   UNL d   1      59.332  -9.443  33.827  0.00  0.00     0.118 A 
ATOM     17  C   UNL d   1      59.607  -9.409  34.600  0.00  0.00     0.116 A 
ATOM     18  C   UNL d   1      58.560  -9.687  33.666  0.00  0.00     0.028 C 
ENDBRANCH   8  11
ENDBRANCH   2   8
BRANCH   1  19
ATOM     19  C   UNL d   1      60.430  -6.258  35.588  0.00  0.00     0.420 C 
ATOM     20  F   UNL d   1      60.772  -5.502  35.477  0.00  0.00    -0.166 F 
ATOM     21  F   UNL d   1      59.933  -6.116  34.938  0.00  0.00    -0.166 F 
ATOM     22  F   UNL d   1      60.936  -6.387  36.239  0.00  0.00    -0.166 F 
ENDBRANCH   1  19
TORSDOF 3
ENDMDL
MODEL 5
REMARK VINA RESULT:      -1.7      1.992      3.017
REMARK  3 active torsions:
REMARK  status: ('A' for Active; 'I' for Inactive)
REMARK    1  A    between atoms: N_2  and  S_1 
REMARK    2  A    between atoms: C_5  and  S_1 
REMARK    3  A    between atoms: C_4  and  C_3 
ROOT
ATOM      1  C   UNL d   1      58.997  -2.054  29.283  0.00  0.00     0.083 A 
ATOM      2  C   UNL d   1      58.792  -0.634  29.268  0.00  0.00     0.104 A 
ATOM      3  C   UNL d   1      58.486  -1.410  29.284  0.00  0.00     0.018 A 
ATOM      4  C   UNL d   1      59.823  -1.934  29.266  0.00  0.00     0.062 A 
ATOM      5  C   UNL d   1      59.609  -0.520  29.252  0.00  0.00     0.014 A 
ATOM      6  C   UNL d   1      60.119  -1.164  29.251  0.00  0.00     0.012 A 
ATOM      7 CL   UNL d   1      60.333  -2.577  29.265  0.00  0.00    -0.082 Cl
ENDROOT
BRANCH   2   8
ATOM      8  S   UNL d   1      58.278   0.014  29.269  0.00  0.00     0.272 S 
ATOM      9  O   UNL d   1      58.305   0.036  28.455  0.00  0.00    -0.200 OA
ATOM     10  O   UNL d   1      57.755   0.674  29.271  0.00  0.00    -0.200 OA
BRANCH   8  11
ATOM     11  N   UNL d   1      58.250  -0.010  30.123  0.00  0.00    -0.225 N 
ATOM     12  C   UNL d   1      58.872   0.353  30.572  0.00  0.00     0.116 A 
ATOM     13  C   UNL d   1      58.845   0.330  31.393  0.00  0.00     0.118 A 
ATOM     14  C   UNL d   1      59.449   0.682  31.842  0.00  0.00     0.028 C 
ATOM     15  O   UNL d   1      58.196  -0.056  31.780  0.00  0.00    -0.304 OA
ATOM     16  C   UNL d   1      57.593  -0.407  31.331  0.00  0.00     0.118 A 
ATOM     17  C   UNL d   1      57.620  -0.384  30.511  0.00  0.00     0.116 A 
ATOM     18  C   UNL d   1      56.967  -0.779  31.720  0.00  0.00     0.028 C 
ENDBRANCH   8  11
ENDBRANCH   2   8
BRANCH   1  19
ATOM     19  C   UNL d   1      58.683  -2.837  29.299  0.00  0.00     0.420 C 
ATOM     20  F   UNL d   1      58.370  -3.614  29.305  0.00  0.00    -0.166 F 
ATOM     21  F   UNL d   1      58.847  -2.909  30.110  0.00  0.00    -0.166 F 
ATOM     22  F   UNL d   1      58.512  -2.780  28.484  0.00  0.00    -0.166 F 
ENDBRANCH   1  19
TORSDOF 3
ENDMDL
MODEL 6
REMARK VINA RESULT:      -1.0      1.386      1.958
REMARK  3 active torsions:
REMARK  status: ('A' for Active; 'I' for Inactive)
REMARK    1  A    between atoms: N_2  and  S_1 
REMARK    2  A    between atoms: C_5  and  S_1 
REMARK    3  A    between atoms: C_4  and  C_3 
ROOT
ATOM      1  C   UNL d   1      56.668  -0.515  32.379  0.00  0.00     0.083 A 
ATOM      2  C   UNL d   1      57.674   0.214  31.661  0.00  0.00     0.104 A 
ATOM      3  C   UNL d   1      57.459  -0.385  32.202  0.00  0.00     0.018 A 
ATOM      4  C   UNL d   1      56.076  -0.049  32.020  0.00  0.00     0.062 A 
ATOM      5  C   UNL d   1      57.085   0.671  31.309  0.00  0.00     0.014 A 
ATOM      6  C   UNL d   1      56.294   0.541  31.486  0.00  0.00     0.012 A 
ATOM      7 CL   UNL d   1      55.285  -0.179  32.197  0.00  0.00    -0.082 Cl
ENDROOT
BRANCH   2   8
ATOM      8  S   UNL d   1      58.470   0.344  31.483  0.00  0.00     0.272 S 
ATOM      9  O   UNL d   1      58.586   0.654  32.228  0.00  0.00    -0.200 OA
ATOM     10  O   UNL d   1      59.282   0.477  31.301  0.00  0.00    -0.200 OA
BRANCH   8  11
ATOM     11  N   UNL d   1      58.348   0.019  30.702  0.00  0.00    -0.225 N 
ATOM     12  C   UNL d   1      58.484  -0.807  30.567  0.00  0.00     0.116 A 
ATOM     13  C   UNL d   1      58.367  -1.120  29.816  0.00  0.00     0.118 A 
ATOM     14  C   UNL d   1      58.497  -1.927  29.674  0.00  0.00     0.028 C 
ATOM     15  O   UNL d   1      58.111  -0.612  29.186  0.00  0.00    -0.304 OA
ATOM     16  C   UNL d   1      57.982   0.195  29.329  0.00  0.00     0.118 A 
ATOM     17  C   UNL d   1      58.099   0.507  30.080  0.00  0.00     0.116 A 
ATOM     18  C   UNL d   1      57.734   0.679  28.708  0.00  0.00     0.028 C 
ENDBRANCH   8  11
ENDBRANCH   2   8
BRANCH   1  19
ATOM     19  C   UNL d   1      56.455  -1.121  32.927  0.00  0.00     0.420 C 
ATOM     20  F   UNL d   1      56.247  -1.717  33.478  0.00  0.00    -0.166 F 
ATOM     21  F   UNL d   1      56.254  -1.638  32.308  0.00  0.00    -0.166 F 
ATOM     22  F   UNL d   1      56.654  -0.613  33.559  0.00  0.00    -0.166 F 
ENDBRANCH   1  19
TORSDOF 3
ENDMDL
MODEL 7
REMARK VINA RESULT:      -0.7      2.587      3.737
REMARK  3 active torsions:
REMARK  status: ('A' for Active; 'I' for Inactive)
REMARK    1  A    between atoms: N_2  and  S_1 
REMARK    2  A    between atoms: C_5  and  S_1 
REMARK    3  A    between atoms: C_4  and  C_3 
ROOT
ATOM      1  C   UNL d   1      60.183  -2.313  29.209  0.00  0.00     0.083 A 
ATOM      2  C   UNL d   1      60.132  -0.920  28.868  0.00  0.00     0.104 A 
ATOM      3  C   UNL d   1      60.518  -1.564  29.234  0.00  0.00     0.018 A 
ATOM      4  C   UNL d   1      59.456  -2.434  28.819  0.00  0.00     0.062 A 
ATOM      5  C   UNL d   1      59.413  -1.045  28.483  0.00  0.00     0.014 A 
ATOM      6  C   UNL d   1      59.078  -1.794  28.459  0.00  0.00     0.012 A 
ATOM      7 CL   UNL d   1      59.121  -3.183  28.794  0.00  0.00    -0.082 Cl
ENDROOT
BRANCH   2   8
ATOM      8  S   UNL d   1      60.469  -0.166  28.893  0.00  0.00     0.272 S 
ATOM      9  O   UNL d   1      61.102  -0.435  28.455  0.00  0.00    -0.200 OA
ATOM     10  O   UNL d   1      60.813   0.603  28.919  0.00  0.00    -0.200 OA
BRANCH   8  11
ATOM     11  N   UNL d   1      59.806   0.115  29.352  0.00  0.00    -0.225 N 
ATOM     12  C   UNL d   1      59.898   0.242  30.186  0.00  0.00     0.116 A 
ATOM     13  C   UNL d   1      59.261   0.512  30.628  0.00  0.00     0.118 A 
ATOM     14  C   UNL d   1      59.341   0.640  31.444  0.00  0.00     0.028 C 
ATOM     15  O   UNL d   1      58.519   0.661  30.244  0.00  0.00    -0.304 OA
ATOM     16  C   UNL d   1      58.439   0.533  29.428  0.00  0.00     0.118 A 
ATOM     17  C   UNL d   1      59.077   0.263  28.987  0.00  0.00     0.116 A 
ATOM     18  C   UNL d   1      57.712   0.682  29.067  0.00  0.00     0.028 C 
ENDBRANCH   8  11
ENDBRANCH   2   8
BRANCH   1  19
ATOM     19  C   UNL d   1      60.577  -2.961  29.581  0.00  0.00     0.420 C 
ATOM     20  F   UNL d   1      60.963  -3.602  29.957  0.00  0.00    -0.166 F 
ATOM     21  F   UNL d   1      61.051  -3.084  28.910  0.00  0.00    -0.166 F 
ATOM     22  F   UNL d   1      60.108  -2.848  30.262  0.00  0.00    -0.166 F 
ENDBRANCH   1  19
TORSDOF 3
ENDMDL
