MODEL 1
REMARK VINA RESULT:      -7.6      0.000      0.000
REMARK  5 active torsions:
REMARK  status: ('A' for Active; 'I' for Inactive)
REMARK       I    between atoms: N_2  and  C_1 
REMARK    1  A    between atoms: C_4  and  C_1 
REMARK    2  A    between atoms: C_3  and  N_2 
REMARK    3  A    between atoms: N_5  and  C_3 
REMARK    4  A    between atoms: C_7  and  N_5 
REMARK    5  A    between atoms: O_14  and  C_11 
ROOT
ATOM      1  C   UNL d   1      52.903  33.140  53.210  0.00  0.00     0.283 C 
ATOM      2  N   UNL d   1      52.843  32.399  53.563  0.00  0.00    -0.179 NA
ATOM      3  O   UNL d   1      53.631  33.387  52.908  0.00  0.00    -0.265 OA
ENDROOT
BRANCH   2   4
ATOM      4  C   UNL d   1      53.493  31.904  53.621  0.00  0.00     0.224 C 
ATOM      5  S   UNL d   1      54.137  32.124  54.103  0.00  0.00    -0.037 SA
BRANCH   4   6
ATOM      6  N   UNL d   1      53.528  31.189  53.210  0.00  0.00    -0.215 NA
BRANCH   6   7
ATOM      7  C   UNL d   1      53.344  30.477  53.582  0.00  0.00     0.112 A 
ATOM      8  C   UNL d   1      52.995  29.856  53.149  0.00  0.00     0.156 A 
ATOM      9  N   UNL d   1      52.812  29.145  53.522  0.00  0.00    -0.231 NA
ATOM     10 CL   UNL d   1      52.834  29.958  52.340  0.00  0.00    -0.060 Cl
ATOM     11  C   UNL d   1      52.974  29.048  54.324  0.00  0.00     0.100 A 
ATOM     12  C   UNL d   1      53.319  29.663  54.753  0.00  0.00     0.022 A 
ATOM     13  C   UNL d   1      53.506  30.381  54.385  0.00  0.00     0.023 A 
ENDBRANCH   6   7
ENDBRANCH   4   6
ENDBRANCH   2   4
BRANCH   1  14
ATOM     14  C   UNL d   1      52.245  33.633  53.156  0.00  0.00     0.080 A 
ATOM     15  C   UNL d   1      52.265  34.381  53.500  0.00  0.00     0.099 A 
ATOM     16  C   UNL d   1      51.606  34.874  53.446  0.00  0.00     0.024 A 
ATOM     17  C   UNL d   1      50.927  34.614  53.046  0.00  0.00     0.002 A 
ATOM     18  C   UNL d   1      50.916  33.860  52.703  0.00  0.00     0.000 A 
ATOM     19  C   UNL d   1      51.574  33.367  52.757  0.00  0.00     0.007 A 
BRANCH  15  20
ATOM     20  O   UNL d   1      52.939  34.636  53.895  0.00  0.00    -0.328 OA
ATOM     21  C   UNL d   1      52.951  35.377  54.255  0.00  0.00     0.181 C 
ENDBRANCH  15  20
ENDBRANCH   1  14
TORSDOF 5
ENDMDL
MODEL 2
REMARK VINA RESULT:      -7.4      2.253      3.783
REMARK  5 active torsions:
REMARK  status: ('A' for Active; 'I' for Inactive)
REMARK       I    between atoms: N_2  and  C_1 
REMARK    1  A    between atoms: C_4  and  C_1 
REMARK    2  A    between atoms: C_3  and  N_2 
REMARK    3  A    between atoms: N_5  and  C_3 
REMARK    4  A    between atoms: C_7  and  N_5 
REMARK    5  A    between atoms: O_14  and  C_11 
ROOT
ATOM      1  C   UNL d   1      53.708  32.527  53.836  0.00  0.00     0.283 C 
ATOM      2  N   UNL d   1      52.984  32.864  53.638  0.00  0.00    -0.179 NA
ATOM      3  O   UNL d   1      53.933  31.813  53.487  0.00  0.00    -0.265 OA
ENDROOT
BRANCH   2   4
ATOM      4  C   UNL d   1      52.483  32.502  53.099  0.00  0.00     0.224 C 
ATOM      5  S   UNL d   1      52.321  31.687  53.172  0.00  0.00    -0.037 SA
BRANCH   4   6
ATOM      6  N   UNL d   1      52.132  32.927  52.484  0.00  0.00    -0.215 NA
BRANCH   6   7
ATOM      7  C   UNL d   1      51.470  33.398  52.618  0.00  0.00     0.112 A 
ATOM      8  C   UNL d   1      51.352  34.090  52.168  0.00  0.00     0.156 A 
ATOM      9  N   UNL d   1      50.690  34.561  52.303  0.00  0.00    -0.231 NA
ATOM     10 CL   UNL d   1      51.905  34.302  51.585  0.00  0.00    -0.060 Cl
ATOM     11  C   UNL d   1      50.144  34.348  52.882  0.00  0.00     0.100 A 
ATOM     12  C   UNL d   1      50.261  33.662  53.327  0.00  0.00     0.022 A 
ATOM     13  C   UNL d   1      50.925  33.184  53.198  0.00  0.00     0.023 A 
ENDBRANCH   6   7
ENDBRANCH   4   6
ENDBRANCH   2   4
BRANCH   1  14
ATOM     14  C   UNL d   1      54.207  32.897  54.378  0.00  0.00     0.080 A 
ATOM     15  C   UNL d   1      54.934  33.195  54.129  0.00  0.00     0.099 A 
ATOM     16  C   UNL d   1      55.432  33.564  54.671  0.00  0.00     0.024 A 
ATOM     17  C   UNL d   1      55.199  33.634  55.465  0.00  0.00     0.002 A 
ATOM     18  C   UNL d   1      54.467  33.332  55.707  0.00  0.00     0.000 A 
ATOM     19  C   UNL d   1      53.969  32.962  55.165  0.00  0.00     0.007 A 
BRANCH  15  20
ATOM     20  O   UNL d   1      55.161  33.124  53.343  0.00  0.00    -0.328 OA
ATOM     21  C   UNL d   1      55.901  33.392  53.101  0.00  0.00     0.181 C 
ENDBRANCH  15  20
ENDBRANCH   1  14
TORSDOF 5
ENDMDL
MODEL 3
REMARK VINA RESULT:      -7.0      2.235      4.350
REMARK  5 active torsions:
REMARK  status: ('A' for Active; 'I' for Inactive)
REMARK       I    between atoms: N_2  and  C_1 
REMARK    1  A    between atoms: C_4  and  C_1 
REMARK    2  A    between atoms: C_3  and  N_2 
REMARK    3  A    between atoms: N_5  and  C_3 
REMARK    4  A    between atoms: C_7  and  N_5 
REMARK    5  A    between atoms: O_14  and  C_11 
ROOT
ATOM      1  C   UNL d   1      52.731  33.070  53.130  0.00  0.00     0.283 C 
ATOM      2  N   UNL d   1      51.965  33.212  52.865  0.00  0.00    -0.179 NA
ATOM      3  O   UNL d   1      53.251  33.705  53.226  0.00  0.00    -0.265 OA
ENDROOT
BRANCH   2   4
ATOM      4  C   UNL d   1      51.710  33.972  52.694  0.00  0.00     0.224 C 
ATOM      5  S   UNL d   1      52.170  34.458  52.196  0.00  0.00    -0.037 SA
BRANCH   4   6
ATOM      6  N   UNL d   1      51.006  34.271  53.005  0.00  0.00    -0.215 NA
BRANCH   6   7
ATOM      7  C   UNL d   1      50.349  34.393  52.523  0.00  0.00     0.112 A 
ATOM      8  C   UNL d   1      49.680  34.791  52.822  0.00  0.00     0.156 A 
ATOM      9  N   UNL d   1      49.023  34.913  52.340  0.00  0.00    -0.231 NA
ATOM     10 CL   UNL d   1      49.679  35.063  53.607  0.00  0.00    -0.060 Cl
ATOM     11  C   UNL d   1      49.028  34.642  51.562  0.00  0.00     0.100 A 
ATOM     12  C   UNL d   1      49.691  34.248  51.266  0.00  0.00     0.022 A 
ATOM     13  C   UNL d   1      50.355  34.122  51.745  0.00  0.00     0.023 A 
ENDBRANCH   6   7
ENDBRANCH   4   6
ENDBRANCH   2   4
BRANCH   1  14
ATOM     14  C   UNL d   1      52.980  32.303  53.300  0.00  0.00     0.080 A 
ATOM     15  C   UNL d   1      53.454  32.162  53.958  0.00  0.00     0.099 A 
ATOM     16  C   UNL d   1      53.703  31.396  54.128  0.00  0.00     0.024 A 
ATOM     17  C   UNL d   1      53.474  30.769  53.634  0.00  0.00     0.002 A 
ATOM     18  C   UNL d   1      52.997  30.919  52.973  0.00  0.00     0.000 A 
ATOM     19  C   UNL d   1      52.748  31.686  52.804  0.00  0.00     0.007 A 
BRANCH  15  20
ATOM     20  O   UNL d   1      53.678  32.786  54.445  0.00  0.00    -0.328 OA
ATOM     21  C   UNL d   1      54.089  32.636  55.144  0.00  0.00     0.181 C 
ENDBRANCH  15  20
ENDBRANCH   1  14
TORSDOF 5
ENDMDL
MODEL 4
REMARK VINA RESULT:      -6.9      2.062      2.731
REMARK  5 active torsions:
REMARK  status: ('A' for Active; 'I' for Inactive)
REMARK       I    between atoms: N_2  and  C_1 
REMARK    1  A    between atoms: C_4  and  C_1 
REMARK    2  A    between atoms: C_3  and  N_2 
REMARK    3  A    between atoms: N_5  and  C_3 
REMARK    4  A    between atoms: C_7  and  N_5 
REMARK    5  A    between atoms: O_14  and  C_11 
ROOT
ATOM      1  C   UNL d   1      52.300  32.650  53.006  0.00  0.00     0.283 C 
ATOM      2  N   UNL d   1      52.792  32.681  53.664  0.00  0.00    -0.179 NA
ATOM      3  O   UNL d   1      52.472  32.121  52.395  0.00  0.00    -0.265 OA
ENDROOT
BRANCH   2   4
ATOM      4  C   UNL d   1      53.450  32.196  53.723  0.00  0.00     0.224 C 
ATOM      5  S   UNL d   1      53.348  31.371  53.788  0.00  0.00    -0.037 SA
BRANCH   4   6
ATOM      6  N   UNL d   1      54.216  32.505  53.720  0.00  0.00    -0.215 NA
BRANCH   6   7
ATOM      7  C   UNL d   1      54.508  32.918  54.370  0.00  0.00     0.112 A 
ATOM      8  C   UNL d   1      55.161  33.430  54.280  0.00  0.00     0.156 A 
ATOM      9  N   UNL d   1      55.453  33.843  54.930  0.00  0.00    -0.231 NA
ATOM     10 CL   UNL d   1      55.515  33.520  53.534  0.00  0.00    -0.060 Cl
ATOM     11  C   UNL d   1      55.100  33.750  55.669  0.00  0.00     0.100 A 
ATOM     12  C   UNL d   1      54.453  33.244  55.757  0.00  0.00     0.022 A 
ATOM     13  C   UNL d   1      54.154  32.826  55.108  0.00  0.00     0.023 A 
ENDBRANCH   6   7
ENDBRANCH   4   6
ENDBRANCH   2   4
BRANCH   1  14
ATOM     14  C   UNL d   1      51.640  33.141  52.954  0.00  0.00     0.080 A 
ATOM     15  C   UNL d   1      51.650  33.788  52.444  0.00  0.00     0.099 A 
ATOM     16  C   UNL d   1      50.990  34.279  52.392  0.00  0.00     0.024 A 
ATOM     17  C   UNL d   1      50.319  34.119  52.853  0.00  0.00     0.002 A 
ATOM     18  C   UNL d   1      50.317  33.466  53.363  0.00  0.00     0.000 A 
ATOM     19  C   UNL d   1      50.977  32.975  53.415  0.00  0.00     0.007 A 
BRANCH  15  20
ATOM     20  O   UNL d   1      52.317  33.944  51.989  0.00  0.00    -0.328 OA
ATOM     21  C   UNL d   1      52.382  34.658  51.583  0.00  0.00     0.181 C 
ENDBRANCH  15  20
ENDBRANCH   1  14
TORSDOF 5
ENDMDL
MODEL 5
REMARK VINA RESULT:      -6.9      0.827      1.012
REMARK  5 active torsions:
REMARK  status: ('A' for Active; 'I' for Inactive)
REMARK       I    between atoms: N_2  and  C_1 
REMARK    1  A    between atoms: C_4  and  C_1 
REMARK    2  A    between atoms: C_3  and  N_2 
REMARK    3  A    between atoms: N_5  and  C_3 
REMARK    4  A    between atoms: C_7  and  N_5 
REMARK    5  A    between atoms: O_14  and  C_11 
ROOT
ATOM      1  C   UNL d   1      53.165  33.195  53.392  0.00  0.00     0.283 C 
ATOM      2  N   UNL d   1      53.028  32.384  53.426  0.00  0.00    -0.179 NA
ATOM      3  O   UNL d   1      53.932  33.481  53.505  0.00  0.00    -0.265 OA
ENDROOT
BRANCH   2   4
ATOM      4  C   UNL d   1      53.639  31.857  53.570  0.00  0.00     0.224 C 
ATOM      5  S   UNL d   1      54.367  31.954  53.174  0.00  0.00    -0.037 SA
BRANCH   4   6
ATOM      6  N   UNL d   1      53.551  31.230  54.098  0.00  0.00    -0.215 NA
BRANCH   6   7
ATOM      7  C   UNL d   1      53.284  30.494  53.842  0.00  0.00     0.112 A 
ATOM      8  C   UNL d   1      53.186  29.871  54.388  0.00  0.00     0.156 A 
ATOM      9  N   UNL d   1      52.919  29.136  54.130  0.00  0.00    -0.231 NA
ATOM     10 CL   UNL d   1      53.358  29.996  55.191  0.00  0.00    -0.060 Cl
ATOM     11  C   UNL d   1      52.749  29.016  53.333  0.00  0.00     0.100 A 
ATOM     12  C   UNL d   1      52.847  29.632  52.793  0.00  0.00     0.022 A 
ATOM     13  C   UNL d   1      53.115  30.374  53.044  0.00  0.00     0.023 A 
ENDBRANCH   6   7
ENDBRANCH   4   6
ENDBRANCH   2   4
BRANCH   1  14
ATOM     14  C   UNL d   1      52.546  33.719  53.248  0.00  0.00     0.080 A 
ATOM     15  C   UNL d   1      52.443  34.376  53.735  0.00  0.00     0.099 A 
ATOM     16  C   UNL d   1      51.823  34.900  53.590  0.00  0.00     0.024 A 
ATOM     17  C   UNL d   1      51.307  34.763  52.955  0.00  0.00     0.002 A 
ATOM     18  C   UNL d   1      51.417  34.100  52.470  0.00  0.00     0.000 A 
ATOM     19  C   UNL d   1      52.037  33.576  52.615  0.00  0.00     0.007 A 
BRANCH  15  20
ATOM     20  O   UNL d   1      52.956  34.508  54.363  0.00  0.00    -0.328 OA
ATOM     21  C   UNL d   1      52.893  35.197  54.810  0.00  0.00     0.181 C 
ENDBRANCH  15  20
ENDBRANCH   1  14
TORSDOF 5
ENDMDL
MODEL 6
REMARK VINA RESULT:      -6.8      1.762      4.329
REMARK  5 active torsions:
REMARK  status: ('A' for Active; 'I' for Inactive)
REMARK       I    between atoms: N_2  and  C_1 
REMARK    1  A    between atoms: C_4  and  C_1 
REMARK    2  A    between atoms: C_3  and  N_2 
REMARK    3  A    between atoms: N_5  and  C_3 
REMARK    4  A    between atoms: C_7  and  N_5 
REMARK    5  A    between atoms: O_14  and  C_11 
ROOT
ATOM      1  C   UNL d   1      53.815  31.376  53.716  0.00  0.00     0.283 C 
ATOM      2  N   UNL d   1      53.527  32.078  54.034  0.00  0.00    -0.179 NA
ATOM      3  O   UNL d   1      54.385  31.406  53.118  0.00  0.00    -0.265 OA
ENDROOT
BRANCH   2   4
ATOM      4  C   UNL d   1      53.795  32.805  53.768  0.00  0.00     0.224 C 
ATOM      5  S   UNL d   1      54.603  32.998  53.845  0.00  0.00    -0.037 SA
BRANCH   4   6
ATOM      6  N   UNL d   1      53.284  33.354  53.423  0.00  0.00    -0.215 NA
BRANCH   6   7
ATOM      7  C   UNL d   1      53.090  34.054  53.811  0.00  0.00     0.112 A 
ATOM      8  C   UNL d   1      52.560  34.594  53.461  0.00  0.00     0.156 A 
ATOM      9  N   UNL d   1      52.367  35.294  53.849  0.00  0.00    -0.231 NA
ATOM     10 CL   UNL d   1      52.228  34.422  52.718  0.00  0.00    -0.060 Cl
ATOM     11  C   UNL d   1      52.698  35.460  54.585  0.00  0.00     0.100 A 
ATOM     12  C   UNL d   1      53.223  34.926  54.932  0.00  0.00     0.022 A 
ATOM     13  C   UNL d   1      53.422  34.220  54.547  0.00  0.00     0.023 A 
ENDBRANCH   6   7
ENDBRANCH   4   6
ENDBRANCH   2   4
BRANCH   1  14
ATOM     14  C   UNL d   1      53.540  30.649  53.988  0.00  0.00     0.080 A 
ATOM     15  C   UNL d   1      53.189  30.120  53.463  0.00  0.00     0.099 A 
ATOM     16  C   UNL d   1      52.914  29.393  53.735  0.00  0.00     0.024 A 
ATOM     17  C   UNL d   1      52.993  29.197  54.538  0.00  0.00     0.002 A 
ATOM     18  C   UNL d   1      53.347  29.734  55.060  0.00  0.00     0.000 A 
ATOM     19  C   UNL d   1      53.621  30.461  54.788  0.00  0.00     0.007 A 
BRANCH  15  20
ATOM     20  O   UNL d   1      53.114  30.318  52.668  0.00  0.00    -0.328 OA
ATOM     21  C   UNL d   1      52.781  29.781  52.139  0.00  0.00     0.181 C 
ENDBRANCH  15  20
ENDBRANCH   1  14
TORSDOF 5
ENDMDL
