MODEL 1
REMARK VINA RESULT:      -7.8      0.000      0.000
REMARK  5 active torsions:
REMARK  status: ('A' for Active; 'I' for Inactive)
REMARK    1  A    between atoms: C_2  and  C_3 
REMARK    2  A    between atoms: N_4  and  C_2 
REMARK    3  A    between atoms: C_10  and  N_4 
REMARK    4  A    between atoms: O_16  and  C_11 
REMARK    5  A    between atoms: C_19  and  O_16 
ROOT
ATOM      1  C   UNL d   1     -48.118  13.352  22.477  0.00  0.00     0.153 C 
ATOM      2  S   UNL d   1     -48.002  12.820  21.854  0.00  0.00    -0.056 SA
ENDROOT
BRANCH   1   3
ATOM      3  C   UNL d   1     -48.838  13.749  22.542  0.00  0.00     0.109 A 
ATOM      4  N   UNL d   1     -48.904  14.415  23.034  0.00  0.00    -0.243 NA
ATOM      5  C   UNL d   1     -49.624  14.813  23.099  0.00  0.00     0.081 A 
ATOM      6  C   UNL d   1     -50.281  14.549  22.674  0.00  0.00     0.018 A 
ATOM      7  C   UNL d   1     -49.686  15.473  23.588  0.00  0.00     0.019 A 
ATOM      8  C   UNL d   1     -50.226  13.886  22.179  0.00  0.00     0.003 A 
ATOM      9  C   UNL d   1     -51.001  14.946  22.738  0.00  0.00     0.002 A 
ATOM     10  C   UNL d   1     -49.502  13.483  22.112  0.00  0.00     0.021 A 
ATOM     11  C   UNL d   1     -51.063  15.607  23.228  0.00  0.00     0.000 A 
ATOM     12  C   UNL d   1     -50.406  15.870  23.653  0.00  0.00     0.002 A 
ENDBRANCH   1   3
BRANCH   1  13
ATOM     13  N   UNL d   1     -47.520  13.486  23.031  0.00  0.00    -0.233 NA
BRANCH  13  14
ATOM     14  C   UNL d   1     -46.886  12.957  23.091  0.00  0.00     0.083 A 
ATOM     15  C   UNL d   1     -46.959  12.285  23.566  0.00  0.00     0.021 A 
ATOM     16  C   UNL d   1     -46.324  11.762  23.621  0.00  0.00     0.026 A 
ATOM     17  C   UNL d   1     -45.625  11.907  23.208  0.00  0.00     0.100 A 
ATOM     18  C   UNL d   1     -45.561  12.585  22.733  0.00  0.00     0.026 A 
ATOM     19  C   UNL d   1     -46.191  13.110  22.675  0.00  0.00     0.021 A 
BRANCH  17  20
ATOM     20  O   UNL d   1     -44.988  11.377  23.267  0.00  0.00    -0.305 OA
BRANCH  20  21
ATOM     21  C   UNL d   1     -45.085  10.661  23.666  0.00  0.00     0.123 C 
ATOM     22  C   UNL d   1     -44.466  10.120  23.693  0.00  0.00     0.029 C 
ENDBRANCH  20  21
ENDBRANCH  17  20
ENDBRANCH  13  14
ENDBRANCH   1  13
TORSDOF 5
ENDMDL
MODEL 2
REMARK VINA RESULT:      -7.4      0.951      1.251
REMARK  5 active torsions:
REMARK  status: ('A' for Active; 'I' for Inactive)
REMARK    1  A    between atoms: C_2  and  C_3 
REMARK    2  A    between atoms: N_4  and  C_2 
REMARK    3  A    between atoms: C_10  and  N_4 
REMARK    4  A    between atoms: O_16  and  C_11 
REMARK    5  A    between atoms: C_19  and  O_16 
ROOT
ATOM      1  C   UNL d   1     -48.062  13.301  22.737  0.00  0.00     0.153 C 
ATOM      2  S   UNL d   1     -48.007  12.842  22.050  0.00  0.00    -0.056 SA
ENDROOT
BRANCH   1   3
ATOM      3  C   UNL d   1     -48.788  13.631  22.947  0.00  0.00     0.109 A 
ATOM      4  N   UNL d   1     -48.855  14.450  23.069  0.00  0.00    -0.243 NA
ATOM      5  C   UNL d   1     -49.582  14.779  23.279  0.00  0.00     0.081 A 
ATOM      6  C   UNL d   1     -50.245  14.295  23.368  0.00  0.00     0.018 A 
ATOM      7  C   UNL d   1     -49.644  15.592  23.400  0.00  0.00     0.019 A 
ATOM      8  C   UNL d   1     -50.189  13.477  23.248  0.00  0.00     0.003 A 
ATOM      9  C   UNL d   1     -50.971  14.624  23.577  0.00  0.00     0.002 A 
ATOM     10  C   UNL d   1     -49.459  13.141  23.036  0.00  0.00     0.021 A 
ATOM     11  C   UNL d   1     -51.034  15.438  23.698  0.00  0.00     0.000 A 
ATOM     12  C   UNL d   1     -50.370  15.922  23.609  0.00  0.00     0.002 A 
ENDBRANCH   1   3
BRANCH   1  13
ATOM     13  N   UNL d   1     -47.397  13.429  23.211  0.00  0.00    -0.233 NA
BRANCH  13  14
ATOM     14  C   UNL d   1     -46.652  13.174  22.955  0.00  0.00     0.083 A 
ATOM     15  C   UNL d   1     -46.365  12.441  23.204  0.00  0.00     0.021 A 
ATOM     16  C   UNL d   1     -45.622  12.193  22.946  0.00  0.00     0.026 A 
ATOM     17  C   UNL d   1     -45.172  12.669  22.445  0.00  0.00     0.100 A 
ATOM     18  C   UNL d   1     -45.469  13.404  22.199  0.00  0.00     0.026 A 
ATOM     19  C   UNL d   1     -46.209  13.657  22.454  0.00  0.00     0.021 A 
BRANCH  17  20
ATOM     20  O   UNL d   1     -44.424  12.415  22.187  0.00  0.00    -0.305 OA
BRANCH  20  21
ATOM     21  C   UNL d   1     -43.965  12.907  21.708  0.00  0.00     0.123 C 
ATOM     22  C   UNL d   1     -43.202  12.680  21.502  0.00  0.00     0.029 C 
ENDBRANCH  20  21
ENDBRANCH  17  20
ENDBRANCH  13  14
ENDBRANCH   1  13
TORSDOF 5
ENDMDL
MODEL 3
REMARK VINA RESULT:      -5.6      8.756     10.385
REMARK  5 active torsions:
REMARK  status: ('A' for Active; 'I' for Inactive)
REMARK    1  A    between atoms: C_2  and  C_3 
REMARK    2  A    between atoms: N_4  and  C_2 
REMARK    3  A    between atoms: C_10  and  N_4 
REMARK    4  A    between atoms: O_16  and  C_11 
REMARK    5  A    between atoms: C_19  and  O_16 
ROOT
ATOM      1  C   UNL d   1     -40.039  15.003  18.924  0.00  0.00     0.153 C 
ATOM      2  S   UNL d   1     -40.537  14.460  19.301  0.00  0.00    -0.056 SA
ENDROOT
BRANCH   1   3
ATOM      3  C   UNL d   1     -39.709  14.810  18.193  0.00  0.00     0.109 A 
ATOM      4  N   UNL d   1     -39.152  14.195  18.136  0.00  0.00    -0.243 NA
ATOM      5  C   UNL d   1     -38.822  14.002  17.405  0.00  0.00     0.081 A 
ATOM      6  C   UNL d   1     -39.044  14.419  16.727  0.00  0.00     0.018 A 
ATOM      7  C   UNL d   1     -38.271  13.392  17.352  0.00  0.00     0.019 A 
ATOM      8  C   UNL d   1     -39.599  15.034  16.773  0.00  0.00     0.003 A 
ATOM      9  C   UNL d   1     -38.715  14.226  15.997  0.00  0.00     0.002 A 
ATOM     10  C   UNL d   1     -39.933  15.231  17.508  0.00  0.00     0.021 A 
ATOM     11  C   UNL d   1     -38.163  13.616  15.944  0.00  0.00     0.000 A 
ATOM     12  C   UNL d   1     -37.941  13.199  16.621  0.00  0.00     0.002 A 
ENDBRANCH   1   3
BRANCH   1  13
ATOM     13  N   UNL d   1     -39.871  15.733  19.273  0.00  0.00    -0.233 NA
BRANCH  13  14
ATOM     14  C   UNL d   1     -39.739  15.779  20.089  0.00  0.00     0.083 A 
ATOM     15  C   UNL d   1     -38.967  15.855  20.373  0.00  0.00     0.021 A 
ATOM     16  C   UNL d   1     -38.842  15.900  21.187  0.00  0.00     0.026 A 
ATOM     17  C   UNL d   1     -39.478  15.871  21.711  0.00  0.00     0.100 A 
ATOM     18  C   UNL d   1     -40.250  15.795  21.416  0.00  0.00     0.026 A 
ATOM     19  C   UNL d   1     -40.381  15.749  20.606  0.00  0.00     0.021 A 
BRANCH  17  20
ATOM     20  O   UNL d   1     -39.346  15.918  22.530  0.00  0.00    -0.305 OA
BRANCH  20  21
ATOM     21  C   UNL d   1     -38.894  15.339  22.907  0.00  0.00     0.123 C 
ATOM     22  C   UNL d   1     -38.687  15.431  23.698  0.00  0.00     0.029 C 
ENDBRANCH  20  21
ENDBRANCH  17  20
ENDBRANCH  13  14
ENDBRANCH   1  13
TORSDOF 5
ENDMDL
MODEL 4
REMARK VINA RESULT:      -5.3      1.587      5.338
REMARK  5 active torsions:
REMARK  status: ('A' for Active; 'I' for Inactive)
REMARK    1  A    between atoms: C_2  and  C_3 
REMARK    2  A    between atoms: N_4  and  C_2 
REMARK    3  A    between atoms: C_10  and  N_4 
REMARK    4  A    between atoms: O_16  and  C_11 
REMARK    5  A    between atoms: C_19  and  O_16 
ROOT
ATOM      1  C   UNL d   1     -46.524  12.974  22.747  0.00  0.00     0.153 C 
ATOM      2  S   UNL d   1     -46.456  13.789  22.876  0.00  0.00    -0.056 SA
ENDROOT
BRANCH   1   3
ATOM      3  C   UNL d   1     -45.852  12.499  22.794  0.00  0.00     0.109 A 
ATOM      4  N   UNL d   1     -45.880  11.774  23.200  0.00  0.00    -0.243 NA
ATOM      5  C   UNL d   1     -45.207  11.299  23.247  0.00  0.00     0.081 A 
ATOM      6  C   UNL d   1     -44.503  11.543  22.890  0.00  0.00     0.018 A 
ATOM      7  C   UNL d   1     -45.239  10.582  23.651  0.00  0.00     0.019 A 
ATOM      8  C   UNL d   1     -44.464  12.264  22.483  0.00  0.00     0.003 A 
ATOM      9  C   UNL d   1     -43.831  11.068  22.937  0.00  0.00     0.002 A 
ATOM     10  C   UNL d   1     -45.140  12.745  22.433  0.00  0.00     0.021 A 
ATOM     11  C   UNL d   1     -43.863  10.350  23.341  0.00  0.00     0.000 A 
ATOM     12  C   UNL d   1     -44.567  10.106  23.698  0.00  0.00     0.002 A 
ENDBRANCH   1   3
BRANCH   1  13
ATOM     13  N   UNL d   1     -47.258  12.636  22.573  0.00  0.00    -0.233 NA
BRANCH  13  14
ATOM     14  C   UNL d   1     -47.954  13.052  22.741  0.00  0.00     0.083 A 
ATOM     15  C   UNL d   1     -48.091  13.781  22.378  0.00  0.00     0.021 A 
ATOM     16  C   UNL d   1     -48.786  14.190  22.549  0.00  0.00     0.026 A 
ATOM     17  C   UNL d   1     -49.338  13.876  23.077  0.00  0.00     0.100 A 
ATOM     18  C   UNL d   1     -49.191  13.143  23.437  0.00  0.00     0.026 A 
ATOM     19  C   UNL d   1     -48.499  12.731  23.269  0.00  0.00     0.021 A 
BRANCH  17  20
ATOM     20  O   UNL d   1     -50.037  14.292  23.246  0.00  0.00    -0.305 OA
BRANCH  20  21
ATOM     21  C   UNL d   1     -50.124  15.071  22.987  0.00  0.00     0.123 C 
ATOM     22  C   UNL d   1     -50.754  15.525  23.259  0.00  0.00     0.029 C 
ENDBRANCH  20  21
ENDBRANCH  17  20
ENDBRANCH  13  14
ENDBRANCH   1  13
TORSDOF 5
ENDMDL
MODEL 5
REMARK VINA RESULT:      -5.3      8.951     10.469
REMARK  5 active torsions:
REMARK  status: ('A' for Active; 'I' for Inactive)
REMARK    1  A    between atoms: C_2  and  C_3 
REMARK    2  A    between atoms: N_4  and  C_2 
REMARK    3  A    between atoms: C_10  and  N_4 
REMARK    4  A    between atoms: O_16  and  C_11 
REMARK    5  A    between atoms: C_19  and  O_16 
ROOT
ATOM      1  C   UNL d   1     -39.355  14.340  19.529  0.00  0.00     0.153 C 
ATOM      2  S   UNL d   1     -39.188  15.097  19.238  0.00  0.00    -0.056 SA
ENDROOT
BRANCH   1   3
ATOM      3  C   UNL d   1     -39.324  14.203  20.342  0.00  0.00     0.109 A 
ATOM      4  N   UNL d   1     -38.662  13.829  20.676  0.00  0.00    -0.243 NA
ATOM      5  C   UNL d   1     -38.630  13.691  21.489  0.00  0.00     0.081 A 
ATOM      6  C   UNL d   1     -39.257  13.926  21.973  0.00  0.00     0.018 A 
ATOM      7  C   UNL d   1     -37.972  13.320  21.817  0.00  0.00     0.019 A 
ATOM      8  C   UNL d   1     -39.923  14.301  21.649  0.00  0.00     0.003 A 
ATOM      9  C   UNL d   1     -39.226  13.790  22.785  0.00  0.00     0.002 A 
ATOM     10  C   UNL d   1     -39.957  14.441  20.831  0.00  0.00     0.021 A 
ATOM     11  C   UNL d   1     -38.568  13.418  23.114  0.00  0.00     0.000 A 
ATOM     12  C   UNL d   1     -37.941  13.183  22.630  0.00  0.00     0.002 A 
ENDBRANCH   1   3
BRANCH   1  13
ATOM     13  N   UNL d   1     -39.551  13.726  19.013  0.00  0.00    -0.233 NA
BRANCH  13  14
ATOM     14  C   UNL d   1     -39.339  13.774  18.214  0.00  0.00     0.083 A 
ATOM     15  C   UNL d   1     -38.616  13.463  17.965  0.00  0.00     0.021 A 
ATOM     16  C   UNL d   1     -38.411  13.514  17.168  0.00  0.00     0.026 A 
ATOM     17  C   UNL d   1     -38.921  13.870  16.626  0.00  0.00     0.100 A 
ATOM     18  C   UNL d   1     -39.646  14.180  16.886  0.00  0.00     0.026 A 
ATOM     19  C   UNL d   1     -39.855  14.132  17.679  0.00  0.00     0.021 A 
BRANCH  17  20
ATOM     20  O   UNL d   1     -38.709  13.919  15.824  0.00  0.00    -0.305 OA
BRANCH  20  21
ATOM     21  C   UNL d   1     -38.077  14.399  15.594  0.00  0.00     0.123 C 
ATOM     22  C   UNL d   1     -37.940  14.539  14.795  0.00  0.00     0.029 C 
ENDBRANCH  20  21
ENDBRANCH  17  20
ENDBRANCH  13  14
ENDBRANCH   1  13
TORSDOF 5
ENDMDL
