MODEL 1
REMARK VINA RESULT:       8.7      0.000      0.000
REMARK  12 active torsions:
REMARK  status: ('A' for Active; 'I' for Inactive)
REMARK    1  A    between atoms: C_8  and  C_1 
REMARK    2  A    between atoms: C_9  and  C_2 
REMARK    3  A    between atoms: C_7  and  C_3 
REMARK    4  A    between atoms: S_10  and  C_4 
REMARK    5  A    between atoms: O_23  and  C_8 
REMARK    6  A    between atoms: C_20  and  S_10 
REMARK    7  A    between atoms: O_25  and  C_13 
REMARK    8  A    between atoms: C_14  and  C_20 
REMARK    9  A    between atoms: O_26  and  C_14 
REMARK   10  A    between atoms: C_21  and  C_28 
REMARK   11  A    between atoms: C_28  and  O_23 
REMARK   12  A    between atoms: C_29  and  O_26 
ROOT
ATOM      1  C   UNL d   1      58.751   0.358  32.037  0.00  0.00     0.081 A 
ATOM      2  C   UNL d   1      57.318   0.338  32.032  0.00  0.00     0.045 A 
ATOM      3  C   UNL d   1      58.028   0.242  31.639  0.00  0.00     0.010 A 
ATOM      4  C   UNL d   1      57.319   0.549  32.818  0.00  0.00     0.112 A 
ATOM      5  C   UNL d   1      58.752   0.564  32.806  0.00  0.00     0.087 A 
ATOM      6  N   UNL d   1      58.030   0.665  33.216  0.00  0.00    -0.239 NA
ATOM      7  C   UNL d   1      59.506   0.673  33.174  0.00  0.00     0.021 C 
ENDROOT
BRANCH   3   8
ATOM      8  C   UNL d   1      58.027   0.027  30.842  0.00  0.00     0.003 A 
ATOM      9  C   UNL d   1      57.911  -0.770  30.620  0.00  0.00     0.028 A 
ATOM     10  C   UNL d   1      57.910  -0.984  29.824  0.00  0.00     0.133 A 
ATOM     11  C   UNL d   1      58.025  -0.399  29.254  0.00  0.00     0.218 A 
ATOM     12  C   UNL d   1      58.138   0.381  29.475  0.00  0.00     0.044 A 
ATOM     13  O   UNL d   1      58.029  -0.581  28.461  0.00  0.00    -0.284 OA
ATOM     14  C   UNL d   1      58.139   0.595  30.272  0.00  0.00     0.003 A 
BRANCH  10  15
ATOM     15  O   UNL d   1      57.793  -1.786  29.590  0.00  0.00    -0.325 OA
ATOM     16  C   UNL d   1      58.440  -2.288  29.489  0.00  0.00     0.181 C 
ENDBRANCH  10  15
ENDBRANCH   3   8
BRANCH   2  17
ATOM     17  C   UNL d   1      56.595   0.220  31.628  0.00  0.00     0.124 C 
ATOM     18  N   UNL d   1      56.091  -0.407  31.858  0.00  0.00    -0.146 N 
ENDBRANCH   2  17
BRANCH   1  19
ATOM     19  C   UNL d   1      59.504   0.265  31.656  0.00  0.00     0.302 C 
ATOM     20  O   UNL d   1      59.677   0.681  30.971  0.00  0.00    -0.259 OA
BRANCH  19  21
ATOM     21  O   UNL d   1      60.047  -0.242  31.983  0.00  0.00    -0.271 OA
BRANCH  21  22
ATOM     22  C   UNL d   1      60.837  -0.232  31.740  0.00  0.00     0.126 C 
BRANCH  22  23
ATOM     23  C   UNL d   1      61.079  -0.744  31.151  0.00  0.00     0.027 C 
ATOM     24  C   UNL d   1      61.130  -1.534  31.275  0.00  0.00     0.002 C 
ENDBRANCH  22  23
ENDBRANCH  21  22
ENDBRANCH  19  21
ENDBRANCH   1  19
BRANCH   4  25
ATOM     25  S   UNL d   1      56.633   0.656  33.251  0.00  0.00    -0.062 SA
BRANCH  25  26
ATOM     26  C   UNL d   1      56.674   0.670  34.061  0.00  0.00     0.105 C 
BRANCH  26  27
ATOM     27  C   UNL d   1      56.032   0.388  34.500  0.00  0.00     0.307 C 
ATOM     28  O   UNL d   1      56.158   0.015  35.219  0.00  0.00    -0.258 OA
BRANCH  27  29
ATOM     29  O   UNL d   1      55.276   0.486  34.207  0.00  0.00    -0.271 OA
BRANCH  29  30
ATOM     30  C   UNL d   1      54.645   0.419  34.721  0.00  0.00     0.126 C 
ATOM     31  C   UNL d   1      53.908   0.681  34.497  0.00  0.00     0.029 C 
ENDBRANCH  29  30
ENDBRANCH  27  29
ENDBRANCH  26  27
ENDBRANCH  25  26
ENDBRANCH   4  25
TORSDOF 12
ENDMDL
MODEL 2
REMARK VINA RESULT:       9.2      1.777      4.398
REMARK  12 active torsions:
REMARK  status: ('A' for Active; 'I' for Inactive)
REMARK    1  A    between atoms: C_8  and  C_1 
REMARK    2  A    between atoms: C_9  and  C_2 
REMARK    3  A    between atoms: C_7  and  C_3 
REMARK    4  A    between atoms: S_10  and  C_4 
REMARK    5  A    between atoms: O_23  and  C_8 
REMARK    6  A    between atoms: C_20  and  S_10 
REMARK    7  A    between atoms: O_25  and  C_13 
REMARK    8  A    between atoms: C_14  and  C_20 
REMARK    9  A    between atoms: O_26  and  C_14 
REMARK   10  A    between atoms: C_21  and  C_28 
REMARK   11  A    between atoms: C_28  and  O_23 
REMARK   12  A    between atoms: C_29  and  O_26 
ROOT
ATOM      1  C   UNL d   1      57.940   0.256  32.860  0.00  0.00     0.081 A 
ATOM      2  C   UNL d   1      57.469  -0.162  31.572  0.00  0.00     0.045 A 
ATOM      3  C   UNL d   1      57.331  -0.027  32.366  0.00  0.00     0.010 A 
ATOM      4  C   UNL d   1      58.209  -0.020  31.264  0.00  0.00     0.112 A 
ATOM      5  C   UNL d   1      58.663   0.395  32.558  0.00  0.00     0.087 A 
ATOM      6  N   UNL d   1      58.814   0.259  31.746  0.00  0.00    -0.239 NA
ATOM      7  C   UNL d   1      59.254   0.680  33.091  0.00  0.00     0.021 C 
ENDROOT
BRANCH   3   8
ATOM      8  C   UNL d   1      56.580  -0.171  32.679  0.00  0.00     0.003 A 
ATOM      9  C   UNL d   1      56.293  -0.954  32.740  0.00  0.00     0.028 A 
ATOM     10  C   UNL d   1      55.543  -1.098  33.053  0.00  0.00     0.133 A 
ATOM     11  C   UNL d   1      55.087  -0.459  33.303  0.00  0.00     0.218 A 
ATOM     12  C   UNL d   1      55.372   0.306  33.241  0.00  0.00     0.044 A 
ATOM     13  O   UNL d   1      54.344  -0.570  33.615  0.00  0.00    -0.284 OA
ATOM     14  C   UNL d   1      56.121   0.451  32.928  0.00  0.00     0.003 A 
BRANCH  10  15
ATOM     15  O   UNL d   1      55.244  -1.883  33.118  0.00  0.00    -0.325 OA
ATOM     16  C   UNL d   1      55.228  -2.262  33.851  0.00  0.00     0.181 C 
ENDBRANCH  10  15
ENDBRANCH   3   8
BRANCH   2  17
ATOM     17  C   UNL d   1      56.855  -0.445  31.080  0.00  0.00     0.124 C 
ATOM     18  N   UNL d   1      57.011  -1.064  30.539  0.00  0.00    -0.146 N 
ENDBRANCH   2  17
BRANCH   1  19
ATOM     19  C   UNL d   1      57.826   0.406  33.687  0.00  0.00     0.302 C 
ATOM     20  O   UNL d   1      57.073   0.535  33.987  0.00  0.00    -0.259 OA
BRANCH  19  21
ATOM     21  O   UNL d   1      58.475   0.418  34.175  0.00  0.00    -0.271 OA
BRANCH  21  22
ATOM     22  C   UNL d   1      58.403   0.622  34.972  0.00  0.00     0.126 C 
BRANCH  22  23
ATOM     23  C   UNL d   1      58.945   0.328  35.509  0.00  0.00     0.027 C 
ATOM     24  C   UNL d   1      59.059   0.673  36.223  0.00  0.00     0.002 C 
ENDBRANCH  22  23
ENDBRANCH  21  22
ENDBRANCH  19  21
ENDBRANCH   1  19
BRANCH   4  25
ATOM     25  S   UNL d   1      58.393  -0.141  30.475  0.00  0.00    -0.062 SA
BRANCH  25  26
ATOM     26  C   UNL d   1      58.429   0.496  29.975  0.00  0.00     0.105 C 
BRANCH  26  27
ATOM     27  C   UNL d   1      58.735   0.391  29.213  0.00  0.00     0.307 C 
ATOM     28  O   UNL d   1      58.263   0.534  28.557  0.00  0.00    -0.258 OA
BRANCH  27  29
ATOM     29  O   UNL d   1      59.508   0.144  29.125  0.00  0.00    -0.271 OA
BRANCH  29  30
ATOM     30  C   UNL d   1      60.048   0.658  28.791  0.00  0.00     0.126 C 
ATOM     31  C   UNL d   1      60.831   0.445  28.734  0.00  0.00     0.029 C 
ENDBRANCH  29  30
ENDBRANCH  27  29
ENDBRANCH  26  27
ENDBRANCH  25  26
ENDBRANCH   4  25
TORSDOF 12
ENDMDL
