MODEL 1
REMARK VINA RESULT:      41.1      0.000      0.000
REMARK  3 active torsions:
REMARK  status: ('A' for Active; 'I' for Inactive)
REMARK    1  A    between atoms: C_5  and  C_1 
REMARK    2  A    between atoms: C_7  and  C_5 
REMARK    3  A    between atoms: C_10  and  C_7 
ROOT
ATOM      1  C   UNL d   1      59.683  49.289  51.188  0.00  0.00     0.220 A 
ATOM      2  C   UNL d   1      59.833  48.825  51.822  0.00  0.00     0.315 A 
ATOM      3  N   UNL d   1      60.571  48.481  51.739  0.00  0.00    -0.205 NA
ATOM      4  C   UNL d   1      60.327  49.253  50.680  0.00  0.00     0.059 A 
ATOM      5  C   UNL d   1      60.888  48.742  51.028  0.00  0.00     0.088 A 
ATOM      6  O   UNL d   1      59.299  48.733  52.446  0.00  0.00    -0.262 OA
ATOM      7  O   UNL d   1      59.694  49.708  50.487  0.00  0.00    -0.285 OA
ATOM      8  C   UNL d   1      60.503  49.599  49.953  0.00  0.00     0.005 A 
ATOM      9  C   UNL d   1      61.617  48.586  50.644  0.00  0.00     0.019 A 
ATOM     10  C   UNL d   1      61.207  49.459  49.563  0.00  0.00     0.000 A 
ATOM     11  C   UNL d   1      61.768  48.948  49.912  0.00  0.00     0.002 A 
ENDROOT
BRANCH   1  12
ATOM     12  C   UNL d   1      58.970  49.689  51.156  0.00  0.00     0.086 C 
BRANCH  12  13
ATOM     13  C   UNL d   1      58.496  49.688  50.474  0.00  0.00     0.199 C 
ATOM     14  O   UNL d   1      58.858  49.685  49.734  0.00  0.00    -0.286 OA
BRANCH  13  15
ATOM     15  C   UNL d   1      57.684  49.690  50.534  0.00  0.00     0.039 A 
ATOM     16  C   UNL d   1      57.297  49.683  51.277  0.00  0.00     0.003 A 
ATOM     17  C   UNL d   1      56.484  49.685  51.338  0.00  0.00     0.000 A 
ATOM     18  C   UNL d   1      56.034  49.695  50.637  0.00  0.00     0.000 A 
ATOM     19  C   UNL d   1      56.398  49.702  49.902  0.00  0.00     0.000 A 
ATOM     20  C   UNL d   1      57.206  49.700  49.854  0.00  0.00     0.003 A 
ENDBRANCH  13  15
ENDBRANCH  12  13
ENDBRANCH   1  12
TORSDOF 3
ENDMDL
