MODEL 1
REMARK VINA RESULT:      -2.7      0.000      0.000
REMARK  1 active torsions:
REMARK  status: ('A' for Active; 'I' for Inactive)
REMARK    1  A    between atoms: C_2  and  C_1 
ROOT
ATOM      1  C   UNL d   1      29.276  16.031 -23.595  0.00  0.00     0.067 A 
ATOM      2  C   UNL d   1      30.508  16.621 -24.005  0.00  0.00     0.123 A 
ATOM      3  C   UNL d   1      29.681  16.618 -24.012  0.00  0.00     0.033 A 
ATOM      4  C   UNL d   1      30.923  16.044 -23.587  0.00  0.00     0.123 A 
ATOM      5  O   UNL d   1      30.917  17.210 -24.424  0.00  0.00    -0.301 OA
ATOM      6  O   UNL d   1      31.751  16.052 -23.584  0.00  0.00    -0.301 OA
ATOM      7  C   UNL d   1      29.691  15.454 -23.176  0.00  0.00     0.008 A 
ATOM      8  C   UNL d   1      30.515  15.460 -23.172  0.00  0.00     0.027 A 
ATOM      9  C   UNL d   1      31.747  17.214 -24.418  0.00  0.00     0.149 A 
ATOM     10  C   UNL d   1      32.163  16.637 -24.000  0.00  0.00     0.149 A 
ENDROOT
BRANCH   1  11
ATOM     11  C   UNL d   1      28.449  16.029 -23.601  0.00  0.00     0.211 C 
ATOM     12  O   UNL d   1      27.988  16.600 -23.226  0.00  0.00    -0.644 OA
ATOM     13  O   UNL d   1      27.999  15.453 -23.986  0.00  0.00    -0.644 OA
ENDBRANCH   1  11
TORSDOF 1
ENDMDL
MODEL 2
REMARK VINA RESULT:      -2.5      1.319      3.066
REMARK  1 active torsions:
REMARK  status: ('A' for Active; 'I' for Inactive)
REMARK    1  A    between atoms: C_2  and  C_1 
ROOT
ATOM      1  C   UNL d   1      31.825  17.300 -23.820  0.00  0.00     0.067 A 
ATOM      2  C   UNL d   1      30.551  17.387 -24.455  0.00  0.00     0.123 A 
ATOM      3  C   UNL d   1      31.286  17.723 -24.282  0.00  0.00     0.033 A 
ATOM      4  C   UNL d   1      30.358  16.637 -24.169  0.00  0.00     0.123 A 
ATOM      5  O   UNL d   1      30.008  17.811 -24.919  0.00  0.00    -0.301 OA
ATOM      6  O   UNL d   1      29.620  16.306 -24.346  0.00  0.00    -0.301 OA
ATOM      7  C   UNL d   1      31.632  16.550 -23.535  0.00  0.00     0.008 A 
ATOM      8  C   UNL d   1      30.898  16.218 -23.709  0.00  0.00     0.027 A 
ATOM      9  C   UNL d   1      29.269  17.475 -25.093  0.00  0.00     0.149 A 
ATOM     10  C   UNL d   1      29.076  16.725 -24.808  0.00  0.00     0.149 A 
ENDROOT
BRANCH   1  11
ATOM     11  C   UNL d   1      32.560  17.636 -23.647  0.00  0.00     0.211 C 
ATOM     12  O   UNL d   1      33.225  17.549 -24.127  0.00  0.00    -0.644 OA
ATOM     13  O   UNL d   1      32.704  18.094 -22.975  0.00  0.00    -0.644 OA
ENDBRANCH   1  11
TORSDOF 1
ENDMDL
MODEL 3
REMARK VINA RESULT:      -2.5      5.886      6.940
REMARK  1 active torsions:
REMARK  status: ('A' for Active; 'I' for Inactive)
REMARK    1  A    between atoms: C_2  and  C_1 
ROOT
ATOM      1  C   UNL d   1      32.525  22.575 -20.902  0.00  0.00     0.067 A 
ATOM      2  C   UNL d   1      32.735  21.226 -21.315  0.00  0.00     0.123 A 
ATOM      3  C   UNL d   1      32.495  21.766 -20.737  0.00  0.00     0.033 A 
ATOM      4  C   UNL d   1      33.002  21.493 -22.049  0.00  0.00     0.123 A 
ATOM      5  O   UNL d   1      32.707  20.413 -21.151  0.00  0.00    -0.301 OA
ATOM      6  O   UNL d   1      33.241  20.947 -22.625  0.00  0.00    -0.301 OA
ATOM      7  C   UNL d   1      32.791  22.841 -21.636  0.00  0.00     0.008 A 
ATOM      8  C   UNL d   1      33.030  22.301 -22.210  0.00  0.00     0.027 A 
ATOM      9  C   UNL d   1      32.947  19.869 -21.731  0.00  0.00     0.149 A 
ATOM     10  C   UNL d   1      33.214  20.136 -22.465  0.00  0.00     0.149 A 
ENDROOT
BRANCH   1  11
ATOM     11  C   UNL d   1      32.284  23.114 -20.324  0.00  0.00     0.211 C 
ATOM     12  O   UNL d   1      31.683  23.667 -20.437  0.00  0.00    -0.644 OA
ATOM     13  O   UNL d   1      32.622  23.155 -19.571  0.00  0.00    -0.644 OA
ENDBRANCH   1  11
TORSDOF 1
ENDMDL
MODEL 4
REMARK VINA RESULT:      -2.5      5.680      6.732
REMARK  1 active torsions:
REMARK  status: ('A' for Active; 'I' for Inactive)
REMARK    1  A    between atoms: C_2  and  C_1 
ROOT
ATOM      1  C   UNL d   1      32.879  20.789 -21.713  0.00  0.00     0.067 A 
ATOM      2  C   UNL d   1      32.851  22.214 -21.668  0.00  0.00     0.123 A 
ATOM      3  C   UNL d   1      33.083  21.517 -22.047  0.00  0.00     0.033 A 
ATOM      4  C   UNL d   1      32.421  22.184 -20.964  0.00  0.00     0.123 A 
ATOM      5  O   UNL d   1      33.055  22.947 -22.002  0.00  0.00    -0.301 OA
ATOM      6  O   UNL d   1      32.192  22.886 -20.590  0.00  0.00    -0.301 OA
ATOM      7  C   UNL d   1      32.449  20.759 -21.009  0.00  0.00     0.008 A 
ATOM      8  C   UNL d   1      32.220  21.456 -20.635  0.00  0.00     0.027 A 
ATOM      9  C   UNL d   1      32.823  23.649 -21.623  0.00  0.00     0.149 A 
ATOM     10  C   UNL d   1      32.393  23.618 -20.919  0.00  0.00     0.149 A 
ENDROOT
BRANCH   1  11
ATOM     11  C   UNL d   1      33.111  20.092 -22.091  0.00  0.00     0.211 C 
ATOM     12  O   UNL d   1      33.237  19.379 -21.697  0.00  0.00    -0.644 OA
ATOM     13  O   UNL d   1      33.241  20.038 -22.905  0.00  0.00    -0.644 OA
ENDBRANCH   1  11
TORSDOF 1
ENDMDL
MODEL 5
REMARK VINA RESULT:      -2.3      1.530      3.367
REMARK  1 active torsions:
REMARK  status: ('A' for Active; 'I' for Inactive)
REMARK    1  A    between atoms: C_2  and  C_1 
ROOT
ATOM      1  C   UNL d   1      32.493  18.051 -23.594  0.00  0.00     0.067 A 
ATOM      2  C   UNL d   1      31.390  17.230 -23.972  0.00  0.00     0.123 A 
ATOM      3  C   UNL d   1      31.763  17.968 -23.971  0.00  0.00     0.033 A 
ATOM      4  C   UNL d   1      31.744  16.584 -23.601  0.00  0.00     0.123 A 
ATOM      5  O   UNL d   1      30.655  17.144 -24.351  0.00  0.00    -0.301 OA
ATOM      6  O   UNL d   1      31.365  15.847 -23.606  0.00  0.00    -0.301 OA
ATOM      7  C   UNL d   1      32.847  17.404 -23.223  0.00  0.00     0.008 A 
ATOM      8  C   UNL d   1      32.473  16.670 -23.227  0.00  0.00     0.027 A 
ATOM      9  C   UNL d   1      30.280  16.404 -24.353  0.00  0.00     0.149 A 
ATOM     10  C   UNL d   1      30.634  15.758 -23.982  0.00  0.00     0.149 A 
ENDROOT
BRANCH   1  11
ATOM     11  C   UNL d   1      32.866  18.788 -23.593  0.00  0.00     0.211 C 
ATOM     12  O   UNL d   1      32.904  19.279 -22.931  0.00  0.00    -0.644 OA
ATOM     13  O   UNL d   1      33.239  19.111 -24.256  0.00  0.00    -0.644 OA
ENDBRANCH   1  11
TORSDOF 1
ENDMDL
MODEL 6
REMARK VINA RESULT:      -2.0      6.901      7.510
REMARK  1 active torsions:
REMARK  status: ('A' for Active; 'I' for Inactive)
REMARK    1  A    between atoms: C_2  and  C_1 
ROOT
ATOM      1  C   UNL d   1      32.690  22.543 -21.032  0.00  0.00     0.067 A 
ATOM      2  C   UNL d   1      32.959  22.538 -22.432  0.00  0.00     0.123 A 
ATOM      3  C   UNL d   1      32.971  22.150 -21.703  0.00  0.00     0.033 A 
ATOM      4  C   UNL d   1      32.671  23.309 -22.490  0.00  0.00     0.123 A 
ATOM      5  O   UNL d   1      33.241  22.145 -23.108  0.00  0.00    -0.301 OA
ATOM      6  O   UNL d   1      32.661  23.692 -23.225  0.00  0.00    -0.301 OA
ATOM      7  C   UNL d   1      32.402  23.314 -21.090  0.00  0.00     0.008 A 
ATOM      8  C   UNL d   1      32.392  23.697 -21.819  0.00  0.00     0.027 A 
ATOM      9  C   UNL d   1      33.230  22.534 -23.842  0.00  0.00     0.149 A 
ATOM     10  C   UNL d   1      32.941  23.304 -23.900  0.00  0.00     0.149 A 
ENDROOT
BRANCH   1  11
ATOM     11  C   UNL d   1      32.702  22.155 -20.302  0.00  0.00     0.211 C 
ATOM     12  O   UNL d   1      32.298  21.452 -20.153  0.00  0.00    -0.644 OA
ATOM     13  O   UNL d   1      33.121  22.432 -19.646  0.00  0.00    -0.644 OA
ENDBRANCH   1  11
TORSDOF 1
ENDMDL
MODEL 7
REMARK VINA RESULT:      -1.9      4.231      5.561
REMARK  1 active torsions:
REMARK  status: ('A' for Active; 'I' for Inactive)
REMARK    1  A    between atoms: C_2  and  C_1 
ROOT
ATOM      1  C   UNL d   1      33.105  19.430 -22.829  0.00  0.00     0.067 A 
ATOM      2  C   UNL d   1      32.992  20.382 -21.773  0.00  0.00     0.123 A 
ATOM      3  C   UNL d   1      32.984  19.596 -22.028  0.00  0.00     0.033 A 
ATOM      4  C   UNL d   1      33.120  20.994 -22.312  0.00  0.00     0.123 A 
ATOM      5  O   UNL d   1      32.870  20.552 -20.969  0.00  0.00    -0.301 OA
ATOM      6  O   UNL d   1      33.127  21.780 -22.050  0.00  0.00    -0.301 OA
ATOM      7  C   UNL d   1      33.233  20.042 -23.367  0.00  0.00     0.008 A 
ATOM      8  C   UNL d   1      33.241  20.824 -23.109  0.00  0.00     0.027 A 
ATOM      9  C   UNL d   1      32.878  21.341 -20.711  0.00  0.00     0.149 A 
ATOM     10  C   UNL d   1      33.006  21.952 -21.250  0.00  0.00     0.149 A 
ENDROOT
BRANCH   1  11
ATOM     11  C   UNL d   1      33.097  18.644 -23.084  0.00  0.00     0.211 C 
ATOM     12  O   UNL d   1      32.945  18.418 -23.862  0.00  0.00    -0.644 OA
ATOM     13  O   UNL d   1      33.240  18.002 -22.584  0.00  0.00    -0.644 OA
ENDBRANCH   1  11
TORSDOF 1
ENDMDL
MODEL 8
REMARK VINA RESULT:      -1.9      7.577      8.432
REMARK  1 active torsions:
REMARK  status: ('A' for Active; 'I' for Inactive)
REMARK    1  A    between atoms: C_2  and  C_1 
ROOT
ATOM      1  C   UNL d   1      32.897  23.035 -18.802  0.00  0.00     0.067 A 
ATOM      2  C   UNL d   1      32.873  22.219 -19.971  0.00  0.00     0.123 A 
ATOM      3  C   UNL d   1      32.822  22.288 -19.149  0.00  0.00     0.033 A 
ATOM      4  C   UNL d   1      32.997  22.886 -20.440  0.00  0.00     0.123 A 
ATOM      5  O   UNL d   1      32.798  21.469 -20.322  0.00  0.00    -0.301 OA
ATOM      6  O   UNL d   1      33.047  22.809 -21.263  0.00  0.00    -0.301 OA
ATOM      7  C   UNL d   1      33.020  23.702 -19.271  0.00  0.00     0.008 A 
ATOM      8  C   UNL d   1      33.070  23.628 -20.090  0.00  0.00     0.027 A 
ATOM      9  C   UNL d   1      32.849  21.397 -21.148  0.00  0.00     0.149 A 
ATOM     10  C   UNL d   1      32.973  22.065 -21.616  0.00  0.00     0.149 A 
ENDROOT
BRANCH   1  11
ATOM     11  C   UNL d   1      32.846  23.105 -17.980  0.00  0.00     0.211 C 
ATOM     12  O   UNL d   1      33.241  22.606 -17.455  0.00  0.00    -0.644 OA
ATOM     13  O   UNL d   1      32.394  23.682 -17.599  0.00  0.00    -0.644 OA
ENDBRANCH   1  11
TORSDOF 1
ENDMDL
MODEL 9
REMARK VINA RESULT:      -1.8      3.723      5.110
REMARK  1 active torsions:
REMARK  status: ('A' for Active; 'I' for Inactive)
REMARK    1  A    between atoms: C_2  and  C_1 
ROOT
ATOM      1  C   UNL d   1      33.187  20.162 -22.178  0.00  0.00     0.067 A 
ATOM      2  C   UNL d   1      33.164  18.798 -22.591  0.00  0.00     0.123 A 
ATOM      3  C   UNL d   1      33.153  19.359 -21.985  0.00  0.00     0.033 A 
ATOM      4  C   UNL d   1      33.207  19.036 -23.380  0.00  0.00     0.123 A 
ATOM      5  O   UNL d   1      33.130  17.990 -22.400  0.00  0.00    -0.301 OA
ATOM      6  O   UNL d   1      33.218  18.468 -23.983  0.00  0.00    -0.301 OA
ATOM      7  C   UNL d   1      33.231  20.401 -22.967  0.00  0.00     0.008 A 
ATOM      8  C   UNL d   1      33.241  19.838 -23.568  0.00  0.00     0.027 A 
ATOM      9  C   UNL d   1      33.140  17.425 -23.008  0.00  0.00     0.149 A 
ATOM     10  C   UNL d   1      33.184  17.663 -23.796  0.00  0.00     0.149 A 
ENDROOT
BRANCH   1  11
ATOM     11  C   UNL d   1      33.176  20.724 -21.572  0.00  0.00     0.211 C 
ATOM     12  O   UNL d   1      33.101  20.532 -20.773  0.00  0.00    -0.644 OA
ATOM     13  O   UNL d   1      33.240  21.537 -21.703  0.00  0.00    -0.644 OA
ENDBRANCH   1  11
TORSDOF 1
ENDMDL
