MODEL 1
REMARK VINA RESULT:      45.2      0.000      0.000
REMARK  6 active torsions:
REMARK  status: ('A' for Active; 'I' for Inactive)
REMARK    1  A    between atoms: C_6  and  N_1 
REMARK    2  A    between atoms: C_12  and  C_6 
REMARK    3  A    between atoms: O_18  and  C_7 
REMARK    4  A    between atoms: O_19  and  C_10 
REMARK    5  A    between atoms: C_21  and  O_19 
REMARK    6  A    between atoms: C_23  and  C_21 
ROOT
ATOM      1  C   UNL d   1     -55.292-100.225 -43.685  0.00  0.00     0.117 A 
ATOM      2  C   UNL d   1     -55.457-100.863 -44.188  0.00  0.00     0.122 A 
ATOM      3  C   UNL d   1     -55.715 -99.527 -43.767  0.00  0.00     0.028 A 
ATOM      4  C   UNL d   1     -56.295 -99.461 -44.339  0.00  0.00     0.020 A 
ATOM      5  C   UNL d   1     -56.041-100.794 -44.762  0.00  0.00     0.027 A 
ATOM      6  C   UNL d   1     -56.462-100.087 -44.837  0.00  0.00     0.004 A 
ENDROOT
BRANCH   4   7
ATOM      7  C   UNL d   1     -56.716 -98.756 -44.413  0.00  0.00     0.085 C 
BRANCH   7   8
ATOM      8  N   UNL d   1     -57.460 -98.758 -44.771  0.00  0.00    -0.251 N 
ATOM      9  C   UNL d   1     -57.650 -98.761 -45.584  0.00  0.00     0.378 A 
ATOM     10  O   UNL d   1     -58.475 -98.762 -45.655  0.00  0.00    -0.258 OA
ATOM     11  O   UNL d   1     -57.105 -98.761 -46.201  0.00  0.00    -0.237 OA
ATOM     12  C   UNL d   1     -58.796 -98.761 -44.890  0.00  0.00     0.121 A 
ATOM     13  C   UNL d   1     -58.170 -98.758 -44.344  0.00  0.00     0.092 A 
ATOM     14  C   UNL d   1     -59.575 -98.762 -44.612  0.00  0.00     0.026 A 
ATOM     15  C   UNL d   1     -58.318 -98.756 -43.537  0.00  0.00     0.020 A 
ATOM     16  C   UNL d   1     -59.099 -98.757 -43.269  0.00  0.00     0.002 A 
ATOM     17  C   UNL d   1     -59.725 -98.760 -43.804  0.00  0.00     0.002 A 
ATOM     18  C   UNL d   1     -59.245 -98.755 -42.453  0.00  0.00     0.000 C 
ENDBRANCH   7   8
ENDBRANCH   4   7
BRANCH   1  19
ATOM     19  O   UNL d   1     -54.712-100.295 -43.114  0.00  0.00    -0.326 OA
ATOM     20  C   UNL d   1     -55.064-100.023 -42.419  0.00  0.00     0.181 C 
ENDBRANCH   1  19
BRANCH   2  21
ATOM     21  O   UNL d   1     -55.036-101.564 -44.109  0.00  0.00    -0.303 OA
BRANCH  21  22
ATOM     22  C   UNL d   1     -55.319-102.249 -44.454  0.00  0.00     0.123 C 
BRANCH  22  23
ATOM     23  C   UNL d   1     -54.901-102.607 -45.069  0.00  0.00     0.027 C 
ATOM     24  C   UNL d   1     -54.995-102.342 -45.842  0.00  0.00     0.002 C 
ENDBRANCH  22  23
ENDBRANCH  21  22
ENDBRANCH   2  21
TORSDOF 6
ENDMDL
