MODEL 1
REMARK VINA RESULT:      -6.3      0.000      0.000
REMARK  8 active torsions:
REMARK  status: ('A' for Active; 'I' for Inactive)
REMARK    1  A    between atoms: C_7  and  C_1 
REMARK    2  A    between atoms: C_10  and  N_2 
REMARK    3  A    between atoms: C_13  and  C_5 
REMARK    4  A    between atoms: C_6  and  C_7 
REMARK    5  A    between atoms: C_18  and  C_10 
REMARK    6  A    between atoms: N_19  and  C_18 
REMARK    7  A    between atoms: C_25  and  N_19 
REMARK    8  A    between atoms: C_26  and  N_19 
ROOT
ATOM      1  C   UNL d   1     -46.784  13.366  22.990  0.00  0.00     0.101 A 
ATOM      2  N   UNL d   1     -47.913  14.028  22.730  0.00  0.00    -0.269 N 
ATOM      3  C   UNL d   1     -46.617  14.177  23.012  0.00  0.00     0.256 A 
ATOM      4  C   UNL d   1     -47.313  14.584  22.852  0.00  0.00     0.304 A 
ATOM      5  C   UNL d   1     -47.585  13.282  22.815  0.00  0.00     0.075 A 
ATOM      6  O   UNL d   1     -47.395  15.410  22.819  0.00  0.00    -0.263 OA
ATOM      7  O   UNL d   1     -45.877  14.521  23.168  0.00  0.00    -0.281 OA
ENDROOT
BRANCH   1   8
ATOM      8  C   UNL d   1     -46.241  12.758  23.120  0.00  0.00     0.223 C 
ATOM      9  O   UNL d   1     -46.395  12.184  23.696  0.00  0.00    -0.284 OA
BRANCH   8  10
ATOM     10  C   UNL d   1     -45.544  12.716  22.681  0.00  0.00     0.139 A 
ATOM     11  O   UNL d   1     -45.325  13.222  22.064  0.00  0.00    -0.304 OA
ATOM     12  C   UNL d   1     -44.590  12.975  21.789  0.00  0.00     0.100 A 
ATOM     13  C   UNL d   1     -44.106  13.266  21.187  0.00  0.00     0.025 A 
ATOM     14  C   UNL d   1     -44.354  12.325  22.227  0.00  0.00     0.025 A 
ATOM     15  C   UNL d   1     -43.388  12.904  21.030  0.00  0.00     0.002 A 
ATOM     16  C   UNL d   1     -43.156  12.251  21.475  0.00  0.00     0.000 A 
ATOM     17  C   UNL d   1     -43.633  11.961  22.070  0.00  0.00     0.002 A 
ATOM     18  C   UNL d   1     -44.947  12.167  22.780  0.00  0.00     0.030 A 
ENDBRANCH   8  10
ENDBRANCH   1   8
BRANCH   5  19
ATOM     19  C   UNL d   1     -47.985  12.551  22.741  0.00  0.00     0.036 A 
ATOM     20  C   UNL d   1     -48.112  12.228  21.989  0.00  0.00     0.100 A 
ATOM     21  N   UNL d   1     -48.505  11.509  21.911  0.00  0.00    -0.242 NA
ATOM     22  C   UNL d   1     -48.779  11.102  22.593  0.00  0.00     0.099 A 
ATOM     23  C   UNL d   1     -48.648  11.433  23.345  0.00  0.00     0.021 A 
ATOM     24  C   UNL d   1     -48.252  12.156  23.414  0.00  0.00     0.005 A 
ENDBRANCH   5  19
BRANCH   2  25
ATOM     25  C   UNL d   1     -48.705  14.202  22.553  0.00  0.00     0.102 C 
BRANCH  25  26
ATOM     26  C   UNL d   1     -49.088  14.827  22.930  0.00  0.00     0.100 C 
BRANCH  26  27
ATOM     27  N   UNL d   1     -49.902  14.945  22.815  0.00  0.00    -0.301 N 
BRANCH  27  28
ATOM     28  C   UNL d   1     -50.399  15.020  23.470  0.00  0.00     0.080 C 
ATOM     29  C   UNL d   1     -50.731  15.749  23.662  0.00  0.00     0.021 C 
ENDBRANCH  27  28
BRANCH  27  30
ATOM     30  C   UNL d   1     -50.204  14.987  22.052  0.00  0.00     0.080 C 
ATOM     31  C   UNL d   1     -51.006  14.841  21.911  0.00  0.00     0.021 C 
ENDBRANCH  27  30
ENDBRANCH  26  27
ENDBRANCH  25  26
ENDBRANCH   2  25
TORSDOF 8
ENDMDL
MODEL 2
REMARK VINA RESULT:      -4.1      6.570      8.919
REMARK  8 active torsions:
REMARK  status: ('A' for Active; 'I' for Inactive)
REMARK    1  A    between atoms: C_7  and  C_1 
REMARK    2  A    between atoms: C_10  and  N_2 
REMARK    3  A    between atoms: C_13  and  C_5 
REMARK    4  A    between atoms: C_6  and  C_7 
REMARK    5  A    between atoms: C_18  and  C_10 
REMARK    6  A    between atoms: N_19  and  C_18 
REMARK    7  A    between atoms: C_25  and  N_19 
REMARK    8  A    between atoms: C_26  and  N_19 
ROOT
ATOM      1  C   UNL d   1     -39.507  15.158  19.455  0.00  0.00     0.101 A 
ATOM      2  N   UNL d   1     -39.207  15.149  20.756  0.00  0.00    -0.269 N 
ATOM      3  C   UNL d   1     -38.794  15.567  19.558  0.00  0.00     0.256 A 
ATOM      4  C   UNL d   1     -38.610  15.561  20.359  0.00  0.00     0.304 A 
ATOM      5  C   UNL d   1     -39.756  14.903  20.199  0.00  0.00     0.075 A 
ATOM      6  O   UNL d   1     -37.940  15.909  20.705  0.00  0.00    -0.263 OA
ATOM      7  O   UNL d   1     -38.342  15.921  18.958  0.00  0.00    -0.281 OA
ENDROOT
BRANCH   1   8
ATOM      8  C   UNL d   1     -39.892  15.033  18.737  0.00  0.00     0.223 C 
ATOM      9  O   UNL d   1     -40.658  15.326  18.622  0.00  0.00    -0.284 OA
BRANCH   8  10
ATOM     10  C   UNL d   1     -39.522  14.617  18.128  0.00  0.00     0.139 A 
ATOM     11  O   UNL d   1     -39.171  13.870  18.191  0.00  0.00    -0.304 OA
ATOM     12  C   UNL d   1     -38.872  13.673  17.450  0.00  0.00     0.100 A 
ATOM     13  C   UNL d   1     -38.469  13.002  17.184  0.00  0.00     0.025 A 
ATOM     14  C   UNL d   1     -39.034  14.286  16.933  0.00  0.00     0.025 A 
ATOM     15  C   UNL d   1     -38.232  12.953  16.402  0.00  0.00     0.002 A 
ATOM     16  C   UNL d   1     -38.398  13.574  15.886  0.00  0.00     0.000 A 
ATOM     17  C   UNL d   1     -38.796  14.238  16.147  0.00  0.00     0.002 A 
ATOM     18  C   UNL d   1     -39.437  14.871  17.356  0.00  0.00     0.030 A 
ENDBRANCH   8  10
ENDBRANCH   1   8
BRANCH   5  19
ATOM     19  C   UNL d   1     -40.454  14.467  20.347  0.00  0.00     0.036 A 
ATOM     20  C   UNL d   1     -40.440  13.641  20.297  0.00  0.00     0.100 A 
ATOM     21  N   UNL d   1     -41.125  13.209  20.442  0.00  0.00    -0.242 NA
ATOM     22  C   UNL d   1     -41.839  13.603  20.641  0.00  0.00     0.099 A 
ATOM     23  C   UNL d   1     -41.845  14.434  20.690  0.00  0.00     0.021 A 
ATOM     24  C   UNL d   1     -41.152  14.861  20.542  0.00  0.00     0.005 A 
ENDBRANCH   5  19
BRANCH   2  25
ATOM     25  C   UNL d   1     -39.239  15.013  21.574  0.00  0.00     0.102 C 
BRANCH  25  26
ATOM     26  C   UNL d   1     -38.634  14.599  21.950  0.00  0.00     0.100 C 
BRANCH  26  27
ATOM     27  N   UNL d   1     -38.735  14.335  22.732  0.00  0.00    -0.301 N 
BRANCH  27  28
ATOM     28  C   UNL d   1     -39.069  14.842  23.292  0.00  0.00     0.080 C 
ATOM     29  C   UNL d   1     -38.613  15.424  23.655  0.00  0.00     0.021 C 
ENDBRANCH  27  28
BRANCH  27  30
ATOM     30  C   UNL d   1     -38.501  13.576  22.939  0.00  0.00     0.080 C 
ATOM     31  C   UNL d   1     -38.665  13.279  23.693  0.00  0.00     0.021 C 
ENDBRANCH  27  30
ENDBRANCH  26  27
ENDBRANCH  25  26
ENDBRANCH   2  25
TORSDOF 8
ENDMDL
MODEL 3
REMARK VINA RESULT:      -4.0      1.227      2.387
REMARK  8 active torsions:
REMARK  status: ('A' for Active; 'I' for Inactive)
REMARK    1  A    between atoms: C_7  and  C_1 
REMARK    2  A    between atoms: C_10  and  N_2 
REMARK    3  A    between atoms: C_13  and  C_5 
REMARK    4  A    between atoms: C_6  and  C_7 
REMARK    5  A    between atoms: C_18  and  C_10 
REMARK    6  A    between atoms: N_19  and  C_18 
REMARK    7  A    between atoms: C_25  and  N_19 
REMARK    8  A    between atoms: C_26  and  N_19 
ROOT
ATOM      1  C   UNL d   1     -46.902  13.083  23.199  0.00  0.00     0.101 A 
ATOM      2  N   UNL d   1     -48.184  12.738  23.057  0.00  0.00    -0.269 N 
ATOM      3  C   UNL d   1     -46.981  12.291  23.425  0.00  0.00     0.256 A 
ATOM      4  C   UNL d   1     -47.770  12.078  23.337  0.00  0.00     0.304 A 
ATOM      5  C   UNL d   1     -47.647  13.353  22.973  0.00  0.00     0.075 A 
ATOM      6  O   UNL d   1     -48.092  11.331  23.502  0.00  0.00    -0.263 OA
ATOM      7  O   UNL d   1     -46.371  11.795  23.694  0.00  0.00    -0.281 OA
ENDROOT
BRANCH   1   8
ATOM      8  C   UNL d   1     -46.201  13.518  23.202  0.00  0.00     0.223 C 
ATOM      9  O   UNL d   1     -46.146  14.210  23.654  0.00  0.00    -0.284 OA
BRANCH   8  10
ATOM     10  C   UNL d   1     -45.551  13.271  22.759  0.00  0.00     0.139 A 
ATOM     11  O   UNL d   1     -45.218  13.672  22.116  0.00  0.00    -0.304 OA
ATOM     12  C   UNL d   1     -44.583  13.224  21.845  0.00  0.00     0.100 A 
ATOM     13  C   UNL d   1     -44.052  13.348  21.225  0.00  0.00     0.025 A 
ATOM     14  C   UNL d   1     -44.520  12.554  22.312  0.00  0.00     0.025 A 
ATOM     15  C   UNL d   1     -43.462  12.799  21.079  0.00  0.00     0.002 A 
ATOM     16  C   UNL d   1     -43.404  12.127  21.552  0.00  0.00     0.000 A 
ATOM     17  C   UNL d   1     -43.928  12.002  22.165  0.00  0.00     0.002 A 
ATOM     18  C   UNL d   1     -45.122  12.586  22.878  0.00  0.00     0.030 A 
ENDBRANCH   8  10
ENDBRANCH   1   8
BRANCH   5  19
ATOM     19  C   UNL d   1     -47.817  14.126  22.705  0.00  0.00     0.036 A 
ATOM     20  C   UNL d   1     -47.726  14.312  21.903  0.00  0.00     0.100 A 
ATOM     21  N   UNL d   1     -47.892  15.072  21.635  0.00  0.00    -0.242 NA
ATOM     22  C   UNL d   1     -48.153  15.662  22.173  0.00  0.00     0.099 A 
ATOM     23  C   UNL d   1     -48.241  15.468  22.978  0.00  0.00     0.021 A 
ATOM     24  C   UNL d   1     -48.072  14.701  23.239  0.00  0.00     0.005 A 
ENDBRANCH   5  19
BRANCH   2  25
ATOM     25  C   UNL d   1     -48.996  12.765  22.891  0.00  0.00     0.102 C 
BRANCH  25  26
ATOM     26  C   UNL d   1     -49.413  12.070  22.743  0.00  0.00     0.100 C 
BRANCH  26  27
ATOM     27  N   UNL d   1     -50.213  12.106  22.519  0.00  0.00    -0.301 N 
BRANCH  27  28
ATOM     28  C   UNL d   1     -50.418  11.998  21.726  0.00  0.00     0.080 C 
ATOM     29  C   UNL d   1     -50.878  12.558  21.333  0.00  0.00     0.021 C 
ENDBRANCH  27  28
BRANCH  27  30
ATOM     30  C   UNL d   1     -50.789  12.248  23.086  0.00  0.00     0.080 C 
ATOM     31  C   UNL d   1     -50.990  11.662  23.634  0.00  0.00     0.021 C 
ENDBRANCH  27  30
ENDBRANCH  26  27
ENDBRANCH  25  26
ENDBRANCH   2  25
TORSDOF 8
ENDMDL
