MODEL 1
REMARK VINA RESULT:      -6.4      0.000      0.000
REMARK  6 active torsions:
REMARK  status: ('A' for Active; 'I' for Inactive)
REMARK    1  A    between atoms: C_3  and  N_1 
REMARK       I    between atoms: C_2  and  N_10 
REMARK    2  A    between atoms: C_9  and  C_2 
REMARK    3  A    between atoms: C_15  and  N_4 
REMARK    4  A    between atoms: O_14  and  C_8 
REMARK    5  A    between atoms: N_10  and  C_13 
REMARK    6  A    between atoms: C_13  and  C_15 
ROOT
ATOM      1  N   UNL d   1     -48.681  14.482  22.922  0.00  0.00    -0.300 N 
ATOM      2  N   UNL d   1     -47.089  14.052  22.960  0.00  0.00    -0.299 N 
ATOM      3  C   UNL d   1     -48.111  14.985  22.610  0.00  0.00     0.100 A 
ATOM      4  C   UNL d   1     -48.455  13.758  23.256  0.00  0.00     0.100 A 
ATOM      5  C   UNL d   1     -47.318  14.771  22.629  0.00  0.00     0.100 A 
ATOM      6  C   UNL d   1     -47.665  13.544  23.274  0.00  0.00     0.100 A 
ENDROOT
BRANCH   2   7
ATOM      7  C   UNL d   1     -46.296  13.837  22.978  0.00  0.00     0.101 C 
BRANCH   7   8
ATOM      8  C   UNL d   1     -45.953  13.440  22.341  0.00  0.00     0.121 C 
BRANCH   8   9
ATOM      9  N   UNL d   1     -45.145  13.365  22.286  0.00  0.00    -0.205 NA
ATOM     10  C   UNL d   1     -44.813  12.916  21.684  0.00  0.00     0.279 C 
ATOM     11  O   UNL d   1     -45.291  12.541  21.138  0.00  0.00    -0.265 OA
BRANCH  10  12
ATOM     12  C   UNL d   1     -43.984  12.839  21.628  0.00  0.00     0.058 A 
ATOM     13  C   UNL d   1     -43.614  12.232  21.980  0.00  0.00     0.005 A 
ATOM     14  C   UNL d   1     -42.785  12.155  21.924  0.00  0.00     0.000 A 
ATOM     15  C   UNL d   1     -42.348  12.709  21.503  0.00  0.00     0.000 A 
ATOM     16  C   UNL d   1     -42.749  13.347  21.134  0.00  0.00     0.000 A 
ATOM     17  C   UNL d   1     -43.554  13.414  21.194  0.00  0.00     0.005 A 
ENDBRANCH  10  12
ENDBRANCH   8   9
ENDBRANCH   7   8
ENDBRANCH   2   7
BRANCH   1  18
ATOM     18  C   UNL d   1     -49.475  14.697  22.903  0.00  0.00     0.086 A 
ATOM     19  C   UNL d   1     -49.982  14.383  22.332  0.00  0.00     0.110 A 
ATOM     20  C   UNL d   1     -50.779  14.599  22.314  0.00  0.00     0.026 A 
ATOM     21  C   UNL d   1     -51.062  15.127  22.866  0.00  0.00     0.002 A 
ATOM     22  C   UNL d   1     -50.563  15.448  23.442  0.00  0.00     0.002 A 
ATOM     23  C   UNL d   1     -49.778  15.235  23.461  0.00  0.00     0.019 A 
BRANCH  19  24
ATOM     24  O   UNL d   1     -49.680  13.842  21.771  0.00  0.00    -0.327 OA
ATOM     25  C   UNL d   1     -50.194  13.514  21.213  0.00  0.00     0.181 C 
ENDBRANCH  19  24
ENDBRANCH   1  18
TORSDOF 6
ENDMDL
MODEL 2
REMARK VINA RESULT:      -4.7      2.433      6.909
REMARK  6 active torsions:
REMARK  status: ('A' for Active; 'I' for Inactive)
REMARK    1  A    between atoms: C_3  and  N_1 
REMARK       I    between atoms: C_2  and  N_10 
REMARK    2  A    between atoms: C_9  and  C_2 
REMARK    3  A    between atoms: C_15  and  N_4 
REMARK    4  A    between atoms: O_14  and  C_8 
REMARK    5  A    between atoms: N_10  and  C_13 
REMARK    6  A    between atoms: C_13  and  C_15 
ROOT
ATOM      1  N   UNL d   1     -41.487  14.043  20.926  0.00  0.00    -0.300 N 
ATOM      2  N   UNL d   1     -42.925  13.302  21.245  0.00  0.00    -0.299 N 
ATOM      3  C   UNL d   1     -42.183  14.479  20.927  0.00  0.00     0.100 A 
ATOM      4  C   UNL d   1     -41.508  13.230  21.086  0.00  0.00     0.100 A 
ATOM      5  C   UNL d   1     -42.899  14.110  21.086  0.00  0.00     0.100 A 
ATOM      6  C   UNL d   1     -42.221  12.862  21.244  0.00  0.00     0.100 A 
ENDROOT
BRANCH   2   7
ATOM      7  C   UNL d   1     -43.642  12.933  21.403  0.00  0.00     0.101 C 
BRANCH   7   8
ATOM      8  C   UNL d   1     -44.248  13.340  21.788  0.00  0.00     0.121 C 
BRANCH   8   9
ATOM      9  N   UNL d   1     -44.924  12.952  22.023  0.00  0.00    -0.205 NA
ATOM     10  C   UNL d   1     -45.511  13.357  22.429  0.00  0.00     0.279 C 
ATOM     11  O   UNL d   1     -45.421  14.150  22.601  0.00  0.00    -0.265 OA
BRANCH  10  12
ATOM     12  C   UNL d   1     -46.204  12.959  22.670  0.00  0.00     0.058 A 
ATOM     13  C   UNL d   1     -46.171  12.410  23.242  0.00  0.00     0.005 A 
ATOM     14  C   UNL d   1     -46.864  12.012  23.483  0.00  0.00     0.000 A 
ATOM     15  C   UNL d   1     -47.583  12.188  23.127  0.00  0.00     0.000 A 
ATOM     16  C   UNL d   1     -47.607  12.769  22.523  0.00  0.00     0.000 A 
ATOM     17  C   UNL d   1     -46.929  13.151  22.296  0.00  0.00     0.005 A 
ENDBRANCH  10  12
ENDBRANCH   8   9
ENDBRANCH   7   8
ENDBRANCH   2   7
BRANCH   1  18
ATOM     18  C   UNL d   1     -40.769  14.413  20.767  0.00  0.00     0.086 A 
ATOM     19  C   UNL d   1     -40.490  14.474  19.992  0.00  0.00     0.110 A 
ATOM     20  C   UNL d   1     -39.770  14.845  19.833  0.00  0.00     0.026 A 
ATOM     21  C   UNL d   1     -39.334  15.152  20.450  0.00  0.00     0.002 A 
ATOM     22  C   UNL d   1     -39.604  15.097  21.230  0.00  0.00     0.002 A 
ATOM     23  C   UNL d   1     -40.314  14.731  21.387  0.00  0.00     0.019 A 
BRANCH  19  24
ATOM     24  O   UNL d   1     -40.946  14.155  19.368  0.00  0.00    -0.327 OA
ATOM     25  C   UNL d   1     -40.657  14.205  18.595  0.00  0.00     0.181 C 
ENDBRANCH  19  24
ENDBRANCH   1  18
TORSDOF 6
ENDMDL
MODEL 3
REMARK VINA RESULT:      -4.6      3.525      7.766
REMARK  6 active torsions:
REMARK  status: ('A' for Active; 'I' for Inactive)
REMARK    1  A    between atoms: C_3  and  N_1 
REMARK       I    between atoms: C_2  and  N_10 
REMARK    2  A    between atoms: C_9  and  C_2 
REMARK    3  A    between atoms: C_15  and  N_4 
REMARK    4  A    between atoms: O_14  and  C_8 
REMARK    5  A    between atoms: N_10  and  C_13 
REMARK    6  A    between atoms: C_13  and  C_15 
ROOT
ATOM      1  N   UNL d   1     -40.188  15.019  19.697  0.00  0.00    -0.300 N 
ATOM      2  N   UNL d   1     -41.243  14.421  20.814  0.00  0.00    -0.299 N 
ATOM      3  C   UNL d   1     -40.744  15.514  20.044  0.00  0.00     0.100 A 
ATOM      4  C   UNL d   1     -40.157  14.218  19.909  0.00  0.00     0.100 A 
ATOM      5  C   UNL d   1     -41.270  15.216  20.601  0.00  0.00     0.100 A 
ATOM      6  C   UNL d   1     -40.681  13.921  20.463  0.00  0.00     0.100 A 
ENDROOT
BRANCH   2   7
ATOM      7  C   UNL d   1     -41.768  14.122  21.371  0.00  0.00     0.101 C 
BRANCH   7   8
ATOM      8  C   UNL d   1     -42.364  13.596  21.147  0.00  0.00     0.121 C 
BRANCH   8   9
ATOM      9  N   UNL d   1     -43.029  13.503  21.607  0.00  0.00    -0.205 NA
ATOM     10  C   UNL d   1     -43.624  12.990  21.371  0.00  0.00     0.279 C 
ATOM     11  O   UNL d   1     -43.553  12.569  20.675  0.00  0.00    -0.265 OA
BRANCH  10  12
ATOM     12  C   UNL d   1     -44.306  12.894  21.843  0.00  0.00     0.058 A 
ATOM     13  C   UNL d   1     -44.369  12.272  22.331  0.00  0.00     0.005 A 
ATOM     14  C   UNL d   1     -45.051  12.176  22.803  0.00  0.00     0.000 A 
ATOM     15  C   UNL d   1     -45.659  12.727  22.764  0.00  0.00     0.000 A 
ATOM     16  C   UNL d   1     -45.582  13.381  22.244  0.00  0.00     0.000 A 
ATOM     17  C   UNL d   1     -44.916  13.466  21.790  0.00  0.00     0.005 A 
ENDBRANCH  10  12
ENDBRANCH   8   9
ENDBRANCH   7   8
ENDBRANCH   2   7
BRANCH   1  18
ATOM     18  C   UNL d   1     -39.662  15.318  19.140  0.00  0.00     0.086 A 
ATOM     19  C   UNL d   1     -39.870  15.353  18.341  0.00  0.00     0.110 A 
ATOM     20  C   UNL d   1     -39.342  15.653  17.782  0.00  0.00     0.026 A 
ATOM     21  C   UNL d   1     -38.609  15.915  18.025  0.00  0.00     0.002 A 
ATOM     22  C   UNL d   1     -38.390  15.885  18.822  0.00  0.00     0.002 A 
ATOM     23  C   UNL d   1     -38.911  15.589  19.374  0.00  0.00     0.019 A 
BRANCH  19  24
ATOM     24  O   UNL d   1     -40.624  15.081  18.104  0.00  0.00    -0.327 OA
ATOM     25  C   UNL d   1     -40.811  15.069  17.298  0.00  0.00     0.181 C 
ENDBRANCH  19  24
ENDBRANCH   1  18
TORSDOF 6
ENDMDL
MODEL 4
REMARK VINA RESULT:      -3.4      8.195      8.982
REMARK  6 active torsions:
REMARK  status: ('A' for Active; 'I' for Inactive)
REMARK    1  A    between atoms: C_3  and  N_1 
REMARK       I    between atoms: C_2  and  N_10 
REMARK    2  A    between atoms: C_9  and  C_2 
REMARK    3  A    between atoms: C_15  and  N_4 
REMARK    4  A    between atoms: O_14  and  C_8 
REMARK    5  A    between atoms: N_10  and  C_13 
REMARK    6  A    between atoms: C_13  and  C_15 
ROOT
ATOM      1  N   UNL d   1     -40.095  15.020  17.688  0.00  0.00    -0.300 N 
ATOM      2  N   UNL d   1     -39.119  14.428  18.879  0.00  0.00    -0.299 N 
ATOM      3  C   UNL d   1     -40.046  15.408  18.411  0.00  0.00     0.100 A 
ATOM      4  C   UNL d   1     -39.653  14.331  17.558  0.00  0.00     0.100 A 
ATOM      5  C   UNL d   1     -39.560  15.113  19.004  0.00  0.00     0.100 A 
ATOM      6  C   UNL d   1     -39.169  14.037  18.148  0.00  0.00     0.100 A 
ENDROOT
BRANCH   2   7
ATOM      7  C   UNL d   1     -38.633  14.133  19.472  0.00  0.00     0.101 C 
BRANCH   7   8
ATOM      8  C   UNL d   1     -38.628  14.478  20.222  0.00  0.00     0.121 C 
BRANCH   8   9
ATOM      9  N   UNL d   1     -38.604  14.015  20.891  0.00  0.00    -0.205 NA
ATOM     10  C   UNL d   1     -38.663  14.361  21.633  0.00  0.00     0.279 C 
ATOM     11  O   UNL d   1     -38.747  15.170  21.705  0.00  0.00    -0.265 OA
BRANCH  10  12
ATOM     12  C   UNL d   1     -38.639  13.886  22.319  0.00  0.00     0.058 A 
ATOM     13  C   UNL d   1     -37.965  13.522  22.528  0.00  0.00     0.005 A 
ATOM     14  C   UNL d   1     -37.940  13.047  23.215  0.00  0.00     0.000 A 
ATOM     15  C   UNL d   1     -38.614  12.956  23.675  0.00  0.00     0.000 A 
ATOM     16  C   UNL d   1     -39.320  13.345  23.445  0.00  0.00     0.000 A 
ATOM     17  C   UNL d   1     -39.336  13.804  22.777  0.00  0.00     0.005 A 
ENDBRANCH  10  12
ENDBRANCH   8   9
ENDBRANCH   7   8
ENDBRANCH   2   7
BRANCH   1  18
ATOM     18  C   UNL d   1     -40.581  15.316  17.094  0.00  0.00     0.086 A 
ATOM     19  C   UNL d   1     -40.257  15.625  16.401  0.00  0.00     0.110 A 
ATOM     20  C   UNL d   1     -40.746  15.922  15.804  0.00  0.00     0.026 A 
ATOM     21  C   UNL d   1     -41.555  15.907  15.907  0.00  0.00     0.002 A 
ATOM     22  C   UNL d   1     -41.890  15.599  16.598  0.00  0.00     0.002 A 
ATOM     23  C   UNL d   1     -41.408  15.307  17.186  0.00  0.00     0.019 A 
BRANCH  19  24
ATOM     24  O   UNL d   1     -39.426  15.635  16.307  0.00  0.00    -0.327 OA
ATOM     25  C   UNL d   1     -39.109  15.779  15.556  0.00  0.00     0.181 C 
ENDBRANCH  19  24
ENDBRANCH   1  18
TORSDOF 6
ENDMDL
