MODEL 1
REMARK VINA RESULT:      -7.0      0.000      0.000
REMARK  5 active torsions:
REMARK  status: ('A' for Active; 'I' for Inactive)
REMARK    1  A    between atoms: C_3  and  S_1 
REMARK    2  A    between atoms: N_2  and  C_4 
REMARK    3  A    between atoms: N_5  and  C_16 
REMARK    4  A    between atoms: C_11  and  N_5 
REMARK    5  A    between atoms: C_17  and  C_11 
ROOT
ATOM      1  N   UNL d   1     -47.645  13.054  22.634  0.00  0.00    -0.244 NA
ENDROOT
BRANCH   1   2
ATOM      2  C   UNL d   1     -48.304  13.558  22.644  0.00  0.00     0.082 A 
ATOM      3  C   UNL d   1     -48.229  14.342  22.438  0.00  0.00     0.020 A 
ATOM      4  C   UNL d   1     -48.883  14.845  22.447  0.00  0.00     0.015 A 
ATOM      5  C   UNL d   1     -49.614  14.534  22.669  0.00  0.00     0.107 A 
ATOM      6  C   UNL d   1     -49.689  13.751  22.874  0.00  0.00     0.015 A 
ATOM      7  C   UNL d   1     -49.036  13.247  22.866  0.00  0.00     0.020 A 
BRANCH   5   8
ATOM      8  S   UNL d   1     -50.279  15.039  22.680  0.00  0.00     0.302 S 
ATOM      9  O   UNL d   1     -50.403  14.885  21.874  0.00  0.00    -0.197 OA
ATOM     10  O   UNL d   1     -50.940  15.537  22.678  0.00  0.00    -0.197 OA
ATOM     11  N   UNL d   1     -50.154  15.189  23.478  0.00  0.00    -0.043 N 
ENDBRANCH   5   8
ENDBRANCH   1   2
BRANCH   1  12
ATOM     12  C   UNL d   1     -47.261  12.862  23.324  0.00  0.00     0.099 C 
BRANCH  12  13
ATOM     13  C   UNL d   1     -46.612  12.348  23.324  0.00  0.00     0.019 A 
ATOM     14  C   UNL d   1     -46.699  11.604  23.698  0.00  0.00     0.003 A 
ATOM     15  C   UNL d   1     -46.051  11.089  23.698  0.00  0.00     0.024 A 
ATOM     16  C   UNL d   1     -45.325  11.305  23.333  0.00  0.00     0.127 A 
ATOM     17  C   UNL d   1     -45.262  12.031  22.976  0.00  0.00     0.024 A 
ATOM     18  C   UNL d   1     -45.887  12.563  22.959  0.00  0.00     0.003 A 
BRANCH  16  19
ATOM     19  N   UNL d   1     -44.671  10.803  23.325  0.00  0.00    -0.114 N 
ATOM     20  O   UNL d   1     -43.970  11.048  22.942  0.00  0.00    -0.532 OA
ATOM     21  O   UNL d   1     -44.717  10.062  23.697  0.00  0.00    -0.532 OA
ENDBRANCH  16  19
ENDBRANCH  12  13
ENDBRANCH   1  12
TORSDOF 5
ENDMDL
MODEL 2
REMARK VINA RESULT:      -7.0      1.015      1.409
REMARK  5 active torsions:
REMARK  status: ('A' for Active; 'I' for Inactive)
REMARK    1  A    between atoms: C_3  and  S_1 
REMARK    2  A    between atoms: N_2  and  C_4 
REMARK    3  A    between atoms: N_5  and  C_16 
REMARK    4  A    between atoms: C_11  and  N_5 
REMARK    5  A    between atoms: C_17  and  C_11 
ROOT
ATOM      1  N   UNL d   1     -47.536  13.520  22.578  0.00  0.00    -0.244 NA
ENDROOT
BRANCH   1   2
ATOM      2  C   UNL d   1     -48.205  13.986  22.730  0.00  0.00     0.082 A 
ATOM      3  C   UNL d   1     -48.847  13.674  23.120  0.00  0.00     0.020 A 
ATOM      4  C   UNL d   1     -49.514  14.136  23.272  0.00  0.00     0.015 A 
ATOM      5  C   UNL d   1     -49.514  14.921  23.020  0.00  0.00     0.107 A 
ATOM      6  C   UNL d   1     -48.872  15.232  22.630  0.00  0.00     0.015 A 
ATOM      7  C   UNL d   1     -48.205  14.772  22.477  0.00  0.00     0.020 A 
BRANCH   5   8
ATOM      8  S   UNL d   1     -50.185  15.392  23.171  0.00  0.00     0.302 S 
ATOM      9  O   UNL d   1     -50.648  14.872  22.720  0.00  0.00    -0.197 OA
ATOM     10  O   UNL d   1     -50.858  15.852  23.314  0.00  0.00    -0.197 OA
ATOM     11  N   UNL d   1     -49.726  15.907  23.617  0.00  0.00    -0.043 N 
ENDBRANCH   5   8
ENDBRANCH   1   2
BRANCH   1  12
ATOM     12  C   UNL d   1     -46.848  13.633  22.997  0.00  0.00     0.099 C 
BRANCH  12  13
ATOM     13  C   UNL d   1     -46.135  13.295  22.749  0.00  0.00     0.019 A 
ATOM     14  C   UNL d   1     -45.925  12.547  23.059  0.00  0.00     0.003 A 
ATOM     15  C   UNL d   1     -45.211  12.208  22.811  0.00  0.00     0.024 A 
ATOM     16  C   UNL d   1     -44.711  12.602  22.263  0.00  0.00     0.127 A 
ATOM     17  C   UNL d   1     -44.934  13.328  21.974  0.00  0.00     0.024 A 
ATOM     18  C   UNL d   1     -45.635  13.689  22.201  0.00  0.00     0.003 A 
BRANCH  16  19
ATOM     19  N   UNL d   1     -43.997  12.278  22.007  0.00  0.00    -0.114 N 
ATOM     20  O   UNL d   1     -43.653  12.553  21.297  0.00  0.00    -0.532 OA
ATOM     21  O   UNL d   1     -43.631  11.685  22.456  0.00  0.00    -0.532 OA
ENDBRANCH  16  19
ENDBRANCH  12  13
ENDBRANCH   1  12
TORSDOF 5
ENDMDL
MODEL 3
REMARK VINA RESULT:      -6.6      1.586      5.375
REMARK  5 active torsions:
REMARK  status: ('A' for Active; 'I' for Inactive)
REMARK    1  A    between atoms: C_3  and  S_1 
REMARK    2  A    between atoms: N_2  and  C_4 
REMARK    3  A    between atoms: N_5  and  C_16 
REMARK    4  A    between atoms: C_11  and  N_5 
REMARK    5  A    between atoms: C_17  and  C_11 
ROOT
ATOM      1  N   UNL d   1     -47.276  13.043  23.296  0.00  0.00    -0.244 NA
ENDROOT
BRANCH   1   2
ATOM      2  C   UNL d   1     -46.665  12.482  23.313  0.00  0.00     0.082 A 
ATOM      3  C   UNL d   1     -46.773  11.764  23.679  0.00  0.00     0.020 A 
ATOM      4  C   UNL d   1     -46.166  11.204  23.698  0.00  0.00     0.015 A 
ATOM      5  C   UNL d   1     -45.449  11.391  23.336  0.00  0.00     0.107 A 
ATOM      6  C   UNL d   1     -45.342  12.109  22.970  0.00  0.00     0.015 A 
ATOM      7  C   UNL d   1     -45.947  12.669  22.951  0.00  0.00     0.020 A 
BRANCH   5   8
ATOM      8  S   UNL d   1     -44.833  10.829  23.352  0.00  0.00     0.302 S 
ATOM      9  O   UNL d   1     -44.307  11.403  23.065  0.00  0.00    -0.197 OA
ATOM     10  O   UNL d   1     -44.213  10.279  23.363  0.00  0.00    -0.197 OA
ATOM     11  N   UNL d   1     -45.355  10.261  23.636  0.00  0.00    -0.043 N 
ENDBRANCH   5   8
ENDBRANCH   1   2
BRANCH   1  12
ATOM     12  C   UNL d   1     -47.774  13.094  22.655  0.00  0.00     0.099 C 
BRANCH  12  13
ATOM     13  C   UNL d   1     -48.395  13.640  22.637  0.00  0.00     0.019 A 
ATOM     14  C   UNL d   1     -48.203  14.451  22.557  0.00  0.00     0.003 A 
ATOM     15  C   UNL d   1     -48.824  14.999  22.540  0.00  0.00     0.024 A 
ATOM     16  C   UNL d   1     -49.624  14.750  22.600  0.00  0.00     0.127 A 
ATOM     17  C   UNL d   1     -49.788  13.959  22.677  0.00  0.00     0.024 A 
ATOM     18  C   UNL d   1     -49.195  13.392  22.698  0.00  0.00     0.003 A 
BRANCH  16  19
ATOM     19  N   UNL d   1     -50.253  15.283  22.584  0.00  0.00    -0.114 N 
ATOM     20  O   UNL d   1     -50.264  15.922  23.123  0.00  0.00    -0.532 OA
ATOM     21  O   UNL d   1     -50.866  15.178  22.035  0.00  0.00    -0.532 OA
ENDBRANCH  16  19
ENDBRANCH  12  13
ENDBRANCH   1  12
TORSDOF 5
ENDMDL
MODEL 4
REMARK VINA RESULT:      -5.9      8.660      9.873
REMARK  5 active torsions:
REMARK  status: ('A' for Active; 'I' for Inactive)
REMARK    1  A    between atoms: C_3  and  S_1 
REMARK    2  A    between atoms: N_2  and  C_4 
REMARK    3  A    between atoms: N_5  and  C_16 
REMARK    4  A    between atoms: C_11  and  N_5 
REMARK    5  A    between atoms: C_17  and  C_11 
ROOT
ATOM      1  N   UNL d   1     -39.472  14.611  20.273  0.00  0.00    -0.244 NA
ENDROOT
BRANCH   1   2
ATOM      2  C   UNL d   1     -39.171  14.259  20.962  0.00  0.00     0.082 A 
ATOM      3  C   UNL d   1     -39.673  13.959  21.526  0.00  0.00     0.020 A 
ATOM      4  C   UNL d   1     -39.376  13.609  22.212  0.00  0.00     0.015 A 
ATOM      5  C   UNL d   1     -38.559  13.571  22.311  0.00  0.00     0.107 A 
ATOM      6  C   UNL d   1     -38.057  13.872  21.747  0.00  0.00     0.015 A 
ATOM      7  C   UNL d   1     -38.353  14.222  21.061  0.00  0.00     0.020 A 
BRANCH   5   8
ATOM      8  S   UNL d   1     -38.253  13.218  23.003  0.00  0.00     0.302 S 
ATOM      9  O   UNL d   1     -38.071  12.534  22.569  0.00  0.00    -0.197 OA
ATOM     10  O   UNL d   1     -37.947  12.858  23.682  0.00  0.00    -0.197 OA
ATOM     11  N   UNL d   1     -38.433  13.896  23.431  0.00  0.00    -0.043 N 
ENDBRANCH   5   8
ENDBRANCH   1   2
BRANCH   1  12
ATOM     12  C   UNL d   1     -39.904  14.175  19.740  0.00  0.00     0.099 C 
BRANCH  12  13
ATOM     13  C   UNL d   1     -40.140  14.497  19.015  0.00  0.00     0.019 A 
ATOM     14  C   UNL d   1     -40.605  15.192  19.026  0.00  0.00     0.003 A 
ATOM     15  C   UNL d   1     -40.842  15.515  18.300  0.00  0.00     0.024 A 
ATOM     16  C   UNL d   1     -40.621  15.156  17.573  0.00  0.00     0.127 A 
ATOM     17  C   UNL d   1     -40.169  14.482  17.586  0.00  0.00     0.024 A 
ATOM     18  C   UNL d   1     -39.920  14.139  18.288  0.00  0.00     0.003 A 
BRANCH  16  19
ATOM     19  N   UNL d   1     -40.848  15.465  16.844  0.00  0.00    -0.114 N 
ATOM     20  O   UNL d   1     -40.304  15.922  16.404  0.00  0.00    -0.532 OA
ATOM     21  O   UNL d   1     -41.613  15.319  16.556  0.00  0.00    -0.532 OA
ENDBRANCH  16  19
ENDBRANCH  12  13
ENDBRANCH   1  12
TORSDOF 5
ENDMDL
MODEL 5
REMARK VINA RESULT:      -5.8      8.689      9.092
REMARK  5 active torsions:
REMARK  status: ('A' for Active; 'I' for Inactive)
REMARK    1  A    between atoms: C_3  and  S_1 
REMARK    2  A    between atoms: N_2  and  C_4 
REMARK    3  A    between atoms: N_5  and  C_16 
REMARK    4  A    between atoms: C_11  and  N_5 
REMARK    5  A    between atoms: C_17  and  C_11 
ROOT
ATOM      1  N   UNL d   1     -39.830  14.202  19.757  0.00  0.00    -0.244 NA
ENDROOT
BRANCH   1   2
ATOM      2  C   UNL d   1     -40.090  14.532  19.041  0.00  0.00     0.082 A 
ATOM      3  C   UNL d   1     -40.450  15.261  19.027  0.00  0.00     0.020 A 
ATOM      4  C   UNL d   1     -40.709  15.590  18.316  0.00  0.00     0.015 A 
ATOM      5  C   UNL d   1     -40.595  15.163  17.621  0.00  0.00     0.107 A 
ATOM      6  C   UNL d   1     -40.236  14.433  17.635  0.00  0.00     0.015 A 
ATOM      7  C   UNL d   1     -39.976  14.103  18.345  0.00  0.00     0.020 A 
BRANCH   5   8
ATOM      8  S   UNL d   1     -40.855  15.491  16.899  0.00  0.00     0.302 S 
ATOM      9  O   UNL d   1     -41.607  15.164  17.026  0.00  0.00    -0.197 OA
ATOM     10  O   UNL d   1     -41.124  15.812  16.185  0.00  0.00    -0.197 OA
ATOM     11  N   UNL d   1     -40.110  15.814  16.776  0.00  0.00    -0.043 N 
ENDBRANCH   5   8
ENDBRANCH   1   2
BRANCH   1  12
ATOM     12  C   UNL d   1     -39.220  14.542  20.172  0.00  0.00     0.099 C 
BRANCH  12  13
ATOM     13  C   UNL d   1     -38.936  14.202  20.871  0.00  0.00     0.019 A 
ATOM     14  C   UNL d   1     -39.379  14.315  21.572  0.00  0.00     0.003 A 
ATOM     15  C   UNL d   1     -39.095  13.974  22.272  0.00  0.00     0.024 A 
ATOM     16  C   UNL d   1     -38.383  13.528  22.280  0.00  0.00     0.127 A 
ATOM     17  C   UNL d   1     -37.969  13.431  21.588  0.00  0.00     0.024 A 
ATOM     18  C   UNL d   1     -38.224  13.756  20.879  0.00  0.00     0.003 A 
BRANCH  16  19
ATOM     19  N   UNL d   1     -38.087  13.184  22.968  0.00  0.00    -0.114 N 
ATOM     20  O   UNL d   1     -37.941  13.662  23.637  0.00  0.00    -0.532 OA
ATOM     21  O   UNL d   1     -37.940  12.367  22.987  0.00  0.00    -0.532 OA
ENDBRANCH  16  19
ENDBRANCH  12  13
ENDBRANCH   1  12
TORSDOF 5
ENDMDL
MODEL 6
REMARK VINA RESULT:      -4.6      9.075      9.934
REMARK  5 active torsions:
REMARK  status: ('A' for Active; 'I' for Inactive)
REMARK    1  A    between atoms: C_3  and  S_1 
REMARK    2  A    between atoms: N_2  and  C_4 
REMARK    3  A    between atoms: N_5  and  C_16 
REMARK    4  A    between atoms: C_11  and  N_5 
REMARK    5  A    between atoms: C_17  and  C_11 
ROOT
ATOM      1  N   UNL d   1     -39.112  14.007  19.598  0.00  0.00    -0.244 NA
ENDROOT
BRANCH   1   2
ATOM      2  C   UNL d   1     -39.087  14.305  18.824  0.00  0.00     0.082 A 
ATOM      3  C   UNL d   1     -38.708  15.006  18.663  0.00  0.00     0.020 A 
ATOM      4  C   UNL d   1     -38.682  15.304  17.894  0.00  0.00     0.015 A 
ATOM      5  C   UNL d   1     -39.049  14.875  17.293  0.00  0.00     0.107 A 
ATOM      6  C   UNL d   1     -39.428  14.174  17.455  0.00  0.00     0.015 A 
ATOM      7  C   UNL d   1     -39.455  13.875  18.223  0.00  0.00     0.020 A 
BRANCH   5   8
ATOM      8  S   UNL d   1     -39.025  15.172  16.514  0.00  0.00     0.302 S 
ATOM      9  O   UNL d   1     -39.670  15.665  16.687  0.00  0.00    -0.197 OA
ATOM     10  O   UNL d   1     -39.011  15.474  15.743  0.00  0.00    -0.197 OA
ATOM     11  N   UNL d   1     -38.387  14.683  16.345  0.00  0.00    -0.043 N 
ENDBRANCH   5   8
ENDBRANCH   1   2
BRANCH   1  12
ATOM     12  C   UNL d   1     -38.561  14.236  20.149  0.00  0.00     0.099 C 
BRANCH  12  13
ATOM     13  C   UNL d   1     -38.568  13.927  20.916  0.00  0.00     0.019 A 
ATOM     14  C   UNL d   1     -37.940  13.424  21.144  0.00  0.00     0.003 A 
ATOM     15  C   UNL d   1     -37.946  13.115  21.912  0.00  0.00     0.024 A 
ATOM     16  C   UNL d   1     -38.566  13.299  22.449  0.00  0.00     0.127 A 
ATOM     17  C   UNL d   1     -39.166  13.789  22.208  0.00  0.00     0.024 A 
ATOM     18  C   UNL d   1     -39.187  14.112  21.453  0.00  0.00     0.003 A 
BRANCH  16  19
ATOM     19  N   UNL d   1     -38.587  12.999  23.217  0.00  0.00    -0.114 N 
ATOM     20  O   UNL d   1     -39.254  13.147  23.698  0.00  0.00    -0.532 OA
ATOM     21  O   UNL d   1     -37.946  12.554  23.501  0.00  0.00    -0.532 OA
ENDBRANCH  16  19
ENDBRANCH  12  13
ENDBRANCH   1  12
TORSDOF 5
ENDMDL
