MODEL 1
REMARK VINA RESULT:      22.6      0.000      0.000
REMARK  5 active torsions:
REMARK  status: ('A' for Active; 'I' for Inactive)
REMARK    1  A    between atoms: C_6  and  C_1 
REMARK    2  A    between atoms: C_7  and  C_4 
REMARK    3  A    between atoms: O_14  and  C_6 
REMARK    4  A    between atoms: O_15  and  C_9 
REMARK    5  A    between atoms: O_16  and  C_10 
ROOT
ATOM      1  C   UNL d   1     -52.267  25.382  33.328  0.00  0.00     0.027 A 
ATOM      2  C   UNL d   1     -51.865  24.658  33.319  0.00  0.00     0.028 A 
ATOM      3  C   UNL d   1     -52.285  23.952  33.316  0.00  0.00     0.116 A 
ATOM      4  C   UNL d   1     -53.113  23.963  33.323  0.00  0.00     0.116 A 
ATOM      5  C   UNL d   1     -53.095  25.393  33.335  0.00  0.00     0.004 A 
ATOM      6  C   UNL d   1     -53.515  24.679  33.332  0.00  0.00     0.026 A 
ENDROOT
BRANCH   1   7
ATOM      7  C   UNL d   1     -51.847  26.092  33.330  0.00  0.00     0.127 A 
ATOM      8  C   UNL d   1     -51.028  26.163  33.356  0.00  0.00     0.054 A 
ATOM      9  C   UNL d   1     -50.844  26.969  33.349  0.00  0.00     0.173 A 
ATOM     10  N   UNL d   1     -51.553  27.389  33.320  0.00  0.00    -0.121 NA
ATOM     11  O   UNL d   1     -52.170  26.841  33.308  0.00  0.00    -0.211 OA
BRANCH   9  12
ATOM     12  C   UNL d   1     -50.092  27.295  33.369  0.00  0.00     0.316 C 
ATOM     13  O   UNL d   1     -49.426  26.805  33.312  0.00  0.00    -0.257 OA
BRANCH  12  14
ATOM     14  O   UNL d   1     -49.997  28.109  33.445  0.00  0.00    -0.294 OA
ATOM     15  C   UNL d   1     -49.258  28.416  33.623  0.00  0.00     0.185 C 
ENDBRANCH  12  14
ENDBRANCH   9  12
ENDBRANCH   1   7
BRANCH   3  16
ATOM     16  O   UNL d   1     -51.884  23.236  33.307  0.00  0.00    -0.326 OA
ATOM     17  C   UNL d   1     -51.122  23.190  33.610  0.00  0.00     0.181 C 
ENDBRANCH   3  16
BRANCH   4  18
ATOM     18  O   UNL d   1     -53.529  23.257  33.320  0.00  0.00    -0.326 OA
ATOM     19  C   UNL d   1     -54.349  23.265  33.399  0.00  0.00     0.181 C 
ENDBRANCH   4  18
TORSDOF 5
ENDMDL
MODEL 2
REMARK VINA RESULT:      23.0      1.271      4.191
REMARK  5 active torsions:
REMARK  status: ('A' for Active; 'I' for Inactive)
REMARK    1  A    between atoms: C_6  and  C_1 
REMARK    2  A    between atoms: C_7  and  C_4 
REMARK    3  A    between atoms: O_14  and  C_6 
REMARK    4  A    between atoms: O_15  and  C_9 
REMARK    5  A    between atoms: O_16  and  C_10 
ROOT
ATOM      1  C   UNL d   1     -51.383  25.586  33.470  0.00  0.00     0.027 A 
ATOM      2  C   UNL d   1     -50.559  25.657  33.512  0.00  0.00     0.028 A 
ATOM      3  C   UNL d   1     -50.204  26.396  33.458  0.00  0.00     0.116 A 
ATOM      4  C   UNL d   1     -50.671  27.073  33.361  0.00  0.00     0.116 A 
ATOM      5  C   UNL d   1     -51.849  26.263  33.374  0.00  0.00     0.004 A 
ATOM      6  C   UNL d   1     -51.488  27.007  33.320  0.00  0.00     0.026 A 
ENDROOT
BRANCH   1   7
ATOM      7  C   UNL d   1     -51.741  24.845  33.524  0.00  0.00     0.127 A 
ATOM      8  C   UNL d   1     -52.518  24.704  33.753  0.00  0.00     0.054 A 
ATOM      9  C   UNL d   1     -52.645  23.888  33.730  0.00  0.00     0.173 A 
ATOM     10  N   UNL d   1     -51.942  23.531  33.486  0.00  0.00    -0.121 NA
ATOM     11  O   UNL d   1     -51.387  24.128  33.360  0.00  0.00    -0.211 OA
BRANCH   9  12
ATOM     12  C   UNL d   1     -53.343  23.500  33.916  0.00  0.00     0.316 C 
ATOM     13  O   UNL d   1     -53.537  23.352  34.708  0.00  0.00    -0.257 OA
BRANCH  12  14
ATOM     14  O   UNL d   1     -53.852  23.257  33.316  0.00  0.00    -0.294 OA
ATOM     15  C   UNL d   1     -54.656  23.195  33.467  0.00  0.00     0.185 C 
ENDBRANCH  12  14
ENDBRANCH   9  12
ENDBRANCH   1   7
BRANCH   3  16
ATOM     16  O   UNL d   1     -49.387  26.462  33.500  0.00  0.00    -0.326 OA
ATOM     17  C   UNL d   1     -48.926  25.791  33.613  0.00  0.00     0.181 C 
ENDBRANCH   3  16
BRANCH   4  18
ATOM     18  O   UNL d   1     -50.314  27.808  33.308  0.00  0.00    -0.326 OA
ATOM     19  C   UNL d   1     -50.767  28.490  33.393  0.00  0.00     0.181 C 
ENDBRANCH   4  18
TORSDOF 5
ENDMDL
