MODEL 1
REMARK VINA RESULT:      63.4      0.000      0.000
REMARK  5 active torsions:
REMARK  status: ('A' for Active; 'I' for Inactive)
REMARK    1  A    between atoms: C_7  and  C_1 
REMARK    2  A    between atoms: C_6  and  O_13 
REMARK    3  A    between atoms: C_12  and  C_6 
REMARK    4  A    between atoms: O_13  and  C_10 
REMARK    5  A    between atoms: C_28  and  C_14 
ROOT
ATOM      1  C   UNL d   1      45.412 -17.969  40.111  0.00  0.00     0.064 A 
ATOM      2  C   UNL d   1      45.566 -17.052  39.031  0.00  0.00     0.062 A 
ATOM      3  C   UNL d   1      45.874 -17.430  39.695  0.00  0.00     0.199 A 
ATOM      4  C   UNL d   1      44.642 -18.130  39.864  0.00  0.00     0.126 A 
ATOM      5  C   UNL d   1      44.796 -17.214  38.784  0.00  0.00     0.105 A 
ATOM      6  O   UNL d   1      44.333 -17.753  39.201  0.00  0.00    -0.305 OA
ATOM      7  C   UNL d   1      46.028 -16.514  38.615  0.00  0.00     0.007 A 
ATOM      8  C   UNL d   1      44.951 -16.295  37.701  0.00  0.00     0.105 A 
ATOM      9  C   UNL d   1      44.488 -16.837  38.121  0.00  0.00     0.050 A 
ATOM     10  C   UNL d   1      45.720 -16.133  37.948  0.00  0.00     0.023 A 
ATOM     11  O   UNL d   1      46.645 -17.269  39.942  0.00  0.00    -0.286 OA
ENDROOT
BRANCH   1  12
ATOM     12  C   UNL d   1      45.720 -18.347  40.775  0.00  0.00     0.007 A 
ATOM     13  C   UNL d   1      45.451 -18.142  41.538  0.00  0.00     0.027 A 
ATOM     14  C   UNL d   1      45.754 -18.513  42.198  0.00  0.00     0.123 A 
ATOM     15  O   UNL d   1      45.484 -18.307  42.948  0.00  0.00    -0.301 OA
ATOM     16  C   UNL d   1      46.339 -19.105  42.114  0.00  0.00     0.123 A 
ATOM     17  C   UNL d   1      45.793 -18.686  43.616  0.00  0.00     0.149 A 
ATOM     18  C   UNL d   1      46.370 -19.270  43.537  0.00  0.00     0.149 A 
ATOM     19  O   UNL d   1      46.645 -19.480  42.779  0.00  0.00    -0.301 OA
ATOM     20  C   UNL d   1      46.609 -19.310  41.351  0.00  0.00     0.027 A 
ATOM     21  C   UNL d   1      46.300 -18.932  40.688  0.00  0.00     0.002 A 
ENDBRANCH   1  12
BRANCH  10  22
ATOM     22  C   UNL d   1      46.184 -15.589  37.525  0.00  0.00     0.002 C 
ATOM     23  C   UNL d   1      46.479 -14.918  37.900  0.00  0.00     0.000 C 
ENDBRANCH  10  22
BRANCH   8  24
ATOM     24  O   UNL d   1      44.643 -15.912  37.031  0.00  0.00    -0.271 OA
BRANCH  24  25
ATOM     25  C   UNL d   1      43.942 -16.178  36.688  0.00  0.00     0.323 C 
ATOM     26  O   UNL d   1      43.904 -16.917  36.333  0.00  0.00    -0.257 OA
BRANCH  25  27
ATOM     27  C   UNL d   1      43.268 -15.695  36.701  0.00  0.00     0.163 A 
ATOM     28  O   UNL d   1      43.213 -14.947  37.036  0.00  0.00    -0.300 OA
ATOM     29  C   UNL d   1      42.446 -14.663  36.926  0.00  0.00     0.123 A 
ATOM     30  C   UNL d   1      42.022 -15.249  36.517  0.00  0.00     0.029 A 
ATOM     31  C   UNL d   1      42.537 -15.886  36.380  0.00  0.00     0.032 A 
ENDBRANCH  25  27
ENDBRANCH  24  25
ENDBRANCH   8  24
TORSDOF 5
ENDMDL
