MODEL 1
REMARK VINA RESULT:       5.5      0.000      0.000
REMARK  5 active torsions:
REMARK  status: ('A' for Active; 'I' for Inactive)
REMARK    1  A    between atoms: N_2  and  C_1 
REMARK    2  A    between atoms: C_13  and  N_6 
REMARK    3  A    between atoms: C_12  and  C_7 
REMARK    4  A    between atoms: O_22  and  C_19 
REMARK    5  A    between atoms: C_25  and  O_22 
ROOT
ATOM      1  N   UNL d   1     -41.576-121.107 -51.936  0.00  0.00    -0.288 N 
ATOM      2  C   UNL d   1     -41.749-121.277 -51.144  0.00  0.00     0.196 A 
ATOM      3  S   UNL d   1     -41.614-120.578 -50.718  0.00  0.00    -0.092 SA
ATOM      4  C   UNL d   1     -41.342-120.322 -51.988  0.00  0.00     0.268 A 
ATOM      5  C   UNL d   1     -41.372-120.006 -51.206  0.00  0.00     0.093 A 
ATOM      6  O   UNL d   1     -41.125-119.938 -52.663  0.00  0.00    -0.266 OA
ENDROOT
BRANCH   1   7
ATOM      7  C   UNL d   1     -41.655-121.680 -52.495  0.00  0.00     0.139 A 
ATOM      8  C   UNL d   1     -41.926-121.539 -53.229  0.00  0.00     0.296 A 
ATOM      9  N   UNL d   1     -41.933-122.240 -53.647  0.00  0.00    -0.209 N 
ATOM     10  O   UNL d   1     -42.164-120.785 -53.514  0.00  0.00    -0.264 OA
ATOM     11  N   UNL d   1     -41.660-122.818 -53.155  0.00  0.00    -0.238 N 
ATOM     12  C   UNL d   1     -41.483-122.456 -52.422  0.00  0.00     0.102 A 
ATOM     13  C   UNL d   1     -41.573-123.604 -53.339  0.00  0.00     0.120 C 
ATOM     14  C   UNL d   1     -41.181-122.825 -51.724  0.00  0.00     0.022 C 
BRANCH   9  15
ATOM     15  C   UNL d   1     -42.151-122.431 -54.409  0.00  0.00     0.085 A 
ATOM     16  C   UNL d   1     -41.584-122.521 -54.993  0.00  0.00     0.019 A 
ATOM     17  C   UNL d   1     -41.806-122.713 -55.755  0.00  0.00     0.002 A 
ATOM     18  C   UNL d   1     -42.597-122.820 -55.953  0.00  0.00     0.000 A 
ATOM     19  C   UNL d   1     -43.158-122.727 -55.357  0.00  0.00     0.002 A 
ATOM     20  C   UNL d   1     -42.940-122.536 -54.599  0.00  0.00     0.019 A 
ENDBRANCH   9  15
ENDBRANCH   1   7
BRANCH   2  21
ATOM     21  C   UNL d   1     -42.003-121.918 -50.701  0.00  0.00    -0.001 A 
ATOM     22  C   UNL d   1     -41.466-122.542 -50.360  0.00  0.00    -0.000 A 
ATOM     23  C   UNL d   1     -41.822-123.197 -49.896  0.00  0.00     0.024 A 
ATOM     24  C   UNL d   1     -42.683-123.201 -49.794  0.00  0.00     0.100 A 
ATOM     25  C   UNL d   1     -43.158-122.602 -50.125  0.00  0.00     0.024 A 
ATOM     26  C   UNL d   1     -42.848-121.962 -50.574  0.00  0.00    -0.000 A 
BRANCH  24  27
ATOM     27  O   UNL d   1     -42.986-123.816 -49.362  0.00  0.00    -0.305 OA
BRANCH  27  28
ATOM     28  C   UNL d   1     -43.432-123.633 -48.607  0.00  0.00     0.123 C 
ATOM     29  C   UNL d   1     -43.026-123.734 -47.877  0.00  0.00     0.029 C 
ENDBRANCH  27  28
ENDBRANCH  24  27
ENDBRANCH   2  21
TORSDOF 5
ENDMDL
MODEL 2
REMARK VINA RESULT:       5.9      1.233      4.288
REMARK  5 active torsions:
REMARK  status: ('A' for Active; 'I' for Inactive)
REMARK    1  A    between atoms: N_2  and  C_1 
REMARK    2  A    between atoms: C_13  and  N_6 
REMARK    3  A    between atoms: C_12  and  C_7 
REMARK    4  A    between atoms: O_22  and  C_19 
REMARK    5  A    between atoms: C_25  and  O_22 
ROOT
ATOM      1  N   UNL d   1     -41.523-121.046 -51.583  0.00  0.00    -0.288 N 
ATOM      2  C   UNL d   1     -41.569-120.972 -52.407  0.00  0.00     0.196 A 
ATOM      3  S   UNL d   1     -41.317-120.202 -52.588  0.00  0.00    -0.092 SA
ATOM      4  C   UNL d   1     -41.250-120.337 -51.273  0.00  0.00     0.268 A 
ATOM      5  C   UNL d   1     -41.127-119.817 -51.926  0.00  0.00     0.093 A 
ATOM      6  O   UNL d   1     -41.128-120.179 -50.492  0.00  0.00    -0.266 OA
ENDROOT
BRANCH   1   7
ATOM      7  C   UNL d   1     -41.733-121.739 -51.231  0.00  0.00     0.139 A 
ATOM      8  C   UNL d   1     -42.155-121.775 -50.558  0.00  0.00     0.296 A 
ATOM      9  N   UNL d   1     -42.267-122.558 -50.359  0.00  0.00    -0.209 N 
ATOM     10  O   UNL d   1     -42.435-121.107 -50.133  0.00  0.00    -0.264 OA
ATOM     11  N   UNL d   1     -41.904-123.006 -50.923  0.00  0.00    -0.238 N 
ATOM     12  C   UNL d   1     -41.564-122.479 -51.477  0.00  0.00     0.102 A 
ATOM     13  C   UNL d   1     -41.874-123.817 -50.948  0.00  0.00     0.120 C 
ATOM     14  C   UNL d   1     -41.124-122.673 -52.172  0.00  0.00     0.022 C 
BRANCH   9  15
ATOM     15  C   UNL d   1     -42.650-122.926 -49.741  0.00  0.00     0.085 A 
ATOM     16  C   UNL d   1     -43.344-123.342 -49.870  0.00  0.00     0.019 A 
ATOM     17  C   UNL d   1     -43.725-123.709 -49.249  0.00  0.00     0.002 A 
ATOM     18  C   UNL d   1     -43.424-123.671 -48.484  0.00  0.00     0.000 A 
ATOM     19  C   UNL d   1     -42.726-123.250 -48.367  0.00  0.00     0.002 A 
ATOM     20  C   UNL d   1     -42.346-122.885 -48.983  0.00  0.00     0.019 A 
ENDBRANCH   9  15
ENDBRANCH   1   7
BRANCH   2  21
ATOM     21  C   UNL d   1     -41.784-121.434 -53.048  0.00  0.00    -0.001 A 
ATOM     22  C   UNL d   1     -41.258-122.039 -53.436  0.00  0.00    -0.000 A 
ATOM     23  C   UNL d   1     -41.568-122.493 -54.120  0.00  0.00     0.024 A 
ATOM     24  C   UNL d   1     -42.377-122.326 -54.384  0.00  0.00     0.100 A 
ATOM     25  C   UNL d   1     -42.845-121.754 -53.999  0.00  0.00     0.024 A 
ATOM     26  C   UNL d   1     -42.577-121.303 -53.342  0.00  0.00    -0.000 A 
BRANCH  24  27
ATOM     27  O   UNL d   1     -42.640-122.758 -55.017  0.00  0.00    -0.305 OA
BRANCH  27  28
ATOM     28  C   UNL d   1     -42.885-122.325 -55.762  0.00  0.00     0.123 C 
ATOM     29  C   UNL d   1     -42.277-122.083 -56.292  0.00  0.00     0.029 C 
ENDBRANCH  27  28
ENDBRANCH  24  27
ENDBRANCH   2  21
TORSDOF 5
ENDMDL
