MODEL 1
REMARK VINA RESULT:      -8.1      0.000      0.000
REMARK  4 active torsions:
REMARK  status: ('A' for Active; 'I' for Inactive)
REMARK    1  A    between atoms: C_2  and  C_1 
REMARK       I    between atoms: N_7  and  C_2 
REMARK    2  A    between atoms: N_6  and  C_5 
REMARK    3  A    between atoms: C_10  and  N_7 
REMARK    4  A    between atoms: C_8  and  C_9 
ROOT
ATOM      1  C   UNL d   1     -47.134  13.504  22.789  0.00  0.00     0.021 A 
ATOM      2  C   UNL d   1     -48.500  13.830  22.528  0.00  0.00     0.085 A 
ATOM      3  C   UNL d   1     -47.909  13.265  22.640  0.00  0.00     0.021 A 
ATOM      4  C   UNL d   1     -46.950  14.308  22.826  0.00  0.00     0.002 A 
ATOM      5  C   UNL d   1     -47.539  14.864  22.714  0.00  0.00     0.002 A 
ATOM      6  C   UNL d   1     -48.314  14.625  22.565  0.00  0.00     0.019 A 
ENDROOT
BRANCH   1   7
ATOM      7  C   UNL d   1     -46.539  12.931  22.902  0.00  0.00     0.103 A 
ATOM      8  N   UNL d   1     -46.549  12.458  23.570  0.00  0.00    -0.147 NA
ATOM      9  N   UNL d   1     -45.958  11.891  23.678  0.00  0.00    -0.130 NA
ATOM     10  C   UNL d   1     -45.362  11.804  23.114  0.00  0.00     0.169 A 
ATOM     11  C   UNL d   1     -45.358  12.287  22.440  0.00  0.00     0.041 A 
ATOM     12  C   UNL d   1     -45.943  12.844  22.339  0.00  0.00     0.024 A 
BRANCH  10  13
ATOM     13  N   UNL d   1     -44.776  11.244  23.218  0.00  0.00    -0.288 N 
ATOM     14  C   UNL d   1     -44.953  10.528  23.588  0.00  0.00     0.082 A 
ATOM     15  C   UNL d   1     -44.364   9.960  23.695  0.00  0.00     0.019 A 
ATOM     16  C   UNL d   1     -43.597  10.108  23.431  0.00  0.00     0.003 A 
ATOM     17  C   UNL d   1     -43.418  10.824  23.060  0.00  0.00     0.019 A 
ATOM     18  C   UNL d   1     -44.008  11.392  22.954  0.00  0.00     0.082 A 
ENDBRANCH  10  13
ENDBRANCH   1   7
BRANCH   2  19
ATOM     19  N   UNL d   1     -49.276  13.590  22.379  0.00  0.00    -0.205 NA
ATOM     20  C   UNL d   1     -49.518  13.428  21.615  0.00  0.00     0.351 C 
ATOM     21  O   UNL d   1     -48.983  13.505  20.991  0.00  0.00    -0.261 OA
BRANCH  20  22
ATOM     22  C   UNL d   1     -50.289  13.190  21.467  0.00  0.00     0.474 C 
ATOM     23  F   UNL d   1     -51.064  12.951  21.318  0.00  0.00    -0.162 F 
ATOM     24  F   UNL d   1     -50.136  12.467  21.833  0.00  0.00    -0.162 F 
ATOM     25  F   UNL d   1     -50.442  13.914  21.100  0.00  0.00    -0.162 F 
ENDBRANCH  20  22
ENDBRANCH   2  19
TORSDOF 4
ENDMDL
MODEL 2
REMARK VINA RESULT:      -7.4      2.912      5.436
REMARK  4 active torsions:
REMARK  status: ('A' for Active; 'I' for Inactive)
REMARK    1  A    between atoms: C_2  and  C_1 
REMARK       I    between atoms: N_7  and  C_2 
REMARK    2  A    between atoms: N_6  and  C_5 
REMARK    3  A    between atoms: C_10  and  N_7 
REMARK    4  A    between atoms: C_8  and  C_9 
ROOT
ATOM      1  C   UNL d   1     -46.892  12.911  23.030  0.00  0.00     0.021 A 
ATOM      2  C   UNL d   1     -45.547  12.735  22.580  0.00  0.00     0.085 A 
ATOM      3  C   UNL d   1     -46.249  13.170  22.583  0.00  0.00     0.021 A 
ATOM      4  C   UNL d   1     -46.834  12.217  23.474  0.00  0.00     0.002 A 
ATOM      5  C   UNL d   1     -46.136  11.790  23.468  0.00  0.00     0.002 A 
ATOM      6  C   UNL d   1     -45.493  12.049  23.021  0.00  0.00     0.019 A 
ENDROOT
BRANCH   1   7
ATOM      7  C   UNL d   1     -47.599  13.352  23.031  0.00  0.00     0.103 A 
ATOM      8  N   UNL d   1     -48.309  12.987  23.208  0.00  0.00    -0.147 NA
ATOM      9  N   UNL d   1     -49.007  13.427  23.207  0.00  0.00    -0.130 NA
ATOM     10  C   UNL d   1     -48.986  14.233  23.029  0.00  0.00     0.169 A 
ATOM     11  C   UNL d   1     -48.264  14.597  22.850  0.00  0.00     0.041 A 
ATOM     12  C   UNL d   1     -47.578  14.157  22.852  0.00  0.00     0.024 A 
BRANCH  10  13
ATOM     13  N   UNL d   1     -49.676  14.672  23.028  0.00  0.00    -0.288 N 
ATOM     14  C   UNL d   1     -49.761  15.302  23.554  0.00  0.00     0.082 A 
ATOM     15  C   UNL d   1     -50.455  15.748  23.556  0.00  0.00     0.019 A 
ATOM     16  C   UNL d   1     -51.064  15.565  23.031  0.00  0.00     0.003 A 
ATOM     17  C   UNL d   1     -50.980  14.934  22.504  0.00  0.00     0.019 A 
ATOM     18  C   UNL d   1     -50.285  14.488  22.503  0.00  0.00     0.082 A 
ENDBRANCH  10  13
ENDBRANCH   1   7
BRANCH   2  19
ATOM     19  N   UNL d   1     -44.904  12.995  22.134  0.00  0.00    -0.205 NA
ATOM     20  C   UNL d   1     -44.225  12.541  22.085  0.00  0.00     0.351 C 
ATOM     21  O   UNL d   1     -44.186  11.820  22.485  0.00  0.00    -0.261 OA
BRANCH  20  22
ATOM     22  C   UNL d   1     -43.586  12.798  21.641  0.00  0.00     0.474 C 
ATOM     23  F   UNL d   1     -42.943  13.057  21.194  0.00  0.00    -0.162 F 
ATOM     24  F   UNL d   1     -43.173  12.112  21.837  0.00  0.00    -0.162 F 
ATOM     25  F   UNL d   1     -43.999  13.485  21.445  0.00  0.00    -0.162 F 
ENDBRANCH  20  22
ENDBRANCH   2  19
TORSDOF 4
ENDMDL
MODEL 3
REMARK VINA RESULT:      -7.3      2.804      5.347
REMARK  4 active torsions:
REMARK  status: ('A' for Active; 'I' for Inactive)
REMARK    1  A    between atoms: C_2  and  C_1 
REMARK       I    between atoms: N_7  and  C_2 
REMARK    2  A    between atoms: N_6  and  C_5 
REMARK    3  A    between atoms: C_10  and  N_7 
REMARK    4  A    between atoms: C_8  and  C_9 
ROOT
ATOM      1  C   UNL d   1     -46.374  13.113  22.660  0.00  0.00     0.021 A 
ATOM      2  C   UNL d   1     -45.356  12.145  22.919  0.00  0.00     0.085 A 
ATOM      3  C   UNL d   1     -46.138  12.396  22.994  0.00  0.00     0.021 A 
ATOM      4  C   UNL d   1     -45.828  13.578  22.252  0.00  0.00     0.002 A 
ATOM      5  C   UNL d   1     -45.054  13.324  22.180  0.00  0.00     0.002 A 
ATOM      6  C   UNL d   1     -44.817  12.608  22.514  0.00  0.00     0.019 A 
ENDROOT
BRANCH   1   7
ATOM      7  C   UNL d   1     -47.165  13.364  22.738  0.00  0.00     0.103 A 
ATOM      8  N   UNL d   1     -47.776  12.837  22.601  0.00  0.00    -0.147 NA
ATOM      9  N   UNL d   1     -48.558  13.090  22.678  0.00  0.00    -0.130 NA
ATOM     10  C   UNL d   1     -48.721  13.870  22.894  0.00  0.00     0.169 A 
ATOM     11  C   UNL d   1     -48.097  14.398  23.031  0.00  0.00     0.041 A 
ATOM     12  C   UNL d   1     -47.327  14.143  22.953  0.00  0.00     0.024 A 
BRANCH  10  13
ATOM     13  N   UNL d   1     -49.494  14.123  22.972  0.00  0.00    -0.288 N 
ATOM     14  C   UNL d   1     -49.763  14.762  22.523  0.00  0.00     0.082 A 
ATOM     15  C   UNL d   1     -50.543  15.021  22.599  0.00  0.00     0.019 A 
ATOM     16  C   UNL d   1     -51.054  14.641  23.123  0.00  0.00     0.003 A 
ATOM     17  C   UNL d   1     -50.785  14.002  23.572  0.00  0.00     0.019 A 
ATOM     18  C   UNL d   1     -50.005  13.744  23.496  0.00  0.00     0.082 A 
ENDBRANCH  10  13
ENDBRANCH   1   7
BRANCH   2  19
ATOM     19  N   UNL d   1     -45.120  11.428  23.253  0.00  0.00    -0.205 NA
ATOM     20  C   UNL d   1     -44.412  11.083  23.032  0.00  0.00     0.351 C 
ATOM     21  O   UNL d   1     -43.932  11.456  22.473  0.00  0.00    -0.261 OA
BRANCH  20  22
ATOM     22  C   UNL d   1     -44.177  10.371  23.364  0.00  0.00     0.474 C 
ATOM     23  F   UNL d   1     -43.941   9.654  23.698  0.00  0.00    -0.162 F 
ATOM     24  F   UNL d   1     -43.399  10.644  23.400  0.00  0.00    -0.162 F 
ATOM     25  F   UNL d   1     -44.955  10.098  23.329  0.00  0.00    -0.162 F 
ENDBRANCH  20  22
ENDBRANCH   2  19
TORSDOF 4
ENDMDL
MODEL 4
REMARK VINA RESULT:      -7.1      1.507      2.006
REMARK  4 active torsions:
REMARK  status: ('A' for Active; 'I' for Inactive)
REMARK    1  A    between atoms: C_2  and  C_1 
REMARK       I    between atoms: N_7  and  C_2 
REMARK    2  A    between atoms: N_6  and  C_5 
REMARK    3  A    between atoms: C_10  and  N_7 
REMARK    4  A    between atoms: C_8  and  C_9 
ROOT
ATOM      1  C   UNL d   1     -48.295  12.027  23.472  0.00  0.00     0.021 A 
ATOM      2  C   UNL d   1     -49.205  13.128  23.434  0.00  0.00     0.085 A 
ATOM      3  C   UNL d   1     -48.431  12.839  23.430  0.00  0.00     0.021 A 
ATOM      4  C   UNL d   1     -48.931  11.502  23.517  0.00  0.00     0.002 A 
ATOM      5  C   UNL d   1     -49.696  11.793  23.521  0.00  0.00     0.002 A 
ATOM      6  C   UNL d   1     -49.832  12.606  23.480  0.00  0.00     0.019 A 
ENDROOT
BRANCH   1   7
ATOM      7  C   UNL d   1     -47.513  11.738  23.468  0.00  0.00     0.103 A 
ATOM      8  N   UNL d   1     -46.885  12.261  23.502  0.00  0.00    -0.147 NA
ATOM      9  N   UNL d   1     -46.111  11.972  23.498  0.00  0.00    -0.130 NA
ATOM     10  C   UNL d   1     -45.975  11.159  23.459  0.00  0.00     0.169 A 
ATOM     11  C   UNL d   1     -46.616  10.635  23.424  0.00  0.00     0.041 A 
ATOM     12  C   UNL d   1     -47.377  10.926  23.428  0.00  0.00     0.024 A 
BRANCH  10  13
ATOM     13  N   UNL d   1     -45.211  10.869  23.454  0.00  0.00    -0.288 N 
ATOM     14  C   UNL d   1     -44.589  11.355  23.213  0.00  0.00     0.082 A 
ATOM     15  C   UNL d   1     -43.816  11.067  23.206  0.00  0.00     0.019 A 
ATOM     16  C   UNL d   1     -43.665  10.291  23.442  0.00  0.00     0.003 A 
ATOM     17  C   UNL d   1     -44.286   9.803  23.684  0.00  0.00     0.019 A 
ATOM     18  C   UNL d   1     -45.059  10.093  23.689  0.00  0.00     0.082 A 
ENDBRANCH  10  13
ENDBRANCH   1   7
BRANCH   2  19
ATOM     19  N   UNL d   1     -49.341  13.940  23.393  0.00  0.00    -0.205 NA
ATOM     20  C   UNL d   1     -49.648  14.273  22.712  0.00  0.00     0.351 C 
ATOM     21  O   UNL d   1     -49.821  13.792  22.064  0.00  0.00    -0.261 OA
BRANCH  20  22
ATOM     22  C   UNL d   1     -49.784  15.081  22.670  0.00  0.00     0.474 C 
ATOM     23  F   UNL d   1     -49.920  15.893  22.629  0.00  0.00    -0.162 F 
ATOM     24  F   UNL d   1     -50.498  14.981  23.070  0.00  0.00    -0.162 F 
ATOM     25  F   UNL d   1     -49.069  15.180  22.270  0.00  0.00    -0.162 F 
ENDBRANCH  20  22
ENDBRANCH   2  19
TORSDOF 4
ENDMDL
MODEL 5
REMARK VINA RESULT:      -7.1      1.588      1.966
REMARK  4 active torsions:
REMARK  status: ('A' for Active; 'I' for Inactive)
REMARK    1  A    between atoms: C_2  and  C_1 
REMARK       I    between atoms: N_7  and  C_2 
REMARK    2  A    between atoms: N_6  and  C_5 
REMARK    3  A    between atoms: C_10  and  N_7 
REMARK    4  A    between atoms: C_8  and  C_9 
ROOT
ATOM      1  C   UNL d   1     -47.663  13.846  22.807  0.00  0.00     0.021 A 
ATOM      2  C   UNL d   1     -48.969  13.541  23.299  0.00  0.00     0.085 A 
ATOM      3  C   UNL d   1     -48.203  13.300  23.109  0.00  0.00     0.021 A 
ATOM      4  C   UNL d   1     -47.889  14.633  22.695  0.00  0.00     0.002 A 
ATOM      5  C   UNL d   1     -48.650  14.866  22.886  0.00  0.00     0.002 A 
ATOM      6  C   UNL d   1     -49.190  14.320  23.188  0.00  0.00     0.019 A 
ENDROOT
BRANCH   1   7
ATOM      7  C   UNL d   1     -46.890  13.600  22.615  0.00  0.00     0.103 A 
ATOM      8  N   UNL d   1     -46.271  13.768  23.122  0.00  0.00    -0.147 NA
ATOM      9  N   UNL d   1     -45.507  13.522  22.928  0.00  0.00    -0.130 NA
ATOM     10  C   UNL d   1     -45.371  13.109  22.227  0.00  0.00     0.169 A 
ATOM     11  C   UNL d   1     -46.004  12.942  21.719  0.00  0.00     0.041 A 
ATOM     12  C   UNL d   1     -46.755  13.187  21.914  0.00  0.00     0.024 A 
BRANCH  10  13
ATOM     13  N   UNL d   1     -44.616  12.864  22.032  0.00  0.00    -0.288 N 
ATOM     14  C   UNL d   1     -44.183  13.280  21.466  0.00  0.00     0.082 A 
ATOM     15  C   UNL d   1     -43.421  13.036  21.266  0.00  0.00     0.019 A 
ATOM     16  C   UNL d   1     -43.090  12.376  21.634  0.00  0.00     0.003 A 
ATOM     17  C   UNL d   1     -43.522  11.959  22.201  0.00  0.00     0.019 A 
ATOM     18  C   UNL d   1     -44.285  12.204  22.400  0.00  0.00     0.082 A 
ENDBRANCH  10  13
ENDBRANCH   1   7
BRANCH   2  19
ATOM     19  N   UNL d   1     -49.509  12.995  23.601  0.00  0.00    -0.205 NA
ATOM     20  C   UNL d   1     -49.988  12.565  23.096  0.00  0.00     0.351 C 
ATOM     21  O   UNL d   1     -49.928  12.679  22.280  0.00  0.00    -0.261 OA
BRANCH  20  22
ATOM     22  C   UNL d   1     -50.524  12.022  23.396  0.00  0.00     0.474 C 
ATOM     23  F   UNL d   1     -51.064  11.477  23.698  0.00  0.00    -0.162 F 
ATOM     24  F   UNL d   1     -50.986  12.641  23.688  0.00  0.00    -0.162 F 
ATOM     25  F   UNL d   1     -50.063  11.404  23.104  0.00  0.00    -0.162 F 
ENDBRANCH  20  22
ENDBRANCH   2  19
TORSDOF 4
ENDMDL
MODEL 6
REMARK VINA RESULT:      -6.4      8.601      9.355
REMARK  4 active torsions:
REMARK  status: ('A' for Active; 'I' for Inactive)
REMARK    1  A    between atoms: C_2  and  C_1 
REMARK       I    between atoms: N_7  and  C_2 
REMARK    2  A    between atoms: N_6  and  C_5 
REMARK    3  A    between atoms: C_10  and  N_7 
REMARK    4  A    between atoms: C_8  and  C_9 
ROOT
ATOM      1  C   UNL d   1     -39.928  14.903  18.917  0.00  0.00     0.021 A 
ATOM      2  C   UNL d   1     -39.793  14.485  17.557  0.00  0.00     0.085 A 
ATOM      3  C   UNL d   1     -39.578  14.415  18.351  0.00  0.00     0.021 A 
ATOM      4  C   UNL d   1     -40.494  15.460  18.689  0.00  0.00     0.002 A 
ATOM      5  C   UNL d   1     -40.703  15.525  17.901  0.00  0.00     0.002 A 
ATOM      6  C   UNL d   1     -40.353  15.038  17.335  0.00  0.00     0.019 A 
ENDROOT
BRANCH   1   7
ATOM      7  C   UNL d   1     -39.709  14.830  19.718  0.00  0.00     0.103 A 
ATOM      8  N   UNL d   1     -39.004  15.151  19.980  0.00  0.00    -0.147 NA
ATOM      9  N   UNL d   1     -38.791  15.076  20.774  0.00  0.00    -0.130 NA
ATOM     10  C   UNL d   1     -39.288  14.679  21.299  0.00  0.00     0.169 A 
ATOM     11  C   UNL d   1     -40.001  14.356  21.027  0.00  0.00     0.041 A 
ATOM     12  C   UNL d   1     -40.206  14.433  20.243  0.00  0.00     0.024 A 
BRANCH  10  13
ATOM     13  N   UNL d   1     -39.080  14.603  22.086  0.00  0.00    -0.288 N 
ATOM     14  C   UNL d   1     -38.900  13.858  22.392  0.00  0.00     0.082 A 
ATOM     15  C   UNL d   1     -38.689  13.777  23.186  0.00  0.00     0.019 A 
ATOM     16  C   UNL d   1     -38.658  14.442  23.674  0.00  0.00     0.003 A 
ATOM     17  C   UNL d   1     -38.838  15.188  23.368  0.00  0.00     0.019 A 
ATOM     18  C   UNL d   1     -39.049  15.268  22.574  0.00  0.00     0.082 A 
ENDBRANCH  10  13
ENDBRANCH   1   7
BRANCH   2  19
ATOM     19  N   UNL d   1     -39.442  13.998  16.992  0.00  0.00    -0.205 NA
ATOM     20  C   UNL d   1     -38.787  14.254  16.575  0.00  0.00     0.351 C 
ATOM     21  O   UNL d   1     -38.475  15.004  16.724  0.00  0.00    -0.261 OA
BRANCH  20  22
ATOM     22  C   UNL d   1     -38.438  13.769  16.013  0.00  0.00     0.474 C 
ATOM     23  F   UNL d   1     -38.088  13.282  15.447  0.00  0.00    -0.162 F 
ATOM     24  F   UNL d   1     -38.182  13.261  16.610  0.00  0.00    -0.162 F 
ATOM     25  F   UNL d   1     -38.694  14.278  15.416  0.00  0.00    -0.162 F 
ENDBRANCH  20  22
ENDBRANCH   2  19
TORSDOF 4
ENDMDL
MODEL 7
REMARK VINA RESULT:      -6.2      1.641      2.161
REMARK  4 active torsions:
REMARK  status: ('A' for Active; 'I' for Inactive)
REMARK    1  A    between atoms: C_2  and  C_1 
REMARK       I    between atoms: N_7  and  C_2 
REMARK    2  A    between atoms: N_6  and  C_5 
REMARK    3  A    between atoms: C_10  and  N_7 
REMARK    4  A    between atoms: C_8  and  C_9 
ROOT
ATOM      1  C   UNL d   1     -47.646  12.717  22.966  0.00  0.00     0.021 A 
ATOM      2  C   UNL d   1     -48.806  13.463  23.337  0.00  0.00     0.085 A 
ATOM      3  C   UNL d   1     -48.014  13.442  23.106  0.00  0.00     0.021 A 
ATOM      4  C   UNL d   1     -48.069  12.014  23.057  0.00  0.00     0.002 A 
ATOM      5  C   UNL d   1     -48.854  12.041  23.285  0.00  0.00     0.002 A 
ATOM      6  C   UNL d   1     -49.222  12.765  23.425  0.00  0.00     0.019 A 
ENDROOT
BRANCH   1   7
ATOM      7  C   UNL d   1     -46.845  12.699  22.734  0.00  0.00     0.103 A 
ATOM      8  N   UNL d   1     -46.269  12.473  23.269  0.00  0.00    -0.147 NA
ATOM      9  N   UNL d   1     -45.478  12.456  23.034  0.00  0.00    -0.130 NA
ATOM     10  C   UNL d   1     -45.271  12.667  22.264  0.00  0.00     0.169 A 
ATOM     11  C   UNL d   1     -45.860  12.896  21.727  0.00  0.00     0.041 A 
ATOM     12  C   UNL d   1     -46.639  12.911  21.964  0.00  0.00     0.024 A 
BRANCH  10  13
ATOM     13  N   UNL d   1     -44.489  12.652  22.028  0.00  0.00    -0.288 N 
ATOM     14  C   UNL d   1     -44.209  13.219  21.498  0.00  0.00     0.082 A 
ATOM     15  C   UNL d   1     -43.420  13.207  21.257  0.00  0.00     0.019 A 
ATOM     16  C   UNL d   1     -42.909  12.628  21.548  0.00  0.00     0.003 A 
ATOM     17  C   UNL d   1     -43.188  12.060  22.079  0.00  0.00     0.019 A 
ATOM     18  C   UNL d   1     -43.978  12.073  22.319  0.00  0.00     0.082 A 
ENDBRANCH  10  13
ENDBRANCH   1   7
BRANCH   2  19
ATOM     19  N   UNL d   1     -49.175  14.188  23.477  0.00  0.00    -0.205 NA
ATOM     20  C   UNL d   1     -49.737  14.473  22.955  0.00  0.00     0.351 C 
ATOM     21  O   UNL d   1     -49.935  14.031  22.286  0.00  0.00    -0.261 OA
BRANCH  20  22
ATOM     22  C   UNL d   1     -50.104  15.193  23.094  0.00  0.00     0.474 C 
ATOM     23  F   UNL d   1     -50.472  15.918  23.234  0.00  0.00    -0.162 F 
ATOM     24  F   UNL d   1     -50.735  14.802  23.453  0.00  0.00    -0.162 F 
ATOM     25  F   UNL d   1     -49.472  15.584  22.735  0.00  0.00    -0.162 F 
ENDBRANCH  20  22
ENDBRANCH   2  19
TORSDOF 4
ENDMDL
MODEL 8
REMARK VINA RESULT:      -5.2      7.501      8.642
REMARK  4 active torsions:
REMARK  status: ('A' for Active; 'I' for Inactive)
REMARK    1  A    between atoms: C_2  and  C_1 
REMARK       I    between atoms: N_7  and  C_2 
REMARK    2  A    between atoms: N_6  and  C_5 
REMARK    3  A    between atoms: C_10  and  N_7 
REMARK    4  A    between atoms: C_8  and  C_9 
ROOT
ATOM      1  C   UNL d   1     -40.263  15.104  19.596  0.00  0.00     0.021 A 
ATOM      2  C   UNL d   1     -40.942  14.433  20.659  0.00  0.00     0.085 A 
ATOM      3  C   UNL d   1     -40.560  14.409  19.928  0.00  0.00     0.021 A 
ATOM      4  C   UNL d   1     -40.349  15.822  19.994  0.00  0.00     0.002 A 
ATOM      5  C   UNL d   1     -40.729  15.840  20.719  0.00  0.00     0.002 A 
ATOM      6  C   UNL d   1     -41.025  15.145  21.051  0.00  0.00     0.019 A 
ENDROOT
BRANCH   1   7
ATOM      7  C   UNL d   1     -39.878  15.076  18.857  0.00  0.00     0.103 A 
ATOM      8  N   UNL d   1     -40.316  15.099  18.167  0.00  0.00    -0.147 NA
ATOM      9  N   UNL d   1     -39.930  15.071  17.437  0.00  0.00    -0.130 NA
ATOM     10  C   UNL d   1     -39.107  15.021  17.407  0.00  0.00     0.169 A 
ATOM     11  C   UNL d   1     -38.670  14.999  18.111  0.00  0.00     0.041 A 
ATOM     12  C   UNL d   1     -39.055  15.026  18.828  0.00  0.00     0.024 A 
BRANCH  10  13
ATOM     13  N   UNL d   1     -38.721  14.994  16.687  0.00  0.00    -0.288 N 
ATOM     14  C   UNL d   1     -38.457  15.693  16.337  0.00  0.00     0.082 A 
ATOM     15  C   UNL d   1     -38.068  15.670  15.609  0.00  0.00     0.019 A 
ATOM     16  C   UNL d   1     -37.943  14.947  15.232  0.00  0.00     0.003 A 
ATOM     17  C   UNL d   1     -38.207  14.247  15.582  0.00  0.00     0.019 A 
ATOM     18  C   UNL d   1     -38.596  14.271  16.310  0.00  0.00     0.082 A 
ENDBRANCH  10  13
ENDBRANCH   1   7
BRANCH   2  19
ATOM     19  N   UNL d   1     -41.239  13.739  20.992  0.00  0.00    -0.205 NA
ATOM     20  C   UNL d   1     -42.042  13.654  21.124  0.00  0.00     0.351 C 
ATOM     21  O   UNL d   1     -42.556  14.268  20.923  0.00  0.00    -0.261 OA
BRANCH  20  22
ATOM     22  C   UNL d   1     -42.336  12.964  21.454  0.00  0.00     0.474 C 
ATOM     23  F   UNL d   1     -42.633  12.269  21.787  0.00  0.00    -0.162 F 
ATOM     24  F   UNL d   1     -41.690  12.932  21.966  0.00  0.00    -0.162 F 
ATOM     25  F   UNL d   1     -42.983  12.995  20.943  0.00  0.00    -0.162 F 
ENDBRANCH  20  22
ENDBRANCH   2  19
TORSDOF 4
ENDMDL
