MODEL 1
REMARK VINA RESULT:      57.3      0.000      0.000
REMARK  2 active torsions:
REMARK  status: ('A' for Active; 'I' for Inactive)
REMARK    1  A    between atoms: C_3  and  C_1 
REMARK       I    between atoms: N_2  and  C_3 
REMARK    2  A    between atoms: O_16  and  C_15 
ROOT
ATOM      1  C   UNL d   1      58.427  49.311  50.406  0.00  0.00     0.121 A 
ATOM      2  C   UNL d   1      58.336  49.475  51.212  0.00  0.00     0.305 A 
ATOM      3  O   UNL d   1      59.010  49.552  51.699  0.00  0.00    -0.271 OA
ATOM      4  C   UNL d   1      59.189  49.223  50.077  0.00  0.00     0.012 A 
ATOM      5  C   UNL d   1      59.759  49.466  51.379  0.00  0.00     0.125 A 
ATOM      6  C   UNL d   1      59.851  49.301  50.566  0.00  0.00     0.025 A 
ATOM      7  O   UNL d   1      57.586  49.562  51.535  0.00  0.00    -0.259 OA
ATOM      8  C   UNL d   1      60.435  49.541  51.855  0.00  0.00     0.117 A 
ATOM      9  C   UNL d   1      60.609  49.214  50.244  0.00  0.00     0.002 A 
ATOM     10  C   UNL d   1      61.270  49.291  50.730  0.00  0.00     0.002 A 
ATOM     11  C   UNL d   1      61.184  49.454  51.531  0.00  0.00     0.026 A 
ENDROOT
BRANCH   1  12
ATOM     12  C   UNL d   1      57.763  49.236  49.928  0.00  0.00     0.285 C 
ATOM     13  N   UNL d   1      57.172  48.700  50.118  0.00  0.00    -0.193 N 
ATOM     14  N   UNL d   1      57.171  48.201  50.772  0.00  0.00    -0.163 NA
ATOM     15  C   UNL d   1      56.483  48.567  49.694  0.00  0.00     0.105 A 
ATOM     16  C   UNL d   1      56.478  47.759  50.749  0.00  0.00     0.103 A 
ATOM     17  C   UNL d   1      56.251  47.187  51.303  0.00  0.00     0.022 C 
ATOM     18  C   UNL d   1      56.057  47.985  50.087  0.00  0.00     0.042 A 
ATOM     19  O   UNL d   1      57.687  49.700  49.253  0.00  0.00    -0.265 OA
ENDBRANCH   1  12
BRANCH   8  20
ATOM     20  O   UNL d   1      60.340  49.704  52.656  0.00  0.00    -0.326 OA
ATOM     21  C   UNL d   1      60.958  49.591  53.182  0.00  0.00     0.181 C 
ENDBRANCH   8  20
TORSDOF 2
ENDMDL
