MODEL 1
REMARK VINA RESULT:       4.6      0.000      0.000
REMARK  1 active torsions:
REMARK  status: ('A' for Active; 'I' for Inactive)
REMARK    1  A    between atoms: C_6  and  C_1 
ROOT
ATOM      1  C   UNL d   1      23.347  12.924  -0.650  0.00  0.00     0.168 A 
ATOM      2  C   UNL d   1      23.719  12.681  -1.344  0.00  0.00     0.045 A 
ATOM      3  N   UNL d   1      23.690  12.524  -0.015  0.00  0.00    -0.142 NA
ATOM      4  N   UNL d   1      24.280  12.029  -0.318  0.00  0.00    -0.148 NA
ATOM      5  C   UNL d   1      24.296  12.129  -1.150  0.00  0.00     0.105 A 
ATOM      6  C   UNL d   1      23.610  12.889  -2.136  0.00  0.00     0.003 A 
ATOM      7  C   UNL d   1      24.768  11.779  -1.729  0.00  0.00     0.021 A 
ATOM      8  C   UNL d   1      24.075  12.547  -2.722  0.00  0.00     0.000 A 
ATOM      9  C   UNL d   1      24.655  11.991  -2.519  0.00  0.00     0.002 A 
ATOM     10  C   UNL d   1      23.965  12.756  -3.514  0.00  0.00     0.000 C 
ENDROOT
BRANCH   1  11
ATOM     11  C   UNL d   1      22.736  13.473  -0.599  0.00  0.00     0.231 C 
ATOM     12  O   UNL d   1      21.983  13.289  -0.890  0.00  0.00    -0.643 OA
ATOM     13  O   UNL d   1      22.872  14.213  -0.255  0.00  0.00    -0.643 OA
ENDBRANCH   1  11
TORSDOF 1
ENDMDL
