MODEL 1
REMARK VINA RESULT:      59.0      0.000      0.000
REMARK  3 active torsions:
REMARK  status: ('A' for Active; 'I' for Inactive)
REMARK    1  A    between atoms: C_2  and  C_1 
REMARK       I    between atoms: N_6  and  C_2 
REMARK    2  A    between atoms: C_7  and  N_6 
REMARK    3  A    between atoms: C_18  and  N_6 
ROOT
ATOM      1  C   UNL d   1      14.199  14.257  -2.943  0.00  0.00     0.270 C 
ATOM      2  N   UNL d   1      13.992  13.034  -2.820  0.00  0.00    -0.274 N 
ATOM      3  O   UNL d   1      14.551  14.566  -2.298  0.00  0.00    -0.266 OA
ENDROOT
BRANCH   2   4
ATOM      4  C   UNL d   1      13.646  12.686  -3.432  0.00  0.00     0.079 A 
ATOM      5  C   UNL d   1      14.009  12.307  -4.012  0.00  0.00     0.116 A 
ATOM      6  S   UNL d   1      13.464  12.045  -4.505  0.00  0.00     0.213 S 
ATOM      7  O   UNL d   1      12.920  11.783  -4.998  0.00  0.00    -0.217 OA
ATOM      8  O   UNL d   1      14.139  11.812  -4.809  0.00  0.00    -0.217 OA
ATOM      9  C   UNL d   1      12.769  12.264  -4.227  0.00  0.00     0.100 A 
ATOM     10  C   UNL d   1      12.880  12.657  -3.568  0.00  0.00     0.030 A 
ENDBRANCH   2   4
BRANCH   2  11
ATOM     11  C   UNL d   1      14.204  12.623  -2.142  0.00  0.00     0.067 A 
ATOM     12  C   UNL d   1      13.624  12.392  -1.620  0.00  0.00     0.018 A 
ATOM     13  C   UNL d   1      13.836  11.973  -0.928  0.00  0.00     0.002 A 
ATOM     14  C   UNL d   1      14.624  11.796  -0.779  0.00  0.00     0.000 A 
ATOM     15  C   UNL d   1      15.207  12.031  -1.309  0.00  0.00     0.002 A 
ATOM     16  C   UNL d   1      15.007  12.443  -1.991  0.00  0.00     0.018 A 
ENDBRANCH   2  11
BRANCH   1  17
ATOM     17  C   UNL d   1      13.995  14.690  -3.613  0.00  0.00     0.120 A 
ATOM     18  C   UNL d   1      13.275  15.122  -3.624  0.00  0.00     0.305 A 
ATOM     19  O   UNL d   1      13.069  15.557  -4.297  0.00  0.00    -0.273 OA
ATOM     20  O   UNL d   1      12.778  15.109  -2.966  0.00  0.00    -0.259 OA
ATOM     21  C   UNL d   1      13.573  15.564  -4.953  0.00  0.00     0.103 A 
ATOM     22  C   UNL d   1      14.282  15.139  -4.941  0.00  0.00     0.023 A 
ATOM     23  C   UNL d   1      13.358  16.004  -5.623  0.00  0.00     0.025 A 
ATOM     24  C   UNL d   1      14.490  14.705  -4.274  0.00  0.00     0.012 A 
ATOM     25  C   UNL d   1      14.779  15.151  -5.599  0.00  0.00     0.002 A 
ATOM     26  C   UNL d   1      14.570  15.587  -6.270  0.00  0.00     0.000 A 
ATOM     27  C   UNL d   1      13.860  16.013  -6.281  0.00  0.00     0.002 A 
ENDBRANCH   1  17
TORSDOF 3
ENDMDL
MODEL 2
REMARK VINA RESULT:      59.2      1.705      3.860
REMARK  3 active torsions:
REMARK  status: ('A' for Active; 'I' for Inactive)
REMARK    1  A    between atoms: C_2  and  C_1 
REMARK       I    between atoms: N_6  and  C_2 
REMARK    2  A    between atoms: C_7  and  N_6 
REMARK    3  A    between atoms: C_18  and  N_6 
ROOT
ATOM      1  C   UNL d   1      14.180  12.721  -2.685  0.00  0.00     0.270 C 
ATOM      2  N   UNL d   1      13.810  13.277  -3.737  0.00  0.00    -0.274 N 
ATOM      3  O   UNL d   1      14.124  11.928  -2.730  0.00  0.00    -0.266 OA
ENDROOT
BRANCH   2   4
ATOM      4  C   UNL d   1      13.848  14.060  -3.739  0.00  0.00     0.079 A 
ATOM      5  C   UNL d   1      13.294  14.548  -3.998  0.00  0.00     0.116 A 
ATOM      6  S   UNL d   1      13.553  15.278  -3.900  0.00  0.00     0.213 S 
ATOM      7  O   UNL d   1      13.811  16.007  -3.802  0.00  0.00    -0.217 OA
ATOM      8  O   UNL d   1      12.849  15.354  -4.216  0.00  0.00    -0.217 OA
ATOM      9  C   UNL d   1      14.264  15.236  -3.581  0.00  0.00     0.100 A 
ATOM     10  C   UNL d   1      14.446  14.489  -3.482  0.00  0.00     0.030 A 
ENDBRANCH   2   4
BRANCH   2  11
ATOM     11  C   UNL d   1      13.544  12.848  -4.385  0.00  0.00     0.067 A 
ATOM     12  C   UNL d   1      13.043  12.218  -4.266  0.00  0.00     0.018 A 
ATOM     13  C   UNL d   1      12.770  11.779  -4.924  0.00  0.00     0.002 A 
ATOM     14  C   UNL d   1      13.006  11.984  -5.682  0.00  0.00     0.000 A 
ATOM     15  C   UNL d   1      13.513  12.621  -5.799  0.00  0.00     0.002 A 
ATOM     16  C   UNL d   1      13.786  13.058  -5.158  0.00  0.00     0.018 A 
ENDBRANCH   2  11
BRANCH   1  17
ATOM     17  C   UNL d   1      14.450  13.130  -2.023  0.00  0.00     0.120 A 
ATOM     18  C   UNL d   1      14.709  12.703  -1.348  0.00  0.00     0.305 A 
ATOM     19  O   UNL d   1      14.981  13.112  -0.683  0.00  0.00    -0.273 OA
ATOM     20  O   UNL d   1      14.691  11.879  -1.353  0.00  0.00    -0.259 OA
ATOM     21  C   UNL d   1      14.996  13.939  -0.687  0.00  0.00     0.103 A 
ATOM     22  C   UNL d   1      14.741  14.360  -1.352  0.00  0.00     0.023 A 
ATOM     23  C   UNL d   1      15.270  14.342  -0.015  0.00  0.00     0.025 A 
ATOM     24  C   UNL d   1      14.470  13.956  -2.015  0.00  0.00     0.012 A 
ATOM     25  C   UNL d   1      14.759  15.185  -1.347  0.00  0.00     0.002 A 
ATOM     26  C   UNL d   1      15.031  15.591  -0.681  0.00  0.00     0.000 A 
ATOM     27  C   UNL d   1      15.287  15.169  -0.015  0.00  0.00     0.002 A 
ENDBRANCH   1  17
TORSDOF 3
ENDMDL
MODEL 3
REMARK VINA RESULT:      59.7      1.938      3.122
REMARK  3 active torsions:
REMARK  status: ('A' for Active; 'I' for Inactive)
REMARK    1  A    between atoms: C_2  and  C_1 
REMARK       I    between atoms: N_6  and  C_2 
REMARK    2  A    between atoms: C_7  and  N_6 
REMARK    3  A    between atoms: C_18  and  N_6 
ROOT
ATOM      1  C   UNL d   1      13.852  14.434  -2.784  0.00  0.00     0.270 C 
ATOM      2  N   UNL d   1      14.555  14.308  -1.763  0.00  0.00    -0.274 N 
ATOM      3  O   UNL d   1      13.687  15.197  -2.942  0.00  0.00    -0.266 OA
ENDROOT
BRANCH   2   4
ATOM      4  C   UNL d   1      14.742  13.571  -1.569  0.00  0.00     0.079 A 
ATOM      5  C   UNL d   1      15.466  13.281  -1.504  0.00  0.00     0.116 A 
ATOM      6  S   UNL d   1      15.406  12.530  -1.302  0.00  0.00     0.213 S 
ATOM      7  O   UNL d   1      15.347  11.779  -1.100  0.00  0.00    -0.217 OA
ATOM      8  O   UNL d   1      16.168  12.665  -1.351  0.00  0.00    -0.217 OA
ATOM      9  C   UNL d   1      14.647  12.361  -1.244  0.00  0.00     0.100 A 
ATOM     10  C   UNL d   1      14.239  12.999  -1.408  0.00  0.00     0.030 A 
ENDBRANCH   2   4
BRANCH   2  11
ATOM     11  C   UNL d   1      14.805  14.955  -1.324  0.00  0.00     0.067 A 
ATOM     12  C   UNL d   1      14.818  15.690  -1.672  0.00  0.00     0.018 A 
ATOM     13  C   UNL d   1      15.071  16.352  -1.228  0.00  0.00     0.002 A 
ATOM     14  C   UNL d   1      15.305  16.258  -0.447  0.00  0.00     0.000 A 
ATOM     15  C   UNL d   1      15.290  15.514  -0.098  0.00  0.00     0.002 A 
ATOM     16  C   UNL d   1      15.042  14.858  -0.528  0.00  0.00     0.018 A 
ENDBRANCH   2  11
BRANCH   1  17
ATOM     17  C   UNL d   1      13.590  13.799  -3.240  0.00  0.00     0.120 A 
ATOM     18  C   UNL d   1      13.041  13.253  -2.915  0.00  0.00     0.305 A 
ATOM     19  O   UNL d   1      12.777  12.616  -3.371  0.00  0.00    -0.273 OA
ATOM     20  O   UNL d   1      12.769  13.356  -2.143  0.00  0.00    -0.259 OA
ATOM     21  C   UNL d   1      13.056  12.520  -4.144  0.00  0.00     0.103 A 
ATOM     22  C   UNL d   1      13.597  13.059  -4.464  0.00  0.00     0.023 A 
ATOM     23  C   UNL d   1      12.786  11.878  -4.595  0.00  0.00     0.025 A 
ATOM     24  C   UNL d   1      13.861  13.693  -4.013  0.00  0.00     0.012 A 
ATOM     25  C   UNL d   1      13.869  12.956  -5.236  0.00  0.00     0.002 A 
ATOM     26  C   UNL d   1      13.604  12.318  -5.689  0.00  0.00     0.000 A 
ATOM     27  C   UNL d   1      13.062  11.779  -5.368  0.00  0.00     0.002 A 
ENDBRANCH   1  17
TORSDOF 3
ENDMDL
MODEL 4
REMARK VINA RESULT:      60.5      1.680      2.985
REMARK  3 active torsions:
REMARK  status: ('A' for Active; 'I' for Inactive)
REMARK    1  A    between atoms: C_2  and  C_1 
REMARK       I    between atoms: N_6  and  C_2 
REMARK    2  A    between atoms: C_7  and  N_6 
REMARK    3  A    between atoms: C_18  and  N_6 
ROOT
ATOM      1  C   UNL d   1      14.355  12.839  -2.550  0.00  0.00     0.270 C 
ATOM      2  N   UNL d   1      14.449  14.039  -2.229  0.00  0.00    -0.274 N 
ATOM      3  O   UNL d   1      14.677  12.357  -2.002  0.00  0.00    -0.266 OA
ENDROOT
BRANCH   2   4
ATOM      4  C   UNL d   1      14.146  14.552  -2.739  0.00  0.00     0.079 A 
ATOM      5  C   UNL d   1      14.543  15.093  -3.141  0.00  0.00     0.116 A 
ATOM      6  S   UNL d   1      14.034  15.484  -3.584  0.00  0.00     0.213 S 
ATOM      7  O   UNL d   1      13.525  15.876  -4.028  0.00  0.00    -0.217 OA
ATOM      8  O   UNL d   1      14.723  15.807  -3.736  0.00  0.00    -0.217 OA
ATOM      9  C   UNL d   1      13.326  15.182  -3.454  0.00  0.00     0.100 A 
ATOM     10  C   UNL d   1      13.394  14.610  -2.936  0.00  0.00     0.030 A 
ENDBRANCH   2   4
BRANCH   2  11
ATOM     11  C   UNL d   1      14.806  14.276  -1.528  0.00  0.00     0.067 A 
ATOM     12  C   UNL d   1      14.977  15.063  -1.416  0.00  0.00     0.018 A 
ATOM     13  C   UNL d   1      15.340  15.308  -0.703  0.00  0.00     0.002 A 
ATOM     14  C   UNL d   1      15.522  14.756  -0.123  0.00  0.00     0.000 A 
ATOM     15  C   UNL d   1      15.348  13.961  -0.240  0.00  0.00     0.002 A 
ATOM     16  C   UNL d   1      14.991  13.712  -0.938  0.00  0.00     0.018 A 
ENDBRANCH   2  11
BRANCH   1  17
ATOM     17  C   UNL d   1      14.002  12.578  -3.246  0.00  0.00     0.120 A 
ATOM     18  C   UNL d   1      13.331  12.075  -3.209  0.00  0.00     0.305 A 
ATOM     19  O   UNL d   1      12.976  11.812  -3.908  0.00  0.00    -0.273 OA
ATOM     20  O   UNL d   1      13.032  11.845  -2.476  0.00  0.00    -0.259 OA
ATOM     21  C   UNL d   1      13.282  12.048  -4.639  0.00  0.00     0.103 A 
ATOM     22  C   UNL d   1      13.944  12.544  -4.676  0.00  0.00     0.023 A 
ATOM     23  C   UNL d   1      12.920  11.780  -5.335  0.00  0.00     0.025 A 
ATOM     24  C   UNL d   1      14.300  12.807  -3.983  0.00  0.00     0.012 A 
ATOM     25  C   UNL d   1      14.243  12.774  -5.409  0.00  0.00     0.002 A 
ATOM     26  C   UNL d   1      13.886  12.510  -6.106  0.00  0.00     0.000 A 
ATOM     27  C   UNL d   1      13.224  12.013  -6.068  0.00  0.00     0.002 A 
ENDBRANCH   1  17
TORSDOF 3
ENDMDL
