MODEL 1
REMARK VINA RESULT:      -8.0      0.000      0.000
REMARK  5 active torsions:
REMARK  status: ('A' for Active; 'I' for Inactive)
REMARK    1  A    between atoms: N_2  and  S_1 
REMARK    2  A    between atoms: C_8  and  S_1 
REMARK    3  A    between atoms: S_7  and  C_3 
REMARK    4  A    between atoms: C_11  and  S_7 
REMARK    5  A    between atoms: C_12  and  C_11 
ROOT
ATOM      1  N   UNL d   1      54.222  33.196  54.224  0.00  0.00    -0.208 N 
ATOM      2  C   UNL d   1      54.294  32.489  53.787  0.00  0.00     0.189 A 
ATOM      3  N   UNL d   1      54.911  32.584  53.240  0.00  0.00    -0.219 NA
ATOM      4  C   UNL d   1      54.800  33.729  53.944  0.00  0.00     0.114 A 
ATOM      5  C   UNL d   1      55.220  33.349  53.340  0.00  0.00     0.121 A 
ENDROOT
BRANCH   1   6
ATOM      6  S   UNL d   1      53.672  33.340  54.830  0.00  0.00     0.273 S 
ATOM      7  O   UNL d   1      54.052  32.755  55.262  0.00  0.00    -0.200 OA
ATOM      8  O   UNL d   1      53.258  33.299  55.547  0.00  0.00    -0.200 OA
BRANCH   6   9
ATOM      9  C   UNL d   1      53.277  33.931  54.407  0.00  0.00     0.104 A 
ATOM     10  C   UNL d   1      53.540  34.708  54.459  0.00  0.00     0.013 A 
ATOM     11  C   UNL d   1      53.146  35.296  54.038  0.00  0.00     0.001 A 
ATOM     12  C   UNL d   1      52.494  35.104  53.570  0.00  0.00     0.000 A 
ATOM     13  C   UNL d   1      52.235  34.327  53.522  0.00  0.00     0.001 A 
ATOM     14  C   UNL d   1      52.634  33.736  53.947  0.00  0.00     0.013 A 
ENDBRANCH   6   9
ENDBRANCH   1   6
BRANCH   2  15
ATOM     15  S   UNL d   1      53.825  31.807  53.884  0.00  0.00    -0.049 SA
BRANCH  15  16
ATOM     16  C   UNL d   1      53.970  31.139  53.417  0.00  0.00     0.038 C 
BRANCH  16  17
ATOM     17  C   UNL d   1      53.491  30.471  53.499  0.00  0.00     0.007 A 
ATOM     18  C   UNL d   1      52.827  30.369  53.021  0.00  0.00     0.001 A 
ATOM     19  C   UNL d   1      52.353  29.689  53.116  0.00  0.00     0.000 A 
ATOM     20  C   UNL d   1      52.548  29.122  53.686  0.00  0.00     0.000 A 
ATOM     21  C   UNL d   1      53.209  29.220  54.165  0.00  0.00     0.000 A 
ATOM     22  C   UNL d   1      53.681  29.888  54.076  0.00  0.00     0.001 A 
ENDBRANCH  16  17
ENDBRANCH  15  16
ENDBRANCH   2  15
TORSDOF 5
ENDMDL
MODEL 2
REMARK VINA RESULT:      -7.7      1.698      4.095
REMARK  5 active torsions:
REMARK  status: ('A' for Active; 'I' for Inactive)
REMARK    1  A    between atoms: N_2  and  S_1 
REMARK    2  A    between atoms: C_8  and  S_1 
REMARK    3  A    between atoms: S_7  and  C_3 
REMARK    4  A    between atoms: C_11  and  S_7 
REMARK    5  A    between atoms: C_12  and  C_11 
ROOT
ATOM      1  N   UNL d   1      53.362  31.667  53.401  0.00  0.00    -0.208 N 
ATOM      2  C   UNL d   1      53.011  32.406  53.559  0.00  0.00     0.189 A 
ATOM      3  N   UNL d   1      53.413  32.754  54.196  0.00  0.00    -0.219 NA
ATOM      4  C   UNL d   1      53.986  31.559  53.946  0.00  0.00     0.114 A 
ATOM      5  C   UNL d   1      54.012  32.229  54.431  0.00  0.00     0.121 A 
ENDROOT
BRANCH   1   6
ATOM      6  S   UNL d   1      53.131  31.135  52.807  0.00  0.00     0.273 S 
ATOM      7  O   UNL d   1      53.177  31.761  52.280  0.00  0.00    -0.200 OA
ATOM      8  O   UNL d   1      52.921  30.814  52.072  0.00  0.00    -0.200 OA
BRANCH   6   9
ATOM      9  C   UNL d   1      53.079  30.491  53.325  0.00  0.00     0.104 A 
ATOM     10  C   UNL d   1      52.345  30.267  53.618  0.00  0.00     0.013 A 
ATOM     11  C   UNL d   1      52.295  29.626  54.133  0.00  0.00     0.001 A 
ATOM     12  C   UNL d   1      52.976  29.216  54.351  0.00  0.00     0.000 A 
ATOM     13  C   UNL d   1      53.708  29.444  54.055  0.00  0.00     0.001 A 
ATOM     14  C   UNL d   1      53.756  30.089  53.536  0.00  0.00     0.013 A 
ENDBRANCH   6   9
ENDBRANCH   1   6
BRANCH   2  15
ATOM     15  S   UNL d   1      52.367  32.737  53.146  0.00  0.00    -0.049 SA
BRANCH  15  16
ATOM     16  C   UNL d   1      52.088  33.488  53.354  0.00  0.00     0.038 C 
BRANCH  16  17
ATOM     17  C   UNL d   1      51.439  33.808  52.955  0.00  0.00     0.007 A 
ATOM     18  C   UNL d   1      51.534  34.166  52.218  0.00  0.00     0.001 A 
ATOM     19  C   UNL d   1      50.869  34.484  51.827  0.00  0.00     0.000 A 
ATOM     20  C   UNL d   1      50.120  34.441  52.178  0.00  0.00     0.000 A 
ATOM     21  C   UNL d   1      50.022  34.086  52.912  0.00  0.00     0.000 A 
ATOM     22  C   UNL d   1      50.674  33.770  53.302  0.00  0.00     0.001 A 
ENDBRANCH  16  17
ENDBRANCH  15  16
ENDBRANCH   2  15
TORSDOF 5
ENDMDL
MODEL 3
REMARK VINA RESULT:      -7.0      2.190      3.931
REMARK  5 active torsions:
REMARK  status: ('A' for Active; 'I' for Inactive)
REMARK    1  A    between atoms: N_2  and  S_1 
REMARK    2  A    between atoms: C_8  and  S_1 
REMARK    3  A    between atoms: S_7  and  C_3 
REMARK    4  A    between atoms: C_11  and  S_7 
REMARK    5  A    between atoms: C_12  and  C_11 
ROOT
ATOM      1  N   UNL d   1      52.941  33.456  53.173  0.00  0.00    -0.208 N 
ATOM      2  C   UNL d   1      52.146  33.301  52.976  0.00  0.00     0.189 A 
ATOM      3  N   UNL d   1      52.079  32.497  52.783  0.00  0.00    -0.219 NA
ATOM      4  C   UNL d   1      53.366  32.741  53.101  0.00  0.00     0.114 A 
ATOM      5  C   UNL d   1      52.832  32.156  52.862  0.00  0.00     0.121 A 
ENDROOT
BRANCH   1   6
ATOM      6  S   UNL d   1      53.252  34.192  53.400  0.00  0.00     0.273 S 
ATOM      7  O   UNL d   1      52.875  34.511  52.746  0.00  0.00    -0.200 OA
ATOM      8  O   UNL d   1      53.436  35.000  53.419  0.00  0.00    -0.200 OA
BRANCH   6   9
ATOM      9  C   UNL d   1      53.639  33.887  54.065  0.00  0.00     0.104 A 
ATOM     10  C   UNL d   1      53.269  33.919  54.798  0.00  0.00     0.013 A 
ATOM     11  C   UNL d   1      53.655  33.614  55.459  0.00  0.00     0.001 A 
ATOM     12  C   UNL d   1      54.406  33.282  55.383  0.00  0.00     0.000 A 
ATOM     13  C   UNL d   1      54.772  33.253  54.648  0.00  0.00     0.001 A 
ATOM     14  C   UNL d   1      54.381  33.560  53.984  0.00  0.00     0.013 A 
ENDBRANCH   6   9
ENDBRANCH   1   6
BRANCH   2  15
ATOM     15  S   UNL d   1      51.528  33.860  52.973  0.00  0.00    -0.049 SA
BRANCH  15  16
ATOM     16  C   UNL d   1      50.746  33.607  52.873  0.00  0.00     0.038 C 
BRANCH  16  17
ATOM     17  C   UNL d   1      50.153  34.161  52.722  0.00  0.00     0.007 A 
ATOM     18  C   UNL d   1      49.885  34.663  53.319  0.00  0.00     0.001 A 
ATOM     19  C   UNL d   1      49.285  35.218  53.151  0.00  0.00     0.000 A 
ATOM     20  C   UNL d   1      48.962  35.264  52.389  0.00  0.00     0.000 A 
ATOM     21  C   UNL d   1      49.227  34.766  51.792  0.00  0.00     0.000 A 
ATOM     22  C   UNL d   1      49.818  34.217  51.952  0.00  0.00     0.001 A 
ENDBRANCH  16  17
ENDBRANCH  15  16
ENDBRANCH   2  15
TORSDOF 5
ENDMDL
