MODEL 1
REMARK VINA RESULT:      -9.9      0.000      0.000
REMARK  5 active torsions:
REMARK  status: ('A' for Active; 'I' for Inactive)
REMARK    1  A    between atoms: N_10  and  C_3 
REMARK    2  A    between atoms: N_11  and  C_6 
REMARK    3  A    between atoms: C_12  and  N_10 
REMARK    4  A    between atoms: C_13  and  N_11 
REMARK    5  A    between atoms: C_21  and  C_13 
ROOT
ATOM      1  C   UNL d   1      53.365  33.747  54.410  0.00  0.00     0.187 A 
ATOM      2  C   UNL d   1      53.760  33.149  54.081  0.00  0.00     0.094 A 
ATOM      3  C   UNL d   1      53.397  32.668  53.570  0.00  0.00     0.185 A 
ATOM      4  N   UNL d   1      52.612  33.869  54.231  0.00  0.00    -0.040 NA
ATOM      5  N   UNL d   1      52.641  32.796  53.395  0.00  0.00    -0.040 NA
ATOM      6  C   UNL d   1      52.249  33.395  53.725  0.00  0.00     0.753 A 
ATOM      7  N   UNL d   1      54.492  34.103  55.101  0.00  0.00    -0.162 NA
ATOM      8  N   UNL d   1      53.726  34.228  54.921  0.00  0.00    -0.208 N 
ATOM      9  C   UNL d   1      54.884  33.504  54.771  0.00  0.00     0.127 A 
ATOM     10  C   UNL d   1      53.337  34.824  55.249  0.00  0.00     0.123 C 
ENDROOT
BRANCH   3  11
ATOM     11  N   UNL d   1      53.798  32.042  53.222  0.00  0.00    -0.226 NA
BRANCH  11  12
ATOM     12  C   UNL d   1      53.519  31.274  53.304  0.00  0.00     0.083 A 
ATOM     13  C   UNL d   1      53.719  30.816  53.969  0.00  0.00     0.021 A 
ATOM     14  C   UNL d   1      53.441  30.045  54.053  0.00  0.00     0.031 A 
ATOM     15  C   UNL d   1      52.952  29.721  53.463  0.00  0.00     0.140 A 
ATOM     16  C   UNL d   1      52.751  30.168  52.804  0.00  0.00     0.031 A 
ATOM     17  F   UNL d   1      52.669  28.953  53.537  0.00  0.00    -0.204 F 
ATOM     18  C   UNL d   1      53.035  30.947  52.723  0.00  0.00     0.021 A 
ENDBRANCH  11  12
ENDBRANCH   3  11
BRANCH   6  19
ATOM     19  N   UNL d   1      51.451  33.520  53.534  0.00  0.00    -0.058 NA
BRANCH  19  20
ATOM     20  C   UNL d   1      51.253  34.025  52.903  0.00  0.00     0.118 C 
BRANCH  20  21
ATOM     21  C   UNL d   1      50.548  34.273  52.550  0.00  0.00     0.020 A 
ATOM     22  C   UNL d   1      49.976  34.682  52.989  0.00  0.00     0.002 A 
ATOM     23  C   UNL d   1      49.271  34.925  52.619  0.00  0.00     0.000 A 
ATOM     24  C   UNL d   1      49.142  34.762  51.825  0.00  0.00     0.000 A 
ATOM     25  C   UNL d   1      49.708  34.357  51.389  0.00  0.00     0.000 A 
ATOM     26  C   UNL d   1      50.410  34.113  51.751  0.00  0.00     0.002 A 
ENDBRANCH  20  21
ENDBRANCH  19  20
ENDBRANCH   6  19
TORSDOF 5
ENDMDL
MODEL 2
REMARK VINA RESULT:      -9.2      1.439      4.031
REMARK  5 active torsions:
REMARK  status: ('A' for Active; 'I' for Inactive)
REMARK    1  A    between atoms: N_10  and  C_3 
REMARK    2  A    between atoms: N_11  and  C_6 
REMARK    3  A    between atoms: C_12  and  N_10 
REMARK    4  A    between atoms: C_13  and  N_11 
REMARK    5  A    between atoms: C_21  and  C_13 
ROOT
ATOM      1  C   UNL d   1      53.705  33.870  54.450  0.00  0.00     0.187 A 
ATOM      2  C   UNL d   1      53.285  34.382  54.023  0.00  0.00     0.094 A 
ATOM      3  C   UNL d   1      52.954  34.153  53.342  0.00  0.00     0.185 A 
ATOM      4  N   UNL d   1      53.798  33.132  54.203  0.00  0.00    -0.040 NA
ATOM      5  N   UNL d   1      53.052  33.411  53.100  0.00  0.00    -0.040 NA
ATOM      6  C   UNL d   1      53.472  32.902  53.530  0.00  0.00     0.753 A 
ATOM      7  N   UNL d   1      53.939  34.848  55.379  0.00  0.00    -0.162 NA
ATOM      8  N   UNL d   1      54.035  34.097  55.130  0.00  0.00    -0.208 N 
ATOM      9  C   UNL d   1      53.519  35.357  54.950  0.00  0.00     0.127 A 
ATOM     10  C   UNL d   1      54.454  33.591  55.557  0.00  0.00     0.123 C 
ENDROOT
BRANCH   3  11
ATOM     11  N   UNL d   1      52.515  34.677  52.889  0.00  0.00    -0.226 NA
BRANCH  11  12
ATOM     12  C   UNL d   1      51.735  34.506  52.696  0.00  0.00     0.083 A 
ATOM     13  C   UNL d   1      51.128  34.588  53.258  0.00  0.00     0.021 A 
ATOM     14  C   UNL d   1      50.344  34.417  53.066  0.00  0.00     0.031 A 
ATOM     15  C   UNL d   1      50.160  34.158  52.297  0.00  0.00     0.140 A 
ATOM     16  C   UNL d   1      50.756  34.075  51.737  0.00  0.00     0.031 A 
ATOM     17  F   UNL d   1      49.383  33.984  52.095  0.00  0.00    -0.204 F 
ATOM     18  C   UNL d   1      51.545  34.249  51.936  0.00  0.00     0.021 A 
ENDBRANCH  11  12
ENDBRANCH   3  11
BRANCH   6  19
ATOM     19  N   UNL d   1      53.569  32.121  53.265  0.00  0.00    -0.058 NA
BRANCH  19  20
ATOM     20  C   UNL d   1      53.111  31.512  53.600  0.00  0.00     0.118 C 
BRANCH  20  21
ATOM     21  C   UNL d   1      53.078  30.691  53.518  0.00  0.00     0.020 A 
ATOM     22  C   UNL d   1      52.761  30.347  52.834  0.00  0.00     0.002 A 
ATOM     23  C   UNL d   1      52.734  29.517  52.765  0.00  0.00     0.000 A 
ATOM     24  C   UNL d   1      53.019  29.042  53.371  0.00  0.00     0.000 A 
ATOM     25  C   UNL d   1      53.334  29.381  54.049  0.00  0.00     0.000 A 
ATOM     26  C   UNL d   1      53.362  30.204  54.122  0.00  0.00     0.002 A 
ENDBRANCH  20  21
ENDBRANCH  19  20
ENDBRANCH   6  19
TORSDOF 5
ENDMDL
MODEL 3
REMARK VINA RESULT:      -9.0      1.724      3.164
REMARK  5 active torsions:
REMARK  status: ('A' for Active; 'I' for Inactive)
REMARK    1  A    between atoms: N_10  and  C_3 
REMARK    2  A    between atoms: N_11  and  C_6 
REMARK    3  A    between atoms: C_12  and  N_10 
REMARK    4  A    between atoms: C_13  and  N_11 
REMARK    5  A    between atoms: C_21  and  C_13 
ROOT
ATOM      1  C   UNL d   1      52.787  30.720  53.286  0.00  0.00     0.187 A 
ATOM      2  C   UNL d   1      53.499  30.923  53.555  0.00  0.00     0.094 A 
ATOM      3  C   UNL d   1      53.758  31.665  53.469  0.00  0.00     0.185 A 
ATOM      4  N   UNL d   1      52.331  31.250  52.933  0.00  0.00    -0.040 NA
ATOM      5  N   UNL d   1      53.296  32.192  53.114  0.00  0.00    -0.040 NA
ATOM      6  C   UNL d   1      52.584  31.985  52.846  0.00  0.00     0.753 A 
ATOM      7  N   UNL d   1      52.992  29.440  53.730  0.00  0.00    -0.162 NA
ATOM      8  N   UNL d   1      52.528  29.978  53.371  0.00  0.00    -0.208 N 
ATOM      9  C   UNL d   1      53.704  29.647  53.998  0.00  0.00     0.127 A 
ATOM     10  C   UNL d   1      51.819  29.773  53.104  0.00  0.00     0.123 C 
ENDROOT
BRANCH   3  11
ATOM     11  N   UNL d   1      54.498  31.888  53.745  0.00  0.00    -0.226 NA
BRANCH  11  12
ATOM     12  C   UNL d   1      54.578  32.541  54.237  0.00  0.00     0.083 A 
ATOM     13  C   UNL d   1      54.279  32.530  55.013  0.00  0.00     0.021 A 
ATOM     14  C   UNL d   1      54.358  33.185  55.508  0.00  0.00     0.031 A 
ATOM     15  C   UNL d   1      54.743  33.866  55.225  0.00  0.00     0.140 A 
ATOM     16  C   UNL d   1      55.040  33.883  54.459  0.00  0.00     0.031 A 
ATOM     17  F   UNL d   1      54.827  34.524  55.710  0.00  0.00    -0.204 F 
ATOM     18  C   UNL d   1      54.958  33.219  53.963  0.00  0.00     0.021 A 
ENDBRANCH  11  12
ENDBRANCH   3  11
BRANCH   6  19
ATOM     19  N   UNL d   1      52.104  32.550  52.472  0.00  0.00    -0.058 NA
BRANCH  19  20
ATOM     20  C   UNL d   1      51.645  33.070  52.932  0.00  0.00     0.118 C 
BRANCH  20  21
ATOM     21  C   UNL d   1      51.065  33.637  52.772  0.00  0.00     0.020 A 
ATOM     22  C   UNL d   1      50.900  33.865  51.993  0.00  0.00     0.002 A 
ATOM     23  C   UNL d   1      50.313  34.437  51.848  0.00  0.00     0.000 A 
ATOM     24  C   UNL d   1      49.899  34.774  52.472  0.00  0.00     0.000 A 
ATOM     25  C   UNL d   1      50.062  34.549  53.245  0.00  0.00     0.000 A 
ATOM     26  C   UNL d   1      50.644  33.981  53.394  0.00  0.00     0.002 A 
ENDBRANCH  20  21
ENDBRANCH  19  20
ENDBRANCH   6  19
TORSDOF 5
ENDMDL
MODEL 4
REMARK VINA RESULT:      -7.8      1.640      4.310
REMARK  5 active torsions:
REMARK  status: ('A' for Active; 'I' for Inactive)
REMARK    1  A    between atoms: N_10  and  C_3 
REMARK    2  A    between atoms: N_11  and  C_6 
REMARK    3  A    between atoms: C_12  and  N_10 
REMARK    4  A    between atoms: C_13  and  N_11 
REMARK    5  A    between atoms: C_21  and  C_13 
ROOT
ATOM      1  C   UNL d   1      51.650  33.304  52.895  0.00  0.00     0.187 A 
ATOM      2  C   UNL d   1      52.246  33.781  53.091  0.00  0.00     0.094 A 
ATOM      3  C   UNL d   1      52.970  33.484  53.205  0.00  0.00     0.185 A 
ATOM      4  N   UNL d   1      51.769  32.535  52.811  0.00  0.00    -0.040 NA
ATOM      5  N   UNL d   1      53.083  32.710  53.119  0.00  0.00    -0.040 NA
ATOM      6  C   UNL d   1      52.484  32.237  52.923  0.00  0.00     0.753 A 
ATOM      7  N   UNL d   1      50.806  34.383  52.866  0.00  0.00    -0.162 NA
ATOM      8  N   UNL d   1      50.926  33.600  52.781  0.00  0.00    -0.208 N 
ATOM      9  C   UNL d   1      51.405  34.856  53.063  0.00  0.00     0.127 A 
ATOM     10  C   UNL d   1      50.331  33.129  52.586  0.00  0.00     0.123 C 
ENDROOT
BRANCH   3  11
ATOM     11  N   UNL d   1      53.598  33.970  53.409  0.00  0.00    -0.226 NA
BRANCH  11  12
ATOM     12  C   UNL d   1      54.011  33.843  54.108  0.00  0.00     0.083 A 
ATOM     13  C   UNL d   1      53.700  34.091  54.838  0.00  0.00     0.021 A 
ATOM     14  C   UNL d   1      54.113  33.964  55.541  0.00  0.00     0.031 A 
ATOM     15  C   UNL d   1      54.852  33.582  55.517  0.00  0.00     0.140 A 
ATOM     16  C   UNL d   1      55.164  33.335  54.798  0.00  0.00     0.031 A 
ATOM     17  F   UNL d   1      55.272  33.451  56.211  0.00  0.00    -0.204 F 
ATOM     18  C   UNL d   1      54.743  33.465  54.092  0.00  0.00     0.021 A 
ENDBRANCH  11  12
ENDBRANCH   3  11
BRANCH   6  19
ATOM     19  N   UNL d   1      52.615  31.422  52.835  0.00  0.00    -0.058 NA
BRANCH  19  20
ATOM     20  C   UNL d   1      52.487  30.911  53.480  0.00  0.00     0.118 C 
BRANCH  20  21
ATOM     21  C   UNL d   1      52.812  30.196  53.734  0.00  0.00     0.020 A 
ATOM     22  C   UNL d   1      52.964  29.585  53.195  0.00  0.00     0.002 A 
ATOM     23  C   UNL d   1      53.292  28.869  53.467  0.00  0.00     0.000 A 
ATOM     24  C   UNL d   1      53.463  28.768  54.263  0.00  0.00     0.000 A 
ATOM     25  C   UNL d   1      53.313  29.372  54.799  0.00  0.00     0.000 A 
ATOM     26  C   UNL d   1      52.987  30.085  54.534  0.00  0.00     0.002 A 
ENDBRANCH  20  21
ENDBRANCH  19  20
ENDBRANCH   6  19
TORSDOF 5
ENDMDL
MODEL 5
REMARK VINA RESULT:      -7.5      1.843      4.451
REMARK  5 active torsions:
REMARK  status: ('A' for Active; 'I' for Inactive)
REMARK    1  A    between atoms: N_10  and  C_3 
REMARK    2  A    between atoms: N_11  and  C_6 
REMARK    3  A    between atoms: C_12  and  N_10 
REMARK    4  A    between atoms: C_13  and  N_11 
REMARK    5  A    between atoms: C_21  and  C_13 
ROOT
ATOM      1  C   UNL d   1      53.064  30.513  53.508  0.00  0.00     0.187 A 
ATOM      2  C   UNL d   1      52.510  30.847  53.058  0.00  0.00     0.094 A 
ATOM      3  C   UNL d   1      52.561  31.612  52.868  0.00  0.00     0.185 A 
ATOM      4  N   UNL d   1      53.668  30.936  53.770  0.00  0.00    -0.040 NA
ATOM      5  N   UNL d   1      53.171  32.032  53.135  0.00  0.00    -0.040 NA
ATOM      6  C   UNL d   1      53.723  31.694  53.585  0.00  0.00     0.753 A 
ATOM      7  N   UNL d   1      52.398  29.318  53.430  0.00  0.00    -0.162 NA
ATOM      8  N   UNL d   1      53.013  29.748  53.697  0.00  0.00    -0.208 N 
ATOM      9  C   UNL d   1      51.845  29.656  52.980  0.00  0.00     0.127 A 
ATOM     10  C   UNL d   1      53.562  29.413  54.145  0.00  0.00     0.123 C 
ENDROOT
BRANCH   3  11
ATOM     11  N   UNL d   1      51.990  31.970  52.400  0.00  0.00    -0.226 NA
BRANCH  11  12
ATOM     12  C   UNL d   1      51.684  32.703  52.608  0.00  0.00     0.083 A 
ATOM     13  C   UNL d   1      51.095  32.770  53.193  0.00  0.00     0.021 A 
ATOM     14  C   UNL d   1      50.786  33.505  53.403  0.00  0.00     0.031 A 
ATOM     15  C   UNL d   1      51.068  34.190  53.023  0.00  0.00     0.140 A 
ATOM     16  C   UNL d   1      51.649  34.130  52.445  0.00  0.00     0.031 A 
ATOM     17  F   UNL d   1      50.766  34.927  53.225  0.00  0.00    -0.204 F 
ATOM     18  C   UNL d   1      51.958  33.386  52.236  0.00  0.00     0.021 A 
ENDBRANCH  11  12
ENDBRANCH   3  11
BRANCH   6  19
ATOM     19  N   UNL d   1      54.362  32.147  53.861  0.00  0.00    -0.058 NA
BRANCH  19  20
ATOM     20  C   UNL d   1      54.301  32.546  54.588  0.00  0.00     0.118 C 
BRANCH  20  21
ATOM     21  C   UNL d   1      54.560  33.274  54.880  0.00  0.00     0.020 A 
ATOM     22  C   UNL d   1      55.352  33.506  54.800  0.00  0.00     0.002 A 
ATOM     23  C   UNL d   1      55.597  34.243  55.099  0.00  0.00     0.000 A 
ATOM     24  C   UNL d   1      55.059  34.738  55.472  0.00  0.00     0.000 A 
ATOM     25  C   UNL d   1      54.274  34.511  55.552  0.00  0.00     0.000 A 
ATOM     26  C   UNL d   1      54.026  33.780  55.256  0.00  0.00     0.002 A 
ENDBRANCH  20  21
ENDBRANCH  19  20
ENDBRANCH   6  19
TORSDOF 5
ENDMDL
