MODEL 1
REMARK VINA RESULT:      -9.0      0.000      0.000
REMARK  8 active torsions:
REMARK  status: ('A' for Active; 'I' for Inactive)
REMARK    1  A    between atoms: C_22  and  N_1 
REMARK       I    between atoms: N_8  and  C_12 
REMARK    2  A    between atoms: C_12  and  C_27 
REMARK    3  A    between atoms: C_23  and  N_13 
REMARK    4  A    between atoms: C_30  and  C_22 
REMARK    5  A    between atoms: C_26  and  C_23 
REMARK    6  A    between atoms: C_27  and  C_31 
REMARK    7  A    between atoms: C_32  and  C_30 
REMARK    8  A    between atoms: C_31  and  C_32 
ROOT
ATOM      1  C   UNL d   1      51.124  34.441  52.617  0.00  0.00     0.002 C 
ENDROOT
BRANCH   1   2
ATOM      2  C   UNL d   1      50.363  34.383  52.293  0.00  0.00     0.005 C 
BRANCH   2   3
ATOM      3  C   UNL d   1      49.755  34.877  52.567  0.00  0.00     0.061 C 
BRANCH   3   4
ATOM      4  C   UNL d   1      49.078  34.994  52.097  0.00  0.00     0.265 C 
ATOM      5  N   UNL d   1      48.424  35.415  52.397  0.00  0.00    -0.269 N 
ATOM      6  C   UNL d   1      47.758  35.526  51.926  0.00  0.00     0.102 A 
ATOM      7  C   UNL d   1      48.440  35.720  53.161  0.00  0.00     0.102 A 
ATOM      8  C   UNL d   1      47.105  35.944  52.221  0.00  0.00     0.100 A 
ATOM      9  N   UNL d   1      47.122  36.248  52.986  0.00  0.00    -0.300 N 
ATOM     10  C   UNL d   1      47.788  36.137  53.456  0.00  0.00     0.100 A 
ATOM     11  O   UNL d   1      49.051  34.692  51.328  0.00  0.00    -0.267 OA
BRANCH   9  12
ATOM     12  C   UNL d   1      46.473  36.664  53.279  0.00  0.00     0.080 C 
BRANCH  12  13
ATOM     13  C   UNL d   1      45.882  36.268  53.693  0.00  0.00     0.018 A 
ATOM     14  C   UNL d   1      45.937  36.188  54.511  0.00  0.00     0.002 A 
ATOM     15  C   UNL d   1      45.343  35.790  54.931  0.00  0.00     0.000 A 
ATOM     16  C   UNL d   1      44.696  35.474  54.528  0.00  0.00     0.000 A 
ATOM     17  C   UNL d   1      44.644  35.556  53.704  0.00  0.00     0.000 A 
ATOM     18  C   UNL d   1      45.235  35.952  53.289  0.00  0.00     0.002 A 
ENDBRANCH  12  13
ENDBRANCH   9  12
ENDBRANCH   3   4
ENDBRANCH   2   3
ENDBRANCH   1   2
BRANCH   1  19
ATOM     19  C   UNL d   1      51.487  33.780  52.956  0.00  0.00     0.019 C 
BRANCH  19  20
ATOM     20  C   UNL d   1      52.262  33.582  52.761  0.00  0.00     0.085 C 
BRANCH  20  21
ATOM     21  N   UNL d   1      52.627  32.934  53.125  0.00  0.00    -0.249 N 
ATOM     22  C   UNL d   1      52.428  32.160  52.898  0.00  0.00     0.268 A 
ATOM     23  C   UNL d   1      52.792  31.517  53.262  0.00  0.00     0.076 A 
ATOM     24  O   UNL d   1      51.865  32.037  52.309  0.00  0.00    -0.267 OA
ATOM     25  C   UNL d   1      52.593  30.751  53.034  0.00  0.00     0.033 A 
ATOM     26  C   UNL d   1      53.356  31.640  53.851  0.00  0.00     0.090 A 
ATOM     27  C   UNL d   1      52.957  30.104  53.398  0.00  0.00     0.119 A 
ATOM     28  O   UNL d   1      52.873  29.291  53.290  0.00  0.00    -0.300 OA
ATOM     29  C   UNL d   1      53.521  30.227  53.988  0.00  0.00     0.121 A 
ATOM     30  C   UNL d   1      53.384  28.917  53.812  0.00  0.00     0.304 A 
ATOM     31  O   UNL d   1      53.782  29.489  54.241  0.00  0.00    -0.299 OA
ATOM     32  C   UNL d   1      53.720  30.996  54.214  0.00  0.00     0.046 A 
ATOM     33  N   UNL d   1      53.555  32.405  54.078  0.00  0.00    -0.218 NA
ATOM     34  C   UNL d   1      53.191  33.057  53.715  0.00  0.00     0.208 A 
ATOM     35  S   UNL d   1      53.395  33.828  53.947  0.00  0.00    -0.038 SA
ENDBRANCH  20  21
ENDBRANCH  19  20
ENDBRANCH   1  19
TORSDOF 8
ENDMDL
MODEL 2
REMARK VINA RESULT:      -8.8      2.302      7.728
REMARK  8 active torsions:
REMARK  status: ('A' for Active; 'I' for Inactive)
REMARK    1  A    between atoms: C_22  and  N_1 
REMARK       I    between atoms: N_8  and  C_12 
REMARK    2  A    between atoms: C_12  and  C_27 
REMARK    3  A    between atoms: C_23  and  N_13 
REMARK    4  A    between atoms: C_30  and  C_22 
REMARK    5  A    between atoms: C_26  and  C_23 
REMARK    6  A    between atoms: C_27  and  C_31 
REMARK    7  A    between atoms: C_32  and  C_30 
REMARK    8  A    between atoms: C_31  and  C_32 
ROOT
ATOM      1  C   UNL d   1      49.288  35.262  52.576  0.00  0.00     0.002 C 
ENDROOT
BRANCH   1   2
ATOM      2  C   UNL d   1      49.754  34.587  52.456  0.00  0.00     0.005 C 
BRANCH   2   3
ATOM      3  C   UNL d   1      50.538  34.568  52.728  0.00  0.00     0.061 C 
BRANCH   3   4
ATOM      4  C   UNL d   1      51.094  34.081  52.345  0.00  0.00     0.265 C 
ATOM      5  N   UNL d   1      51.672  33.674  52.785  0.00  0.00    -0.269 N 
ATOM      6  C   UNL d   1      52.218  33.193  52.399  0.00  0.00     0.102 A 
ATOM      7  C   UNL d   1      51.700  33.748  53.605  0.00  0.00     0.102 A 
ATOM      8  C   UNL d   1      52.795  32.786  52.834  0.00  0.00     0.100 A 
ATOM      9  N   UNL d   1      52.822  32.862  53.654  0.00  0.00    -0.300 N 
ATOM     10  C   UNL d   1      52.276  33.341  54.040  0.00  0.00     0.100 A 
ATOM     11  O   UNL d   1      51.075  33.999  51.522  0.00  0.00    -0.267 OA
BRANCH   9  12
ATOM     12  C   UNL d   1      53.396  32.457  54.087  0.00  0.00     0.080 C 
BRANCH  12  13
ATOM     13  C   UNL d   1      54.048  32.859  54.385  0.00  0.00     0.018 A 
ATOM     14  C   UNL d   1      54.667  33.068  53.882  0.00  0.00     0.002 A 
ATOM     15  C   UNL d   1      55.326  33.474  54.179  0.00  0.00     0.000 A 
ATOM     16  C   UNL d   1      55.362  33.669  54.980  0.00  0.00     0.000 A 
ATOM     17  C   UNL d   1      54.738  33.457  55.484  0.00  0.00     0.000 A 
ATOM     18  C   UNL d   1      54.084  33.054  55.186  0.00  0.00     0.002 A 
ENDBRANCH  12  13
ENDBRANCH   9  12
ENDBRANCH   3   4
ENDBRANCH   2   3
ENDBRANCH   1   2
BRANCH   1  19
ATOM     19  C   UNL d   1      48.465  35.221  52.513  0.00  0.00     0.019 C 
BRANCH  19  20
ATOM     20  C   UNL d   1      48.014  35.908  52.457  0.00  0.00     0.085 C 
BRANCH  20  21
ATOM     21  N   UNL d   1      47.268  35.943  52.814  0.00  0.00    -0.249 N 
ATOM     22  C   UNL d   1      47.195  36.180  53.607  0.00  0.00     0.268 A 
ATOM     23  C   UNL d   1      46.452  36.215  53.960  0.00  0.00     0.076 A 
ATOM     24  O   UNL d   1      47.868  36.382  54.039  0.00  0.00    -0.267 OA
ATOM     25  C   UNL d   1      46.383  36.451  54.746  0.00  0.00     0.033 A 
ATOM     26  C   UNL d   1      45.779  36.014  53.528  0.00  0.00     0.090 A 
ATOM     27  C   UNL d   1      45.638  36.486  55.103  0.00  0.00     0.119 A 
ATOM     28  O   UNL d   1      45.400  36.697  55.863  0.00  0.00    -0.300 OA
ATOM     29  C   UNL d   1      44.965  36.285  54.671  0.00  0.00     0.121 A 
ATOM     30  C   UNL d   1      44.583  36.625  55.897  0.00  0.00     0.304 A 
ATOM     31  O   UNL d   1      44.314  36.373  55.167  0.00  0.00    -0.299 OA
ATOM     32  C   UNL d   1      45.036  36.049  53.883  0.00  0.00     0.046 A 
ATOM     33  N   UNL d   1      45.848  35.778  52.743  0.00  0.00    -0.218 NA
ATOM     34  C   UNL d   1      46.595  35.742  52.382  0.00  0.00     0.208 A 
ATOM     35  S   UNL d   1      46.660  35.503  51.589  0.00  0.00    -0.038 SA
ENDBRANCH  20  21
ENDBRANCH  19  20
ENDBRANCH   1  19
TORSDOF 8
ENDMDL
MODEL 3
REMARK VINA RESULT:      -8.7      1.982      7.672
REMARK  8 active torsions:
REMARK  status: ('A' for Active; 'I' for Inactive)
REMARK    1  A    between atoms: C_22  and  N_1 
REMARK       I    between atoms: N_8  and  C_12 
REMARK    2  A    between atoms: C_12  and  C_27 
REMARK    3  A    between atoms: C_23  and  N_13 
REMARK    4  A    between atoms: C_30  and  C_22 
REMARK    5  A    between atoms: C_26  and  C_23 
REMARK    6  A    between atoms: C_27  and  C_31 
REMARK    7  A    between atoms: C_32  and  C_30 
REMARK    8  A    between atoms: C_31  and  C_32 
ROOT
ATOM      1  C   UNL d   1      49.962  34.817  52.545  0.00  0.00     0.002 C 
ENDROOT
BRANCH   1   2
ATOM      2  C   UNL d   1      50.509  34.525  53.097  0.00  0.00     0.005 C 
BRANCH   2   3
ATOM      3  C   UNL d   1      51.174  34.100  52.838  0.00  0.00     0.061 C 
BRANCH   3   4
ATOM      4  C   UNL d   1      51.846  34.051  53.327  0.00  0.00     0.265 C 
ATOM      5  N   UNL d   1      52.335  33.377  53.306  0.00  0.00    -0.269 N 
ATOM      6  C   UNL d   1      52.998  33.338  53.793  0.00  0.00     0.102 A 
ATOM      7  C   UNL d   1      52.159  32.751  52.802  0.00  0.00     0.102 A 
ATOM      8  C   UNL d   1      53.487  32.668  53.775  0.00  0.00     0.100 A 
ATOM      9  N   UNL d   1      53.311  32.042  53.271  0.00  0.00    -0.300 N 
ATOM     10  C   UNL d   1      52.648  32.082  52.784  0.00  0.00     0.100 A 
ATOM     11  O   UNL d   1      52.032  34.675  53.837  0.00  0.00    -0.267 OA
BRANCH   9  12
ATOM     12  C   UNL d   1      53.797  31.376  53.253  0.00  0.00     0.080 C 
BRANCH  12  13
ATOM     13  C   UNL d   1      53.510  30.648  53.508  0.00  0.00     0.018 A 
ATOM     14  C   UNL d   1      53.599  30.427  54.297  0.00  0.00     0.002 A 
ATOM     15  C   UNL d   1      53.311  29.694  54.558  0.00  0.00     0.000 A 
ATOM     16  C   UNL d   1      52.936  29.187  54.026  0.00  0.00     0.000 A 
ATOM     17  C   UNL d   1      52.849  29.413  53.233  0.00  0.00     0.000 A 
ATOM     18  C   UNL d   1      53.136  30.141  52.976  0.00  0.00     0.002 A 
ENDBRANCH  12  13
ENDBRANCH   9  12
ENDBRANCH   3   4
ENDBRANCH   2   3
ENDBRANCH   1   2
BRANCH   1  19
ATOM     19  C   UNL d   1      49.177  34.952  52.765  0.00  0.00     0.019 C 
BRANCH  19  20
ATOM     20  C   UNL d   1      48.793  35.646  52.541  0.00  0.00     0.085 C 
BRANCH  20  21
ATOM     21  N   UNL d   1      47.993  35.753  52.724  0.00  0.00    -0.249 N 
ATOM     22  C   UNL d   1      47.767  36.002  53.484  0.00  0.00     0.268 A 
ATOM     23  C   UNL d   1      46.971  36.108  53.664  0.00  0.00     0.076 A 
ATOM     24  O   UNL d   1      48.344  36.144  54.057  0.00  0.00    -0.267 OA
ATOM     25  C   UNL d   1      46.751  36.356  54.418  0.00  0.00     0.033 A 
ATOM     26  C   UNL d   1      46.395  35.967  53.090  0.00  0.00     0.090 A 
ATOM     27  C   UNL d   1      45.952  36.463  54.601  0.00  0.00     0.119 A 
ATOM     28  O   UNL d   1      45.571  36.701  55.292  0.00  0.00    -0.300 OA
ATOM     29  C   UNL d   1      45.376  36.321  54.027  0.00  0.00     0.121 A 
ATOM     30  C   UNL d   1      44.764  36.706  55.142  0.00  0.00     0.304 A 
ATOM     31  O   UNL d   1      44.642  36.473  54.368  0.00  0.00    -0.299 OA
ATOM     32  C   UNL d   1      45.599  36.073  53.272  0.00  0.00     0.046 A 
ATOM     33  N   UNL d   1      46.615  35.720  52.337  0.00  0.00    -0.218 NA
ATOM     34  C   UNL d   1      47.417  35.611  52.151  0.00  0.00     0.208 A 
ATOM     35  S   UNL d   1      47.635  35.361  51.389  0.00  0.00    -0.038 SA
ENDBRANCH  20  21
ENDBRANCH  19  20
ENDBRANCH   1  19
TORSDOF 8
ENDMDL
MODEL 4
REMARK VINA RESULT:      -8.7      1.740      2.217
REMARK  8 active torsions:
REMARK  status: ('A' for Active; 'I' for Inactive)
REMARK    1  A    between atoms: C_22  and  N_1 
REMARK       I    between atoms: N_8  and  C_12 
REMARK    2  A    between atoms: C_12  and  C_27 
REMARK    3  A    between atoms: C_23  and  N_13 
REMARK    4  A    between atoms: C_30  and  C_22 
REMARK    5  A    between atoms: C_26  and  C_23 
REMARK    6  A    between atoms: C_27  and  C_31 
REMARK    7  A    between atoms: C_32  and  C_30 
REMARK    8  A    between atoms: C_31  and  C_32 
ROOT
ATOM      1  C   UNL d   1      50.374  34.483  52.149  0.00  0.00     0.002 C 
ENDROOT
BRANCH   1   2
ATOM      2  C   UNL d   1      49.553  34.466  52.271  0.00  0.00     0.005 C 
BRANCH   2   3
ATOM      3  C   UNL d   1      49.115  35.172  52.257  0.00  0.00     0.061 C 
BRANCH   3   4
ATOM      4  C   UNL d   1      48.392  35.198  51.847  0.00  0.00     0.265 C 
ATOM      5  N   UNL d   1      47.731  35.579  52.181  0.00  0.00    -0.269 N 
ATOM      6  C   UNL d   1      47.018  35.601  51.768  0.00  0.00     0.102 A 
ATOM      7  C   UNL d   1      47.785  35.933  52.922  0.00  0.00     0.102 A 
ATOM      8  C   UNL d   1      46.358  35.978  52.098  0.00  0.00     0.100 A 
ATOM      9  N   UNL d   1      46.414  36.333  52.839  0.00  0.00    -0.300 N 
ATOM     10  C   UNL d   1      47.125  36.311  53.252  0.00  0.00     0.100 A 
ATOM     11  O   UNL d   1      48.326  34.845  51.102  0.00  0.00    -0.267 OA
BRANCH   9  12
ATOM     12  C   UNL d   1      45.757  36.709  53.168  0.00  0.00     0.080 C 
BRANCH  12  13
ATOM     13  C   UNL d   1      45.305  36.326  53.739  0.00  0.00     0.018 A 
ATOM     14  C   UNL d   1      45.391  36.529  54.533  0.00  0.00     0.002 A 
ATOM     15  C   UNL d   1      44.937  36.145  55.112  0.00  0.00     0.000 A 
ATOM     16  C   UNL d   1      44.398  35.561  54.891  0.00  0.00     0.000 A 
ATOM     17  C   UNL d   1      44.314  35.360  54.090  0.00  0.00     0.000 A 
ATOM     18  C   UNL d   1      44.766  35.742  53.518  0.00  0.00     0.002 A 
ENDBRANCH  12  13
ENDBRANCH   9  12
ENDBRANCH   3   4
ENDBRANCH   2   3
ENDBRANCH   1   2
BRANCH   1  19
ATOM     19  C   UNL d   1      50.882  34.088  52.666  0.00  0.00     0.019 C 
BRANCH  19  20
ATOM     20  C   UNL d   1      51.612  33.809  52.404  0.00  0.00     0.085 C 
BRANCH  20  21
ATOM     21  N   UNL d   1      52.170  33.535  52.950  0.00  0.00    -0.249 N 
ATOM     22  C   UNL d   1      52.666  34.071  53.347  0.00  0.00     0.268 A 
ATOM     23  C   UNL d   1      53.220  33.796  53.889  0.00  0.00     0.076 A 
ATOM     24  O   UNL d   1      52.601  34.879  53.194  0.00  0.00    -0.267 OA
ATOM     25  C   UNL d   1      53.711  34.330  54.280  0.00  0.00     0.033 A 
ATOM     26  C   UNL d   1      53.285  32.988  54.041  0.00  0.00     0.090 A 
ATOM     27  C   UNL d   1      54.268  34.056  54.826  0.00  0.00     0.119 A 
ATOM     28  O   UNL d   1      54.822  34.448  55.293  0.00  0.00    -0.300 OA
ATOM     29  C   UNL d   1      54.332  33.248  54.978  0.00  0.00     0.121 A 
ATOM     30  C   UNL d   1      55.226  33.882  55.730  0.00  0.00     0.304 A 
ATOM     31  O   UNL d   1      54.927  33.145  55.538  0.00  0.00    -0.299 OA
ATOM     32  C   UNL d   1      53.840  32.714  54.585  0.00  0.00     0.046 A 
ATOM     33  N   UNL d   1      52.795  32.454  53.651  0.00  0.00    -0.218 NA
ATOM     34  C   UNL d   1      52.235  32.727  53.102  0.00  0.00     0.208 A 
ATOM     35  S   UNL d   1      51.742  32.185  52.710  0.00  0.00    -0.038 SA
ENDBRANCH  20  21
ENDBRANCH  19  20
ENDBRANCH   1  19
TORSDOF 8
ENDMDL
MODEL 5
REMARK VINA RESULT:      -7.6      1.850      7.698
REMARK  8 active torsions:
REMARK  status: ('A' for Active; 'I' for Inactive)
REMARK    1  A    between atoms: C_22  and  N_1 
REMARK       I    between atoms: N_8  and  C_12 
REMARK    2  A    between atoms: C_12  and  C_27 
REMARK    3  A    between atoms: C_23  and  N_13 
REMARK    4  A    between atoms: C_30  and  C_22 
REMARK    5  A    between atoms: C_26  and  C_23 
REMARK    6  A    between atoms: C_27  and  C_31 
REMARK    7  A    between atoms: C_32  and  C_30 
REMARK    8  A    between atoms: C_31  and  C_32 
ROOT
ATOM      1  C   UNL d   1      50.224  34.408  52.315  0.00  0.00     0.002 C 
ENDROOT
BRANCH   1   2
ATOM      2  C   UNL d   1      50.775  34.253  52.915  0.00  0.00     0.005 C 
BRANCH   2   3
ATOM      3  C   UNL d   1      51.419  33.750  52.768  0.00  0.00     0.061 C 
BRANCH   3   4
ATOM      4  C   UNL d   1      52.029  33.689  53.331  0.00  0.00     0.265 C 
ATOM      5  N   UNL d   1      52.508  33.008  53.363  0.00  0.00    -0.269 N 
ATOM      6  C   UNL d   1      53.110  32.956  53.923  0.00  0.00     0.102 A 
ATOM      7  C   UNL d   1      52.383  32.387  52.837  0.00  0.00     0.102 A 
ATOM      8  C   UNL d   1      53.589  32.280  53.957  0.00  0.00     0.100 A 
ATOM      9  N   UNL d   1      53.463  31.659  53.431  0.00  0.00    -0.300 N 
ATOM     10  C   UNL d   1      52.862  31.711  52.871  0.00  0.00     0.100 A 
ATOM     11  O   UNL d   1      52.163  34.307  53.864  0.00  0.00    -0.267 OA
BRANCH   9  12
ATOM     12  C   UNL d   1      53.939  30.986  53.465  0.00  0.00     0.080 C 
BRANCH  12  13
ATOM     13  C   UNL d   1      53.642  30.286  53.779  0.00  0.00     0.018 A 
ATOM     14  C   UNL d   1      53.373  29.692  53.275  0.00  0.00     0.002 A 
ATOM     15  C   UNL d   1      53.073  28.985  53.589  0.00  0.00     0.000 A 
ATOM     16  C   UNL d   1      53.046  28.877  54.406  0.00  0.00     0.000 A 
ATOM     17  C   UNL d   1      53.318  29.477  54.910  0.00  0.00     0.000 A 
ATOM     18  C   UNL d   1      53.615  30.178  54.597  0.00  0.00     0.002 A 
ENDBRANCH  12  13
ENDBRANCH   9  12
ENDBRANCH   3   4
ENDBRANCH   2   3
ENDBRANCH   1   2
BRANCH   1  19
ATOM     19  C   UNL d   1      49.488  34.738  52.497  0.00  0.00     0.019 C 
BRANCH  19  20
ATOM     20  C   UNL d   1      49.115  35.246  51.967  0.00  0.00     0.085 C 
BRANCH  20  21
ATOM     21  N   UNL d   1      48.324  35.460  52.087  0.00  0.00    -0.249 N 
ATOM     22  C   UNL d   1      47.758  35.320  51.496  0.00  0.00     0.268 A 
ATOM     23  C   UNL d   1      46.973  35.533  51.617  0.00  0.00     0.076 A 
ATOM     24  O   UNL d   1      47.986  34.965  50.786  0.00  0.00    -0.267 OA
ATOM     25  C   UNL d   1      46.414  35.392  51.028  0.00  0.00     0.033 A 
ATOM     26  C   UNL d   1      46.745  35.888  52.326  0.00  0.00     0.090 A 
ATOM     27  C   UNL d   1      45.625  35.606  51.148  0.00  0.00     0.119 A 
ATOM     28  O   UNL d   1      44.956  35.536  50.672  0.00  0.00    -0.300 OA
ATOM     29  C   UNL d   1      45.397  35.960  51.858  0.00  0.00     0.121 A 
ATOM     30  C   UNL d   1      44.320  35.847  51.088  0.00  0.00     0.304 A 
ATOM     31  O   UNL d   1      44.589  36.108  51.815  0.00  0.00    -0.299 OA
ATOM     32  C   UNL d   1      45.959  36.101  52.447  0.00  0.00     0.046 A 
ATOM     33  N   UNL d   1      47.303  36.028  52.914  0.00  0.00    -0.218 NA
ATOM     34  C   UNL d   1      48.097  35.815  52.797  0.00  0.00     0.208 A 
ATOM     35  S   UNL d   1      48.657  35.959  53.393  0.00  0.00    -0.038 SA
ENDBRANCH  20  21
ENDBRANCH  19  20
ENDBRANCH   1  19
TORSDOF 8
ENDMDL
MODEL 6
REMARK VINA RESULT:      -7.1      1.048      1.531
REMARK  8 active torsions:
REMARK  status: ('A' for Active; 'I' for Inactive)
REMARK    1  A    between atoms: C_22  and  N_1 
REMARK       I    between atoms: N_8  and  C_12 
REMARK    2  A    between atoms: C_12  and  C_27 
REMARK    3  A    between atoms: C_23  and  N_13 
REMARK    4  A    between atoms: C_30  and  C_22 
REMARK    5  A    between atoms: C_26  and  C_23 
REMARK    6  A    between atoms: C_27  and  C_31 
REMARK    7  A    between atoms: C_32  and  C_30 
REMARK    8  A    between atoms: C_31  and  C_32 
ROOT
ATOM      1  C   UNL d   1      50.016  34.657  52.859  0.00  0.00     0.002 C 
ENDROOT
BRANCH   1   2
ATOM      2  C   UNL d   1      49.614  35.269  53.247  0.00  0.00     0.005 C 
BRANCH   2   3
ATOM      3  C   UNL d   1      48.817  35.421  53.070  0.00  0.00     0.061 C 
BRANCH   3   4
ATOM      4  C   UNL d   1      48.418  36.036  53.465  0.00  0.00     0.265 C 
ATOM      5  N   UNL d   1      47.598  35.985  53.606  0.00  0.00    -0.269 N 
ATOM      6  C   UNL d   1      47.211  36.598  53.998  0.00  0.00     0.102 A 
ATOM      7  C   UNL d   1      47.173  35.326  53.357  0.00  0.00     0.102 A 
ATOM      8  C   UNL d   1      46.396  36.551  54.140  0.00  0.00     0.100 A 
ATOM      9  N   UNL d   1      45.972  35.891  53.890  0.00  0.00    -0.300 N 
ATOM     10  C   UNL d   1      46.358  35.279  53.499  0.00  0.00     0.100 A 
ATOM     11  O   UNL d   1      48.836  36.703  53.721  0.00  0.00    -0.267 OA
BRANCH   9  12
ATOM     12  C   UNL d   1      45.160  35.844  54.031  0.00  0.00     0.080 C 
BRANCH  12  13
ATOM     13  C   UNL d   1      44.880  35.464  54.705  0.00  0.00     0.018 A 
ATOM     14  C   UNL d   1      44.765  35.892  55.400  0.00  0.00     0.002 A 
ATOM     15  C   UNL d   1      44.483  35.512  56.081  0.00  0.00     0.000 A 
ATOM     16  C   UNL d   1      44.317  34.704  56.062  0.00  0.00     0.000 A 
ATOM     17  C   UNL d   1      44.433  34.276  55.360  0.00  0.00     0.000 A 
ATOM     18  C   UNL d   1      44.714  34.656  54.686  0.00  0.00     0.002 A 
ENDBRANCH  12  13
ENDBRANCH   9  12
ENDBRANCH   3   4
ENDBRANCH   2   3
ENDBRANCH   1   2
BRANCH   1  19
ATOM     19  C   UNL d   1      50.776  34.438  53.098  0.00  0.00     0.019 C 
BRANCH  19  20
ATOM     20  C   UNL d   1      51.332  34.185  52.545  0.00  0.00     0.085 C 
BRANCH  20  21
ATOM     21  N   UNL d   1      51.946  33.680  52.778  0.00  0.00    -0.249 N 
ATOM     22  C   UNL d   1      51.828  32.858  52.794  0.00  0.00     0.268 A 
ATOM     23  C   UNL d   1      52.440  32.358  53.025  0.00  0.00     0.076 A 
ATOM     24  O   UNL d   1      51.096  32.544  52.577  0.00  0.00    -0.267 OA
ATOM     25  C   UNL d   1      52.319  31.543  53.040  0.00  0.00     0.033 A 
ATOM     26  C   UNL d   1      53.171  32.672  53.242  0.00  0.00     0.090 A 
ATOM     27  C   UNL d   1      52.932  31.039  53.272  0.00  0.00     0.119 A 
ATOM     28  O   UNL d   1      52.976  30.219  53.340  0.00  0.00    -0.300 OA
ATOM     29  C   UNL d   1      53.664  31.353  53.488  0.00  0.00     0.121 A 
ATOM     30  C   UNL d   1      53.733  30.031  53.598  0.00  0.00     0.304 A 
ATOM     31  O   UNL d   1      54.155  30.725  53.689  0.00  0.00    -0.299 OA
ATOM     32  C   UNL d   1      53.782  32.170  53.473  0.00  0.00     0.046 A 
ATOM     33  N   UNL d   1      53.291  33.485  53.227  0.00  0.00    -0.218 NA
ATOM     34  C   UNL d   1      52.677  33.994  52.994  0.00  0.00     0.208 A 
ATOM     35  S   UNL d   1      52.803  34.815  52.981  0.00  0.00    -0.038 SA
ENDBRANCH  20  21
ENDBRANCH  19  20
ENDBRANCH   1  19
TORSDOF 8
ENDMDL
MODEL 7
REMARK VINA RESULT:      -6.7      9.376     11.638
REMARK  8 active torsions:
REMARK  status: ('A' for Active; 'I' for Inactive)
REMARK    1  A    between atoms: C_22  and  N_1 
REMARK       I    between atoms: N_8  and  C_12 
REMARK    2  A    between atoms: C_12  and  C_27 
REMARK    3  A    between atoms: C_23  and  N_13 
REMARK    4  A    between atoms: C_30  and  C_22 
REMARK    5  A    between atoms: C_26  and  C_23 
REMARK    6  A    between atoms: C_27  and  C_31 
REMARK    7  A    between atoms: C_32  and  C_30 
REMARK    8  A    between atoms: C_31  and  C_32 
ROOT
ATOM      1  C   UNL d   1      45.145  26.616  56.649  0.00  0.00     0.002 C 
ENDROOT
BRANCH   1   2
ATOM      2  C   UNL d   1      44.645  25.960  56.561  0.00  0.00     0.005 C 
BRANCH   2   3
ATOM      3  C   UNL d   1      44.710  25.474  55.890  0.00  0.00     0.061 C 
BRANCH   3   4
ATOM      4  C   UNL d   1      44.700  24.647  55.980  0.00  0.00     0.265 C 
ATOM      5  N   UNL d   1      44.662  24.150  55.312  0.00  0.00    -0.269 N 
ATOM      6  C   UNL d   1      44.652  23.332  55.409  0.00  0.00     0.102 A 
ATOM      7  C   UNL d   1      44.633  24.473  54.555  0.00  0.00     0.102 A 
ATOM      8  C   UNL d   1      44.614  22.835  54.747  0.00  0.00     0.100 A 
ATOM      9  N   UNL d   1      44.585  23.159  53.990  0.00  0.00    -0.300 N 
ATOM     10  C   UNL d   1      44.594  23.976  53.893  0.00  0.00     0.100 A 
ATOM     11  O   UNL d   1      44.729  24.312  56.736  0.00  0.00    -0.267 OA
BRANCH   9  12
ATOM     12  C   UNL d   1      44.547  22.664  53.331  0.00  0.00     0.080 C 
BRANCH  12  13
ATOM     13  C   UNL d   1      45.227  22.500  52.898  0.00  0.00     0.018 A 
ATOM     14  C   UNL d   1      45.409  22.952  52.234  0.00  0.00     0.002 A 
ATOM     15  C   UNL d   1      46.094  22.790  51.795  0.00  0.00     0.000 A 
ATOM     16  C   UNL d   1      46.593  22.174  52.025  0.00  0.00     0.000 A 
ATOM     17  C   UNL d   1      46.406  21.721  52.694  0.00  0.00     0.000 A 
ATOM     18  C   UNL d   1      45.725  21.884  53.128  0.00  0.00     0.002 A 
ENDBRANCH  12  13
ENDBRANCH   9  12
ENDBRANCH   3   4
ENDBRANCH   2   3
ENDBRANCH   1   2
BRANCH   1  19
ATOM     19  C   UNL d   1      44.856  27.323  56.964  0.00  0.00     0.019 C 
BRANCH  19  20
ATOM     20  C   UNL d   1      45.310  28.010  56.937  0.00  0.00     0.085 C 
BRANCH  20  21
ATOM     21  N   UNL d   1      45.070  28.681  57.358  0.00  0.00    -0.249 N 
ATOM     22  C   UNL d   1      45.204  28.732  58.176  0.00  0.00     0.268 A 
ATOM     23  C   UNL d   1      44.964  29.401  58.592  0.00  0.00     0.076 A 
ATOM     24  O   UNL d   1      45.578  28.111  58.570  0.00  0.00    -0.267 OA
ATOM     25  C   UNL d   1      45.099  29.448  59.404  0.00  0.00     0.033 A 
ATOM     26  C   UNL d   1      44.590  30.022  58.198  0.00  0.00     0.090 A 
ATOM     27  C   UNL d   1      44.859  30.118  59.824  0.00  0.00     0.119 A 
ATOM     28  O   UNL d   1      44.917  30.320  60.621  0.00  0.00    -0.300 OA
ATOM     29  C   UNL d   1      44.485  30.739  59.430  0.00  0.00     0.121 A 
ATOM     30  C   UNL d   1      44.579  31.063  60.715  0.00  0.00     0.304 A 
ATOM     31  O   UNL d   1      44.314  31.321  59.986  0.00  0.00    -0.299 OA
ATOM     32  C   UNL d   1      44.351  30.690  58.616  0.00  0.00     0.046 A 
ATOM     33  N   UNL d   1      44.456  29.974  57.388  0.00  0.00    -0.218 NA
ATOM     34  C   UNL d   1      44.696  29.302  56.964  0.00  0.00     0.208 A 
ATOM     35  S   UNL d   1      44.558  29.258  56.145  0.00  0.00    -0.038 SA
ENDBRANCH  20  21
ENDBRANCH  19  20
ENDBRANCH   1  19
TORSDOF 8
ENDMDL
