MODEL 1
REMARK VINA RESULT:      26.6      0.000      0.000
REMARK  3 active torsions:
REMARK  status: ('A' for Active; 'I' for Inactive)
REMARK    1  A    between atoms: C_6  and  C_1 
REMARK    2  A    between atoms: C_7  and  C_5 
REMARK    3  A    between atoms: O_15  and  C_12 
ROOT
ATOM      1  C   UNL d   1      13.792  12.428  -3.159  0.00  0.00     0.169 A 
ATOM      2  C   UNL d   1      14.055  13.138  -3.257  0.00  0.00     0.048 A 
ATOM      3  N   UNL d   1      14.107  12.486  -1.887  0.00  0.00    -0.148 NA
ATOM      4  N   UNL d   1      13.820  12.109  -2.477  0.00  0.00    -0.142 NA
ATOM      5  C   UNL d   1      14.370  13.196  -1.984  0.00  0.00     0.105 A 
ENDROOT
BRANCH   5   6
ATOM      6  C   UNL d   1      14.710  13.760  -1.496  0.00  0.00     0.020 A 
ATOM      7  C   UNL d   1      14.833  13.594  -0.695  0.00  0.00     0.004 A 
ATOM      8  C   UNL d   1      15.175  14.161  -0.202  0.00  0.00     0.024 A 
ATOM      9  C   UNL d   1      15.395  14.898  -0.509  0.00  0.00     0.094 A 
ATOM     10  C   UNL d   1      15.271  15.064  -1.310  0.00  0.00     0.024 A 
ATOM     11  C   UNL d   1      14.928  14.492  -1.802  0.00  0.00     0.004 A 
BRANCH   9  12
ATOM     12  O   UNL d   1      15.734  15.462  -0.021  0.00  0.00    -0.328 OA
ATOM     13  C   UNL d   1      15.830  16.235  -0.287  0.00  0.00     0.181 C 
ENDBRANCH   9  12
ENDBRANCH   5   6
BRANCH   1  14
ATOM     14  C   UNL d   1      13.504  12.050  -3.750  0.00  0.00     0.231 C 
ATOM     15  O   UNL d   1      13.962  11.835  -4.319  0.00  0.00    -0.643 OA
ATOM     16  O   UNL d   1      12.768  11.886  -3.778  0.00  0.00    -0.643 OA
ENDBRANCH   1  14
TORSDOF 3
ENDMDL
MODEL 2
REMARK VINA RESULT:      26.6      1.943      2.506
REMARK  3 active torsions:
REMARK  status: ('A' for Active; 'I' for Inactive)
REMARK    1  A    between atoms: C_6  and  C_1 
REMARK    2  A    between atoms: C_7  and  C_5 
REMARK    3  A    between atoms: O_15  and  C_12 
ROOT
ATOM      1  C   UNL d   1      14.881  12.894  -0.826  0.00  0.00     0.169 A 
ATOM      2  C   UNL d   1      14.884  13.373  -1.420  0.00  0.00     0.048 A 
ATOM      3  N   UNL d   1      15.112  13.898  -0.015  0.00  0.00    -0.148 NA
ATOM      4  N   UNL d   1      14.994  13.159  -0.130  0.00  0.00    -0.142 NA
ATOM      5  C   UNL d   1      15.116  14.377  -0.608  0.00  0.00     0.105 A 
ENDROOT
BRANCH   5   6
ATOM      6  C   UNL d   1      15.221  15.185  -0.700  0.00  0.00     0.020 A 
ATOM      7  C   UNL d   1      14.844  15.584  -1.320  0.00  0.00     0.004 A 
ATOM      8  C   UNL d   1      14.949  16.397  -1.413  0.00  0.00     0.024 A 
ATOM      9  C   UNL d   1      15.431  16.816  -0.887  0.00  0.00     0.094 A 
ATOM     10  C   UNL d   1      15.808  16.417  -0.267  0.00  0.00     0.024 A 
ATOM     11  C   UNL d   1      15.701  15.600  -0.176  0.00  0.00     0.004 A 
BRANCH   9  12
ATOM     12  O   UNL d   1      15.536  17.624  -0.979  0.00  0.00    -0.328 OA
ATOM     13  C   UNL d   1      14.963  18.073  -1.362  0.00  0.00     0.181 C 
ENDBRANCH   9  12
ENDBRANCH   5   6
BRANCH   1  14
ATOM     14  C   UNL d   1      14.763  12.154  -0.942  0.00  0.00     0.231 C 
ATOM     15  O   UNL d   1      14.242  11.785  -0.525  0.00  0.00    -0.643 OA
ATOM     16  O   UNL d   1      15.157  11.781  -1.466  0.00  0.00    -0.643 OA
ENDBRANCH   1  14
TORSDOF 3
ENDMDL
MODEL 3
REMARK VINA RESULT:      28.2      2.271      2.985
REMARK  3 active torsions:
REMARK  status: ('A' for Active; 'I' for Inactive)
REMARK    1  A    between atoms: C_6  and  C_1 
REMARK    2  A    between atoms: C_7  and  C_5 
REMARK    3  A    between atoms: O_15  and  C_12 
ROOT
ATOM      1  C   UNL d   1      13.336  14.612  -4.484  0.00  0.00     0.169 A 
ATOM      2  C   UNL d   1      13.825  14.738  -3.912  0.00  0.00     0.048 A 
ATOM      3  N   UNL d   1      13.102  13.408  -4.018  0.00  0.00    -0.148 NA
ATOM      4  N   UNL d   1      12.979  13.950  -4.532  0.00  0.00    -0.142 NA
ATOM      5  C   UNL d   1      13.592  13.534  -3.446  0.00  0.00     0.105 A 
ENDROOT
BRANCH   5   6
ATOM      6  C   UNL d   1      13.860  13.098  -2.807  0.00  0.00     0.020 A 
ATOM      7  C   UNL d   1      14.324  13.459  -2.224  0.00  0.00     0.004 A 
ATOM      8  C   UNL d   1      14.595  13.020  -1.580  0.00  0.00     0.024 A 
ATOM      9  C   UNL d   1      14.403  12.218  -1.514  0.00  0.00     0.094 A 
ATOM     10  C   UNL d   1      13.939  11.857  -2.097  0.00  0.00     0.024 A 
ATOM     11  C   UNL d   1      13.669  12.300  -2.743  0.00  0.00     0.004 A 
BRANCH   9  12
ATOM     12  O   UNL d   1      14.671  11.781  -0.875  0.00  0.00    -0.328 OA
ATOM     13  C   UNL d   1      14.602  12.081  -0.112  0.00  0.00     0.181 C 
ENDBRANCH   9  12
ENDBRANCH   5   6
BRANCH   1  14
ATOM     14  C   UNL d   1      13.212  15.155  -4.999  0.00  0.00     0.231 C 
ATOM     15  O   UNL d   1      12.785  15.758  -4.815  0.00  0.00    -0.643 OA
ATOM     16  O   UNL d   1      13.509  15.102  -5.690  0.00  0.00    -0.643 OA
ENDBRANCH   1  14
TORSDOF 3
ENDMDL
