MODEL 1
REMARK VINA RESULT:      31.7      0.000      0.000
REMARK  4 active torsions:
REMARK  status: ('A' for Active; 'I' for Inactive)
REMARK    1  A    between atoms: N_2  and  S_1 
REMARK    2  A    between atoms: C_3  and  S_1 
REMARK    3  A    between atoms: O_15  and  C_11 
REMARK    4  A    between atoms: O_17  and  C_13 
ROOT
ATOM      1  C   UNL d   1      59.563  49.573  50.799  0.00  0.00     0.128 A 
ATOM      2  C   UNL d   1      59.789  49.540  51.595  0.00  0.00     0.039 A 
ATOM      3  C   UNL d   1      60.130  49.656  50.214  0.00  0.00     0.106 A 
ATOM      4  C   UNL d   1      60.930  49.706  50.424  0.00  0.00     0.027 A 
ATOM      5  C   UNL d   1      60.581  49.590  51.800  0.00  0.00     0.095 A 
ATOM      6  C   UNL d   1      61.154  49.674  51.213  0.00  0.00     0.026 A 
ENDROOT
BRANCH   1   7
ATOM      7  S   UNL d   1      58.764  49.522  50.587  0.00  0.00     0.274 S 
ATOM      8  O   UNL d   1      58.560  49.355  51.366  0.00  0.00    -0.199 OA
ATOM      9  O   UNL d   1      58.969  49.689  49.804  0.00  0.00    -0.199 OA
BRANCH   7  10
ATOM     10  N   UNL d   1      57.979  49.474  50.368  0.00  0.00    -0.213 N 
ATOM     11  C   UNL d   1      57.363  49.544  50.870  0.00  0.00     0.157 A 
ATOM     12  N   UNL d   1      56.652  49.462  50.431  0.00  0.00    -0.224 NA
ATOM     13  C   UNL d   1      57.331  49.674  51.686  0.00  0.00     0.041 C 
ATOM     14  C   UNL d   1      56.879  49.342  49.651  0.00  0.00     0.120 A 
ATOM     15  C   UNL d   1      57.722  49.350  49.617  0.00  0.00     0.114 A 
ENDBRANCH   7  10
ENDBRANCH   1   7
BRANCH   3  16
ATOM     16  O   UNL d   1      59.904  49.688  49.417  0.00  0.00    -0.327 OA
ATOM     17  C   UNL d   1      60.335  49.271  48.855  0.00  0.00     0.181 C 
ENDBRANCH   3  16
BRANCH   5  18
ATOM     18  O   UNL d   1      60.807  49.557  52.594  0.00  0.00    -0.328 OA
ATOM     19  C   UNL d   1      61.580  49.355  52.790  0.00  0.00     0.181 C 
ENDBRANCH   5  18
TORSDOF 4
ENDMDL
MODEL 2
REMARK VINA RESULT:      31.7      1.461      3.341
REMARK  4 active torsions:
REMARK  status: ('A' for Active; 'I' for Inactive)
REMARK    1  A    between atoms: N_2  and  S_1 
REMARK    2  A    between atoms: C_3  and  S_1 
REMARK    3  A    between atoms: O_15  and  C_11 
REMARK    4  A    between atoms: O_17  and  C_13 
ROOT
ATOM      1  C   UNL d   1      58.853  49.665  51.139  0.00  0.00     0.128 A 
ATOM      2  C   UNL d   1      58.117  49.647  51.519  0.00  0.00     0.039 A 
ATOM      3  C   UNL d   1      58.892  49.685  50.321  0.00  0.00     0.106 A 
ATOM      4  C   UNL d   1      58.192  49.686  49.878  0.00  0.00     0.027 A 
ATOM      5  C   UNL d   1      57.426  49.648  51.078  0.00  0.00     0.095 A 
ATOM      6  C   UNL d   1      57.463  49.668  50.254  0.00  0.00     0.026 A 
ENDROOT
BRANCH   1   7
ATOM      7  S   UNL d   1      59.554  49.664  51.579  0.00  0.00     0.274 S 
ATOM      8  O   UNL d   1      59.998  49.693  50.887  0.00  0.00    -0.199 OA
ATOM      9  O   UNL d   1      59.108  49.635  52.274  0.00  0.00    -0.199 OA
BRANCH   7  10
ATOM     10  N   UNL d   1      60.239  49.663  52.022  0.00  0.00    -0.213 N 
ATOM     11  C   UNL d   1      60.976  49.637  51.719  0.00  0.00     0.157 A 
ATOM     12  N   UNL d   1      61.527  49.645  52.353  0.00  0.00    -0.224 NA
ATOM     13  C   UNL d   1      61.248  49.607  50.938  0.00  0.00     0.041 C 
ATOM     14  C   UNL d   1      61.079  49.676  53.041  0.00  0.00     0.120 A 
ATOM     15  C   UNL d   1      60.264  49.687  52.825  0.00  0.00     0.114 A 
ENDBRANCH   7  10
ENDBRANCH   1   7
BRANCH   3  16
ATOM     16  O   UNL d   1      59.628  49.704  49.941  0.00  0.00    -0.327 OA
ATOM     17  C   UNL d   1      59.662  49.666  49.120  0.00  0.00     0.181 C 
ENDBRANCH   3  16
BRANCH   5  18
ATOM     18  O   UNL d   1      56.693  49.630  51.457  0.00  0.00    -0.328 OA
ATOM     19  C   UNL d   1      56.037  49.326  51.062  0.00  0.00     0.181 C 
ENDBRANCH   5  18
TORSDOF 4
ENDMDL
