MODEL 1
REMARK VINA RESULT:      -2.3      0.000      0.000
REMARK  8 active torsions:
REMARK  status: ('A' for Active; 'I' for Inactive)
REMARK    1  A    between atoms: C_2  and  P_1 
REMARK    2  A    between atoms: O_5  and  P_1 
REMARK    3  A    between atoms: O_6  and  P_1 
REMARK    4  A    between atoms: N_3  and  C_2 
REMARK       I    between atoms: C_4  and  N_3 
REMARK    5  A    between atoms: C_9  and  C_4 
REMARK    6  A    between atoms: C_12  and  O_5 
REMARK    7  A    between atoms: C_11  and  O_6 
REMARK    8  A    between atoms: C_10  and  C_9 
ROOT
ATOM      1  C   UNL d   1     -41.425-122.985 -52.878  0.00  0.00     0.165 C 
ATOM      2  C   UNL d   1     -41.127-123.754 -52.859  0.00  0.00     0.029 C 
ENDROOT
BRANCH   1   3
ATOM      3  P   UNL d   1     -41.654-122.640 -53.593  0.00  0.00     0.392 P 
ATOM      4  O   UNL d   1     -41.303-121.907 -53.342  0.00  0.00    -0.251 OA
BRANCH   3   5
ATOM      5  O   UNL d   1     -41.884-122.275 -54.325  0.00  0.00    -0.265 OA
BRANCH   5   6
ATOM      6  C   UNL d   1     -42.132-121.488 -54.335  0.00  0.00     0.103 C 
ATOM      7  C   UNL d   1     -42.776-121.255 -53.886  0.00  0.00     0.027 C 
ATOM      8  C   UNL d   1     -41.744-120.923 -54.790  0.00  0.00     0.027 C 
ENDBRANCH   5   6
ENDBRANCH   3   5
BRANCH   3   9
ATOM      9  O   UNL d   1     -41.992-123.356 -53.830  0.00  0.00    -0.265 OA
BRANCH   9  10
ATOM     10  C   UNL d   1     -41.872-123.635 -54.595  0.00  0.00     0.103 C 
ATOM     11  C   UNL d   1     -42.508-123.812 -55.068  0.00  0.00     0.027 C 
ATOM     12  C   UNL d   1     -41.125-123.732 -54.874  0.00  0.00     0.027 C 
ENDBRANCH   9  10
ENDBRANCH   3   9
ENDBRANCH   1   3
BRANCH   1  13
ATOM     13  N   UNL d   1     -41.493-122.559 -52.176  0.00  0.00    -0.200 NA
ATOM     14  C   UNL d   1     -41.380-122.947 -51.446  0.00  0.00     0.280 C 
ATOM     15  O   UNL d   1     -41.200-123.753 -51.425  0.00  0.00    -0.265 OA
BRANCH  14  16
ATOM     16  C   UNL d   1     -41.453-122.499 -50.733  0.00  0.00     0.062 C 
BRANCH  16  17
ATOM     17  C   UNL d   1     -41.713-122.909 -50.031  0.00  0.00     0.005 A 
ATOM     18  C   UNL d   1     -42.523-122.884 -49.833  0.00  0.00     0.000 A 
ATOM     19  C   UNL d   1     -42.804-123.275 -49.153  0.00  0.00     0.000 A 
ATOM     20  C   UNL d   1     -42.269-123.688 -48.681  0.00  0.00     0.000 A 
ATOM     21  C   UNL d   1     -41.453-123.707 -48.890  0.00  0.00     0.000 A 
ATOM     22  C   UNL d   1     -41.178-123.321 -49.560  0.00  0.00     0.000 A 
ENDBRANCH  16  17
ENDBRANCH  14  16
ENDBRANCH   1  13
TORSDOF 8
ENDMDL
MODEL 2
REMARK VINA RESULT:      -1.4      1.392      2.539
REMARK  8 active torsions:
REMARK  status: ('A' for Active; 'I' for Inactive)
REMARK    1  A    between atoms: C_2  and  P_1 
REMARK    2  A    between atoms: O_5  and  P_1 
REMARK    3  A    between atoms: O_6  and  P_1 
REMARK    4  A    between atoms: N_3  and  C_2 
REMARK       I    between atoms: C_4  and  N_3 
REMARK    5  A    between atoms: C_9  and  C_4 
REMARK    6  A    between atoms: C_12  and  O_5 
REMARK    7  A    between atoms: C_11  and  O_6 
REMARK    8  A    between atoms: C_10  and  C_9 
ROOT
ATOM      1  C   UNL d   1     -41.972-122.425 -51.123  0.00  0.00     0.165 C 
ATOM      2  C   UNL d   1     -42.644-121.990 -50.923  0.00  0.00     0.029 C 
ENDROOT
BRANCH   1   3
ATOM      3  P   UNL d   1     -41.676-122.410 -51.895  0.00  0.00     0.392 P 
ATOM      4  O   UNL d   1     -42.248-122.998 -52.116  0.00  0.00    -0.251 OA
BRANCH   3   5
ATOM      5  O   UNL d   1     -41.380-122.403 -52.690  0.00  0.00    -0.265 OA
BRANCH   5   6
ATOM      6  C   UNL d   1     -41.468-123.068 -53.171  0.00  0.00     0.103 C 
ATOM      7  C   UNL d   1     -41.146-123.785 -52.942  0.00  0.00     0.027 C 
ATOM      8  C   UNL d   1     -41.878-123.030 -53.884  0.00  0.00     0.027 C 
ENDBRANCH   5   6
ENDBRANCH   3   5
BRANCH   3   9
ATOM      9  O   UNL d   1     -41.123-121.838 -51.671  0.00  0.00    -0.265 OA
BRANCH   9  10
ATOM     10  C   UNL d   1     -41.192-121.067 -51.951  0.00  0.00     0.103 C 
ATOM     11  C   UNL d   1     -41.331-120.457 -51.432  0.00  0.00     0.027 C 
ATOM     12  C   UNL d   1     -41.123-120.917 -52.737  0.00  0.00     0.027 C 
ENDBRANCH   9  10
ENDBRANCH   3   9
ENDBRANCH   1   3
BRANCH   1  13
ATOM     13  N   UNL d   1     -41.596-122.877 -50.547  0.00  0.00    -0.200 NA
ATOM     14  C   UNL d   1     -42.019-123.116 -49.869  0.00  0.00     0.280 C 
ATOM     15  O   UNL d   1     -42.812-122.903 -49.774  0.00  0.00    -0.265 OA
BRANCH  14  16
ATOM     16  C   UNL d   1     -41.621-123.580 -49.285  0.00  0.00     0.062 C 
BRANCH  16  17
ATOM     17  C   UNL d   1     -41.935-123.573 -48.491  0.00  0.00     0.005 A 
ATOM     18  C   UNL d   1     -41.441-123.314 -47.871  0.00  0.00     0.000 A 
ATOM     19  C   UNL d   1     -41.721-123.297 -47.086  0.00  0.00     0.000 A 
ATOM     20  C   UNL d   1     -42.493-123.541 -46.934  0.00  0.00     0.000 A 
ATOM     21  C   UNL d   1     -42.984-123.801 -47.567  0.00  0.00     0.000 A 
ATOM     22  C   UNL d   1     -42.707-123.817 -48.340  0.00  0.00     0.000 A 
ENDBRANCH  16  17
ENDBRANCH  14  16
ENDBRANCH   1  13
TORSDOF 8
ENDMDL
