MODEL 1
REMARK VINA RESULT:      34.8      0.000      0.000
REMARK  3 active torsions:
REMARK  status: ('A' for Active; 'I' for Inactive)
REMARK    1  A    between atoms: C_8  and  C_1 
REMARK    2  A    between atoms: C_9  and  C_4 
REMARK    3  A    between atoms: O_20  and  C_8 
ROOT
ATOM      1  C   UNL d   1      14.640  14.116  -1.450  0.00  0.00     0.107 A 
ATOM      2  C   UNL d   1      14.554  14.691  -2.049  0.00  0.00     0.208 A 
ATOM      3  C   UNL d   1      14.052  13.125  -2.317  0.00  0.00     0.062 A 
ATOM      4  C   UNL d   1      14.381  13.327  -1.600  0.00  0.00     0.020 A 
ATOM      5  C   UNL d   1      13.967  13.699  -2.916  0.00  0.00     0.101 A 
ATOM      6  O   UNL d   1      14.210  14.475  -2.796  0.00  0.00    -0.288 OA
ATOM      7  C   UNL d   1      13.806  12.357  -2.449  0.00  0.00     0.194 A 
ATOM      8  C   UNL d   1      13.635  13.504  -3.645  0.00  0.00     0.002 A 
ATOM      9  C   UNL d   1      13.389  12.724  -3.769  0.00  0.00     0.042 A 
ATOM     10  C   UNL d   1      13.474  12.149  -3.170  0.00  0.00     0.019 A 
ATOM     11  O   UNL d   1      13.892  11.779  -1.848  0.00  0.00    -0.287 OA
ATOM     12  N   UNL d   1      14.809  15.486  -1.912  0.00  0.00    -0.121 N 
ATOM     13  C   UNL d   1      13.051  12.223  -4.312  0.00  0.00     0.009 C 
ATOM     14  C   UNL d   1      13.234  13.159  -4.455  0.00  0.00     0.009 C 
ENDROOT
BRANCH   4  15
ATOM     15  C   UNL d   1      14.461  12.760  -1.023  0.00  0.00     0.030 A 
ATOM     16  S   UNL d   1      13.977  12.542  -0.236  0.00  0.00    -0.086 SA
ATOM     17  C   UNL d   1      14.591  11.779  -0.014  0.00  0.00     0.035 A 
ATOM     18  C   UNL d   1      15.058  11.800  -0.551  0.00  0.00     0.007 A 
ATOM     19  C   UNL d   1      14.990  12.296  -1.058  0.00  0.00     0.007 A 
ENDBRANCH   4  15
BRANCH   1  20
ATOM     20  C   UNL d   1      14.980  14.338  -0.716  0.00  0.00     0.299 C 
ATOM     21  O   UNL d   1      14.505  14.632  -0.091  0.00  0.00    -0.259 OA
BRANCH  20  22
ATOM     22  O   UNL d   1      15.791  14.275  -0.588  0.00  0.00    -0.296 OA
ATOM     23  C   UNL d   1      16.193  14.793  -0.055  0.00  0.00     0.185 C 
ENDBRANCH  20  22
ENDBRANCH   1  20
TORSDOF 3
ENDMDL
