MODEL 1
REMARK VINA RESULT:      -7.3      0.000      0.000
REMARK  2 active torsions:
REMARK  status: ('A' for Active; 'I' for Inactive)
REMARK    1  A    between atoms: C_9  and  N_1 
REMARK    2  A    between atoms: C_11  and  C_9 
ROOT
ATOM      1  N   UNL d   1     -47.547  12.663  22.718  0.00  0.00    -0.287 N 
ATOM      2  N   UNL d   1     -47.613  11.723  23.690  0.00  0.00    -0.224 NA
ATOM      3  C   UNL d   1     -48.358  12.481  22.851  0.00  0.00     0.083 A 
ATOM      4  C   UNL d   1     -47.090  12.194  23.237  0.00  0.00     0.183 A 
ATOM      5  C   UNL d   1     -48.396  11.904  23.449  0.00  0.00     0.099 A 
ATOM      6  C   UNL d   1     -49.053  12.766  22.507  0.00  0.00     0.019 A 
ATOM      7  C   UNL d   1     -49.129  11.617  23.697  0.00  0.00     0.021 A 
ATOM      8  C   UNL d   1     -49.783  12.478  22.757  0.00  0.00     0.002 A 
ATOM      9  C   UNL d   1     -49.821  11.900  23.355  0.00  0.00     0.002 A 
ATOM     10  C   UNL d   1     -50.481  12.762  22.413  0.00  0.00     0.000 C 
ATOM     11  C   UNL d   1     -50.553  11.615  23.601  0.00  0.00     0.000 C 
ENDROOT
BRANCH   1  12
ATOM     12  C   UNL d   1     -47.104  13.159  22.233  0.00  0.00     0.082 C 
BRANCH  12  13
ATOM     13  C   UNL d   1     -46.425  13.522  22.528  0.00  0.00     0.018 C 
ATOM     14  C   UNL d   1     -46.488  14.209  22.982  0.00  0.00     0.002 C 
ATOM     15  C   UNL d   1     -45.682  13.199  22.369  0.00  0.00     0.002 C 
ENDBRANCH  12  13
ENDBRANCH   1  12
TORSDOF 2
ENDMDL
MODEL 2
REMARK VINA RESULT:      -7.2      0.906      3.059
REMARK  2 active torsions:
REMARK  status: ('A' for Active; 'I' for Inactive)
REMARK    1  A    between atoms: C_9  and  N_1 
REMARK    2  A    between atoms: C_11  and  C_9 
ROOT
ATOM      1  N   UNL d   1     -49.195  12.651  23.080  0.00  0.00    -0.287 N 
ATOM      2  N   UNL d   1     -49.096  11.422  23.639  0.00  0.00    -0.224 NA
ATOM      3  C   UNL d   1     -48.378  12.476  23.186  0.00  0.00     0.083 A 
ATOM      4  C   UNL d   1     -49.635  11.998  23.361  0.00  0.00     0.183 A 
ATOM      5  C   UNL d   1     -48.320  11.721  23.529  0.00  0.00     0.099 A 
ATOM      6  C   UNL d   1     -47.694  12.906  23.014  0.00  0.00     0.019 A 
ATOM      7  C   UNL d   1     -47.578  11.402  23.698  0.00  0.00     0.021 A 
ATOM      8  C   UNL d   1     -46.954  12.585  23.184  0.00  0.00     0.002 A 
ATOM      9  C   UNL d   1     -46.896  11.829  23.527  0.00  0.00     0.002 A 
ATOM     10  C   UNL d   1     -46.267  13.015  23.012  0.00  0.00     0.000 C 
ATOM     11  C   UNL d   1     -46.155  11.513  23.694  0.00  0.00     0.000 C 
ENDROOT
BRANCH   1  12
ATOM     12  C   UNL d   1     -49.655  13.266  22.787  0.00  0.00     0.082 C 
BRANCH  12  13
ATOM     13  C   UNL d   1     -50.340  13.100  22.358  0.00  0.00     0.018 C 
ATOM     14  C   UNL d   1     -50.301  13.002  21.539  0.00  0.00     0.002 C 
ATOM     15  C   UNL d   1     -51.064  13.032  22.747  0.00  0.00     0.002 C 
ENDBRANCH  12  13
ENDBRANCH   1  12
TORSDOF 2
ENDMDL
MODEL 3
REMARK VINA RESULT:      -7.1      1.708      3.226
REMARK  2 active torsions:
REMARK  status: ('A' for Active; 'I' for Inactive)
REMARK    1  A    between atoms: C_9  and  N_1 
REMARK    2  A    between atoms: C_11  and  C_9 
ROOT
ATOM      1  N   UNL d   1     -48.975  14.276  22.842  0.00  0.00    -0.287 N 
ATOM      2  N   UNL d   1     -49.199  13.009  23.265  0.00  0.00    -0.224 NA
ATOM      3  C   UNL d   1     -48.231  13.888  22.914  0.00  0.00     0.083 A 
ATOM      4  C   UNL d   1     -49.570  13.730  23.059  0.00  0.00     0.183 A 
ATOM      5  C   UNL d   1     -48.371  13.110  23.174  0.00  0.00     0.099 A 
ATOM      6  C   UNL d   1     -47.458  14.145  22.778  0.00  0.00     0.019 A 
ATOM      7  C   UNL d   1     -47.738  12.596  23.295  0.00  0.00     0.021 A 
ATOM      8  C   UNL d   1     -46.826  13.629  22.899  0.00  0.00     0.002 A 
ATOM      9  C   UNL d   1     -46.967  12.851  23.159  0.00  0.00     0.002 A 
ATOM     10  C   UNL d   1     -46.051  13.885  22.762  0.00  0.00     0.000 C 
ATOM     11  C   UNL d   1     -46.333  12.340  23.278  0.00  0.00     0.000 C 
ENDROOT
BRANCH   1  12
ATOM     12  C   UNL d   1     -49.259  15.016  22.624  0.00  0.00     0.082 C 
BRANCH  12  13
ATOM     13  C   UNL d   1     -49.954  15.305  22.960  0.00  0.00     0.018 C 
ATOM     14  C   UNL d   1     -50.681  15.156  22.597  0.00  0.00     0.002 C 
ATOM     15  C   UNL d   1     -49.925  15.742  23.659  0.00  0.00     0.002 C 
ENDBRANCH  12  13
ENDBRANCH   1  12
TORSDOF 2
ENDMDL
MODEL 4
REMARK VINA RESULT:      -7.1      1.727      2.263
REMARK  2 active torsions:
REMARK  status: ('A' for Active; 'I' for Inactive)
REMARK    1  A    between atoms: C_9  and  N_1 
REMARK    2  A    between atoms: C_11  and  C_9 
ROOT
ATOM      1  N   UNL d   1     -47.754  13.898  22.518  0.00  0.00    -0.287 N 
ATOM      2  N   UNL d   1     -48.544  13.219  21.654  0.00  0.00    -0.224 NA
ATOM      3  C   UNL d   1     -48.528  14.227  22.559  0.00  0.00     0.083 A 
ATOM      4  C   UNL d   1     -47.767  13.277  21.960  0.00  0.00     0.183 A 
ATOM      5  C   UNL d   1     -49.012  13.807  22.027  0.00  0.00     0.099 A 
ATOM      6  C   UNL d   1     -48.844  14.844  23.006  0.00  0.00     0.019 A 
ATOM      7  C   UNL d   1     -49.807  14.010  21.948  0.00  0.00     0.021 A 
ATOM      8  C   UNL d   1     -49.639  15.044  22.926  0.00  0.00     0.002 A 
ATOM      9  C   UNL d   1     -50.123  14.625  22.394  0.00  0.00     0.002 A 
ATOM     10  C   UNL d   1     -49.958  15.664  23.374  0.00  0.00     0.000 C 
ATOM     11  C   UNL d   1     -50.917  14.829  22.317  0.00  0.00     0.000 C 
ENDROOT
BRANCH   1  12
ATOM     12  C   UNL d   1     -47.019  14.021  22.867  0.00  0.00     0.082 C 
BRANCH  12  13
ATOM     13  C   UNL d   1     -46.468  13.408  22.894  0.00  0.00     0.018 C 
ATOM     14  C   UNL d   1     -45.850  13.384  22.348  0.00  0.00     0.002 C 
ATOM     15  C   UNL d   1     -46.535  12.817  23.467  0.00  0.00     0.002 C 
ENDBRANCH  12  13
ENDBRANCH   1  12
TORSDOF 2
ENDMDL
