MODEL 1
REMARK VINA RESULT:      -3.9      0.000      0.000
REMARK  5 active torsions:
REMARK  status: ('A' for Active; 'I' for Inactive)
REMARK    1  A    between atoms: C_5  and  C_1 
REMARK    2  A    between atoms: C_12  and  C_5 
REMARK    3  A    between atoms: C_7  and  C_22 
REMARK       I    between atoms: N_21  and  C_12 
REMARK    4  A    between atoms: C_23  and  N_21 
REMARK    5  A    between atoms: C_22  and  C_23 
ROOT
ATOM      1  C   UNL d   1      32.645  17.612 -24.034  0.00  0.00     0.102 C 
ENDROOT
BRANCH   1   2
ATOM      2  C   UNL d   1      33.233  18.168 -24.199  0.00  0.00     0.026 C 
BRANCH   2   3
ATOM      3  C   UNL d   1      33.227  18.908 -23.810  0.00  0.00     0.059 A 
ATOM      4  C   UNL d   1      33.224  19.604 -24.251  0.00  0.00     0.279 A 
ATOM      5  N   UNL d   1      33.218  20.334 -23.871  0.00  0.00    -0.208 NA
ATOM      6  O   UNL d   1      33.229  19.566 -25.085  0.00  0.00    -0.265 OA
ATOM      7  C   UNL d   1      33.214  20.375 -23.053  0.00  0.00     0.085 A 
ATOM      8  C   UNL d   1      33.216  19.672 -22.608  0.00  0.00     0.018 A 
ATOM      9  C   UNL d   1      33.207  21.101 -22.670  0.00  0.00     0.019 A 
ATOM     10  C   UNL d   1      33.223  18.938 -22.986  0.00  0.00     0.006 A 
ATOM     11  C   UNL d   1      33.212  19.706 -21.786  0.00  0.00     0.002 A 
ATOM     12  C   UNL d   1      33.206  20.439 -21.407  0.00  0.00     0.000 A 
ATOM     13  C   UNL d   1      33.203  21.138 -21.851  0.00  0.00     0.002 A 
ATOM     14  C   UNL d   1      33.201  20.477 -20.573  0.00  0.00     0.000 C 
ATOM     15  C   UNL d   1      33.197  21.871 -21.472  0.00  0.00     0.000 C 
ENDBRANCH   2   3
ENDBRANCH   1   2
BRANCH   1  16
ATOM     16  N   UNL d   1      32.808  16.814 -24.122  0.00  0.00    -0.204 NA
ATOM     17  C   UNL d   1      32.204  16.295 -24.328  0.00  0.00     0.318 C 
ATOM     18  O   UNL d   1      32.364  15.492 -24.417  0.00  0.00    -0.262 OA
BRANCH  17  19
ATOM     19  C   UNL d   1      31.431  16.580 -24.447  0.00  0.00     0.254 C 
ATOM     20  O   UNL d   1      31.299  17.186 -24.992  0.00  0.00    -0.281 OA
BRANCH  19  21
ATOM     21  C   UNL d   1      30.807  16.257 -24.024  0.00  0.00     0.064 A 
ATOM     22  C   UNL d   1      30.845  15.648 -23.468  0.00  0.00     0.102 A 
ATOM     23  N   UNL d   1      30.090  15.499 -23.179  0.00  0.00    -0.244 NA
ATOM     24  C   UNL d   1      29.572  16.020 -23.558  0.00  0.00     0.082 A 
ATOM     25  C   UNL d   1      30.014  16.487 -24.079  0.00  0.00     0.022 A 
ATOM     26  C   UNL d   1      28.758  16.129 -23.497  0.00  0.00     0.019 A 
ATOM     27  C   UNL d   1      29.640  17.060 -24.535  0.00  0.00     0.002 A 
ATOM     28  C   UNL d   1      28.817  17.169 -24.472  0.00  0.00     0.000 A 
ATOM     29  C   UNL d   1      28.385  16.702 -23.953  0.00  0.00     0.002 A 
ENDBRANCH  19  21
ENDBRANCH  17  19
ENDBRANCH   1  16
TORSDOF 5
ENDMDL
MODEL 2
REMARK VINA RESULT:      -2.6      0.783      5.203
REMARK  5 active torsions:
REMARK  status: ('A' for Active; 'I' for Inactive)
REMARK    1  A    between atoms: C_5  and  C_1 
REMARK    2  A    between atoms: C_12  and  C_5 
REMARK    3  A    between atoms: C_7  and  C_22 
REMARK       I    between atoms: N_21  and  C_12 
REMARK    4  A    between atoms: C_23  and  N_21 
REMARK    5  A    between atoms: C_22  and  C_23 
ROOT
ATOM      1  C   UNL d   1      32.272  17.857 -24.177  0.00  0.00     0.102 C 
ENDROOT
BRANCH   1   2
ATOM      2  C   UNL d   1      32.157  17.074 -24.412  0.00  0.00     0.026 C 
BRANCH   2   3
ATOM      3  C   UNL d   1      31.460  16.671 -24.186  0.00  0.00     0.059 A 
ATOM      4  C   UNL d   1      31.489  15.868 -24.007  0.00  0.00     0.279 A 
ATOM      5  N   UNL d   1      30.804  15.468 -23.785  0.00  0.00    -0.208 NA
ATOM      6  O   UNL d   1      32.216  15.460 -24.052  0.00  0.00    -0.265 OA
ATOM      7  C   UNL d   1      30.090  15.866 -23.740  0.00  0.00     0.085 A 
ATOM      8  C   UNL d   1      30.060  16.677 -23.921  0.00  0.00     0.018 A 
ATOM      9  C   UNL d   1      29.404  15.472 -23.519  0.00  0.00     0.019 A 
ATOM     10  C   UNL d   1      30.745  17.080 -24.144  0.00  0.00     0.006 A 
ATOM     11  C   UNL d   1      29.346  17.083 -23.878  0.00  0.00     0.002 A 
ATOM     12  C   UNL d   1      28.660  16.680 -23.655  0.00  0.00     0.000 A 
ATOM     13  C   UNL d   1      28.691  15.872 -23.475  0.00  0.00     0.002 A 
ATOM     14  C   UNL d   1      27.933  17.088 -23.610  0.00  0.00     0.000 C 
ATOM     15  C   UNL d   1      28.005  15.470 -23.252  0.00  0.00     0.000 C 
ENDBRANCH   2   3
ENDBRANCH   1   2
BRANCH   1  16
ATOM     16  N   UNL d   1      32.531  18.409 -24.725  0.00  0.00    -0.204 NA
ATOM     17  C   UNL d   1      32.952  19.069 -24.471  0.00  0.00     0.318 C 
ATOM     18  O   UNL d   1      33.214  19.625 -25.020  0.00  0.00    -0.262 OA
BRANCH  17  19
ATOM     19  C   UNL d   1      33.115  19.175 -23.662  0.00  0.00     0.254 C 
ATOM     20  O   UNL d   1      33.241  18.516 -23.181  0.00  0.00    -0.281 OA
BRANCH  19  21
ATOM     21  C   UNL d   1      33.148  19.932 -23.349  0.00  0.00     0.064 A 
ATOM     22  C   UNL d   1      33.233  20.640 -23.765  0.00  0.00     0.102 A 
ATOM     23  N   UNL d   1      33.240  21.267 -23.232  0.00  0.00    -0.244 NA
ATOM     24  C   UNL d   1      33.159  20.949 -22.475  0.00  0.00     0.082 A 
ATOM     25  C   UNL d   1      33.102  20.127 -22.545  0.00  0.00     0.022 A 
ATOM     26  C   UNL d   1      33.129  21.301 -21.730  0.00  0.00     0.019 A 
ATOM     27  C   UNL d   1      33.016  19.660 -21.873  0.00  0.00     0.002 A 
ATOM     28  C   UNL d   1      32.987  20.018 -21.122  0.00  0.00     0.000 A 
ATOM     29  C   UNL d   1      33.044  20.835 -21.058  0.00  0.00     0.002 A 
ENDBRANCH  19  21
ENDBRANCH  17  19
ENDBRANCH   1  16
TORSDOF 5
ENDMDL
