MODEL 1
REMARK VINA RESULT:      -8.9      0.000      0.000
REMARK  3 active torsions:
REMARK  status: ('A' for Active; 'I' for Inactive)
REMARK    1  A    between atoms: C_2  and  C_1 
REMARK       I    between atoms: N_5  and  C_2 
REMARK    2  A    between atoms: C_10  and  N_5 
REMARK    3  A    between atoms: O_16  and  C_11 
ROOT
ATOM      1  C   UNL d   1      51.334  33.558  53.121  0.00  0.00     0.281 C 
ATOM      2  N   UNL d   1      51.204  34.228  52.662  0.00  0.00    -0.208 NA
ATOM      3  O   UNL d   1      50.698  33.085  53.350  0.00  0.00    -0.265 OA
ENDROOT
BRANCH   1   4
ATOM      4  C   UNL d   1      52.097  33.351  53.357  0.00  0.00     0.083 A 
ATOM      5  C   UNL d   1      52.473  33.762  53.970  0.00  0.00     0.009 A 
ATOM      6  C   UNL d   1      53.244  33.546  54.201  0.00  0.00     0.023 A 
ATOM      7  C   UNL d   1      53.618  33.953  54.811  0.00  0.00     0.002 A 
ATOM      8  C   UNL d   1      53.635  32.915  53.815  0.00  0.00     0.100 A 
ATOM      9  C   UNL d   1      54.383  33.732  55.034  0.00  0.00     0.000 A 
ATOM     10  C   UNL d   1      54.769  33.111  54.653  0.00  0.00     0.002 A 
ATOM     11  C   UNL d   1      54.394  32.704  54.045  0.00  0.00     0.025 A 
ATOM     12  O   UNL d   1      53.260  32.508  53.206  0.00  0.00    -0.305 OA
ATOM     13  C   UNL d   1      52.489  32.721  52.970  0.00  0.00     0.127 A 
ENDBRANCH   1   4
BRANCH   2  14
ATOM     14  C   UNL d   1      50.436  34.429  52.429  0.00  0.00     0.085 A 
ATOM     15  C   UNL d   1      49.944  34.838  52.949  0.00  0.00     0.021 A 
ATOM     16  C   UNL d   1      49.180  35.036  52.715  0.00  0.00     0.026 A 
ATOM     17  C   UNL d   1      48.914  34.829  51.972  0.00  0.00     0.094 A 
ATOM     18  C   UNL d   1      49.404  34.419  51.448  0.00  0.00     0.026 A 
ATOM     19  C   UNL d   1      50.171  34.223  51.690  0.00  0.00     0.021 A 
BRANCH  17  20
ATOM     20  O   UNL d   1      48.147  35.025  51.730  0.00  0.00    -0.328 OA
ATOM     21  C   UNL d   1      47.791  35.710  51.994  0.00  0.00     0.181 C 
ENDBRANCH  17  20
ENDBRANCH   2  14
TORSDOF 3
ENDMDL
MODEL 2
REMARK VINA RESULT:      -8.2      2.745      3.784
REMARK  3 active torsions:
REMARK  status: ('A' for Active; 'I' for Inactive)
REMARK    1  A    between atoms: C_2  and  C_1 
REMARK       I    between atoms: N_5  and  C_2 
REMARK    2  A    between atoms: C_10  and  N_5 
REMARK    3  A    between atoms: O_16  and  C_11 
ROOT
ATOM      1  C   UNL d   1      53.308  32.639  53.544  0.00  0.00     0.281 C 
ATOM      2  N   UNL d   1      52.751  33.096  53.941  0.00  0.00    -0.208 NA
ATOM      3  O   UNL d   1      54.006  32.983  53.271  0.00  0.00    -0.265 OA
ENDROOT
BRANCH   1   4
ATOM      4  C   UNL d   1      53.177  31.834  53.415  0.00  0.00     0.083 A 
ATOM      5  C   UNL d   1      53.403  31.275  53.984  0.00  0.00     0.009 A 
ATOM      6  C   UNL d   1      53.267  30.465  53.844  0.00  0.00     0.023 A 
ATOM      7  C   UNL d   1      53.491  29.909  54.407  0.00  0.00     0.002 A 
ATOM      8  C   UNL d   1      52.902  30.219  53.132  0.00  0.00     0.100 A 
ATOM      9  C   UNL d   1      53.352  29.107  54.262  0.00  0.00     0.000 A 
ATOM     10  C   UNL d   1      52.993  28.863  53.560  0.00  0.00     0.002 A 
ATOM     11  C   UNL d   1      52.769  29.420  52.997  0.00  0.00     0.025 A 
ATOM     12  O   UNL d   1      52.679  30.775  52.569  0.00  0.00    -0.305 OA
ATOM     13  C   UNL d   1      52.813  31.587  52.703  0.00  0.00     0.127 A 
ENDBRANCH   1   4
BRANCH   2  14
ATOM     14  C   UNL d   1      52.889  33.902  54.066  0.00  0.00     0.085 A 
ATOM     15  C   UNL d   1      53.286  34.149  54.745  0.00  0.00     0.021 A 
ATOM     16  C   UNL d   1      53.423  34.951  54.868  0.00  0.00     0.026 A 
ATOM     17  C   UNL d   1      53.167  35.498  54.319  0.00  0.00     0.094 A 
ATOM     18  C   UNL d   1      52.768  35.254  53.636  0.00  0.00     0.026 A 
ATOM     19  C   UNL d   1      52.634  34.446  53.520  0.00  0.00     0.021 A 
BRANCH  17  20
ATOM     20  O   UNL d   1      53.301  36.305  54.435  0.00  0.00    -0.328 OA
ATOM     21  C   UNL d   1      52.955  36.698  55.061  0.00  0.00     0.181 C 
ENDBRANCH  17  20
ENDBRANCH   2  14
TORSDOF 3
ENDMDL
MODEL 3
REMARK VINA RESULT:      -8.0      0.712      4.903
REMARK  3 active torsions:
REMARK  status: ('A' for Active; 'I' for Inactive)
REMARK    1  A    between atoms: C_2  and  C_1 
REMARK       I    between atoms: N_5  and  C_2 
REMARK    2  A    between atoms: C_10  and  N_5 
REMARK    3  A    between atoms: O_16  and  C_11 
ROOT
ATOM      1  C   UNL d   1      50.707  34.125  52.946  0.00  0.00     0.281 C 
ATOM      2  N   UNL d   1      51.451  34.408  52.738  0.00  0.00    -0.208 NA
ATOM      3  O   UNL d   1      50.636  33.512  53.493  0.00  0.00    -0.265 OA
ENDROOT
BRANCH   1   4
ATOM      4  C   UNL d   1      50.025  34.448  52.610  0.00  0.00     0.083 A 
ATOM      5  C   UNL d   1      49.545  34.962  53.048  0.00  0.00     0.009 A 
ATOM      6  C   UNL d   1      48.859  35.282  52.701  0.00  0.00     0.023 A 
ATOM      7  C   UNL d   1      48.380  35.793  53.135  0.00  0.00     0.002 A 
ATOM      8  C   UNL d   1      48.657  35.086  51.913  0.00  0.00     0.100 A 
ATOM      9  C   UNL d   1      47.701  36.107  52.783  0.00  0.00     0.000 A 
ATOM     10  C   UNL d   1      47.502  35.914  52.006  0.00  0.00     0.002 A 
ATOM     11  C   UNL d   1      47.981  35.404  51.573  0.00  0.00     0.025 A 
ATOM     12  O   UNL d   1      49.136  34.576  51.480  0.00  0.00    -0.305 OA
ATOM     13  C   UNL d   1      49.824  34.252  51.822  0.00  0.00     0.127 A 
ENDBRANCH   1   4
BRANCH   2  14
ATOM     14  C   UNL d   1      52.129  34.079  53.078  0.00  0.00     0.085 A 
ATOM     15  C   UNL d   1      52.549  34.503  53.648  0.00  0.00     0.021 A 
ATOM     16  C   UNL d   1      53.224  34.173  53.985  0.00  0.00     0.026 A 
ATOM     17  C   UNL d   1      53.474  33.431  53.756  0.00  0.00     0.094 A 
ATOM     18  C   UNL d   1      53.055  33.003  53.185  0.00  0.00     0.026 A 
ATOM     19  C   UNL d   1      52.378  33.341  52.851  0.00  0.00     0.021 A 
BRANCH  17  20
ATOM     20  O   UNL d   1      54.151  33.094  54.090  0.00  0.00    -0.328 OA
ATOM     21  C   UNL d   1      54.132  32.787  54.846  0.00  0.00     0.181 C 
ENDBRANCH  17  20
ENDBRANCH   2  14
TORSDOF 3
ENDMDL
