MODEL 1
REMARK VINA RESULT:      36.1      0.000      0.000
REMARK  5 active torsions:
REMARK  status: ('A' for Active; 'I' for Inactive)
REMARK    1  A    between atoms: C_9  and  N_1 
REMARK    2  A    between atoms: S_8  and  C_2 
REMARK    3  A    between atoms: C_6  and  C_10 
REMARK       I    between atoms: N_7  and  C_6 
REMARK    4  A    between atoms: C_10  and  S_8 
REMARK    5  A    between atoms: C_13  and  C_9 
ROOT
ATOM      1  N   UNL d   1      13.652  12.430  -2.806  0.00  0.00    -0.303 N 
ATOM      2  C   UNL d   1      13.719  13.664  -3.309  0.00  0.00     0.049 A 
ATOM      3  C   UNL d   1      13.865  13.192  -2.635  0.00  0.00     0.087 A 
ATOM      4  C   UNL d   1      13.411  13.161  -3.888  0.00  0.00     0.024 A 
ATOM      5  C   UNL d   1      13.370  12.398  -3.577  0.00  0.00     0.065 A 
ATOM      6  C   UNL d   1      13.166  13.307  -4.658  0.00  0.00     0.002 A 
ATOM      7  C   UNL d   1      13.083  11.781  -4.036  0.00  0.00     0.018 A 
ATOM      8  C   UNL d   1      12.877  12.688  -5.121  0.00  0.00     0.000 A 
ATOM      9  C   UNL d   1      12.835  11.925  -4.810  0.00  0.00     0.002 A 
ENDROOT
BRANCH   2  10
ATOM     10  S   UNL d   1      13.852  14.472  -3.386  0.00  0.00    -0.080 SA
BRANCH  10  11
ATOM     11  C   UNL d   1      14.195  14.901  -2.763  0.00  0.00     0.097 C 
BRANCH  11  12
ATOM     12  C   UNL d   1      14.487  15.660  -2.881  0.00  0.00     0.272 C 
ATOM     13  N   UNL d   1      14.789  16.104  -2.254  0.00  0.00    -0.267 N 
ATOM     14  C   UNL d   1      14.797  15.774  -1.494  0.00  0.00     0.110 A 
ATOM     15  C   UNL d   1      15.079  16.864  -2.383  0.00  0.00     0.110 A 
ATOM     16  C   UNL d   1      15.094  16.205  -0.864  0.00  0.00     0.142 A 
ATOM     17  O   UNL d   1      15.390  16.980  -0.991  0.00  0.00    -0.300 OA
ATOM     18  C   UNL d   1      15.382  17.305  -1.749  0.00  0.00     0.142 A 
ATOM     19  O   UNL d   1      14.476  15.978  -3.635  0.00  0.00    -0.266 OA
ENDBRANCH  11  12
ENDBRANCH  10  11
ENDBRANCH   2  10
BRANCH   1  20
ATOM     20  C   UNL d   1      13.709  11.779  -2.279  0.00  0.00     0.080 C 
BRANCH  20  21
ATOM     21  C   UNL d   1      14.024  11.880  -1.528  0.00  0.00     0.018 A 
ATOM     22  C   UNL d   1      13.551  11.792  -0.857  0.00  0.00     0.002 A 
ATOM     23  C   UNL d   1      13.871  11.894  -0.105  0.00  0.00     0.000 A 
ATOM     24  C   UNL d   1      14.661  12.084  -0.014  0.00  0.00     0.000 A 
ATOM     25  C   UNL d   1      15.149  12.175  -0.688  0.00  0.00     0.000 A 
ATOM     26  C   UNL d   1      14.821  12.071  -1.442  0.00  0.00     0.002 A 
ENDBRANCH  20  21
ENDBRANCH   1  20
TORSDOF 5
ENDMDL
