MODEL 1
REMARK VINA RESULT:      -5.9      0.000      0.000
REMARK  4 active torsions:
REMARK  status: ('A' for Active; 'I' for Inactive)
REMARK    1  A    between atoms: N_3  and  S_1 
REMARK    2  A    between atoms: C_13  and  S_1 
REMARK    3  A    between atoms: C_2  and  N_3 
REMARK    4  A    between atoms: N_8  and  C_4 
REMARK       I    between atoms: C_10  and  N_9 
ROOT
ATOM      1  C   UNL d   1     -38.645  14.440  19.530  0.00  0.00     0.110 A 
ATOM      2  C   UNL d   1     -39.610  14.795  19.254  0.00  0.00     0.083 A 
ATOM      3  C   UNL d   1     -38.679  14.488  20.349  0.00  0.00     0.020 A 
ATOM      4  C   UNL d   1     -39.965  14.961  19.981  0.00  0.00     0.018 A 
ATOM      5  C   UNL d   1     -39.409  14.775  20.561  0.00  0.00     0.003 A 
ATOM      6  C   UNL d   1     -39.595  14.879  21.359  0.00  0.00     0.000 A 
ATOM      7  C   UNL d   1     -38.108  14.295  20.923  0.00  0.00     0.002 A 
ATOM      8  C   UNL d   1     -40.696  15.248  20.193  0.00  0.00     0.002 A 
ATOM      9  C   UNL d   1     -40.900  15.360  20.998  0.00  0.00     0.000 A 
ATOM     10  C   UNL d   1     -38.309  14.406  21.726  0.00  0.00     0.000 A 
ATOM     11  C   UNL d   1     -40.333  15.169  21.574  0.00  0.00     0.000 A 
ATOM     12  C   UNL d   1     -39.046  14.695  21.942  0.00  0.00     0.000 A 
ENDROOT
BRANCH   1  13
ATOM     13  N   UNL d   1     -37.979  14.171  19.143  0.00  0.00    -0.157 NA
BRANCH  13  14
ATOM     14  S   UNL d   1     -37.976  13.453  18.736  0.00  0.00     0.285 S 
ATOM     15  O   UNL d   1     -38.006  13.869  18.023  0.00  0.00    -0.198 OA
ATOM     16  O   UNL d   1     -37.946  13.047  19.447  0.00  0.00    -0.198 OA
BRANCH  14  17
ATOM     17  C   UNL d   1     -37.974  12.745  18.327  0.00  0.00     0.105 A 
ATOM     18  C   UNL d   1     -37.995  12.035  18.739  0.00  0.00     0.013 A 
ATOM     19  C   UNL d   1     -37.993  11.308  18.343  0.00  0.00     0.001 A 
ATOM     20  C   UNL d   1     -37.969  11.318  17.501  0.00  0.00     0.000 A 
ATOM     21  C   UNL d   1     -37.948  12.026  17.092  0.00  0.00     0.001 A 
ATOM     22  C   UNL d   1     -37.950  12.737  17.499  0.00  0.00     0.013 A 
ENDBRANCH  14  17
ENDBRANCH  13  14
ENDBRANCH   1  13
BRANCH   2  23
ATOM     23  N   UNL d   1     -40.025  14.923  18.560  0.00  0.00    -0.300 N 
ATOM     24  C   UNL d   1     -40.671  14.443  18.380  0.00  0.00     0.100 A 
ATOM     25  C   UNL d   1     -41.069  14.574  17.703  0.00  0.00     0.102 A 
ATOM     26  N   UNL d   1     -40.864  15.186  17.151  0.00  0.00    -0.269 N 
ATOM     27  C   UNL d   1     -40.224  15.659  17.332  0.00  0.00     0.102 A 
ATOM     28  C   UNL d   1     -41.275  15.325  16.448  0.00  0.00     0.265 C 
ATOM     29  C   UNL d   1     -39.782  15.522  18.072  0.00  0.00     0.100 A 
ATOM     30  O   UNL d   1     -41.932  14.876  16.215  0.00  0.00    -0.267 OA
ATOM     31  C   UNL d   1     -41.080  15.917  15.910  0.00  0.00     0.066 C 
ENDBRANCH   2  23
TORSDOF 4
ENDMDL
MODEL 2
REMARK VINA RESULT:      -4.9      1.514      4.316
REMARK  4 active torsions:
REMARK  status: ('A' for Active; 'I' for Inactive)
REMARK    1  A    between atoms: N_3  and  S_1 
REMARK    2  A    between atoms: C_13  and  S_1 
REMARK    3  A    between atoms: C_2  and  N_3 
REMARK    4  A    between atoms: N_8  and  C_4 
REMARK       I    between atoms: C_10  and  N_9 
ROOT
ATOM      1  C   UNL d   1     -38.733  14.680  18.153  0.00  0.00     0.110 A 
ATOM      2  C   UNL d   1     -38.617  14.291  19.137  0.00  0.00     0.083 A 
ATOM      3  C   UNL d   1     -38.536  14.029  17.693  0.00  0.00     0.020 A 
ATOM      4  C   UNL d   1     -38.381  13.511  19.006  0.00  0.00     0.018 A 
ATOM      5  C   UNL d   1     -38.349  13.411  18.187  0.00  0.00     0.003 A 
ATOM      6  C   UNL d   1     -38.129  12.682  17.869  0.00  0.00     0.000 A 
ATOM      7  C   UNL d   1     -38.509  13.943  16.866  0.00  0.00     0.002 A 
ATOM      8  C   UNL d   1     -38.194  12.892  19.500  0.00  0.00     0.002 A 
ATOM      9  C   UNL d   1     -37.968  12.145  19.192  0.00  0.00     0.000 A 
ATOM     10  C   UNL d   1     -38.284  13.200  16.558  0.00  0.00     0.000 A 
ATOM     11  C   UNL d   1     -37.940  12.056  18.367  0.00  0.00     0.000 A 
ATOM     12  C   UNL d   1     -38.096  12.575  17.055  0.00  0.00     0.000 A 
ENDROOT
BRANCH   1  13
ATOM     13  N   UNL d   1     -38.948  15.392  17.819  0.00  0.00    -0.157 NA
BRANCH  13  14
ATOM     14  S   UNL d   1     -39.711  15.524  17.535  0.00  0.00     0.285 S 
ATOM     15  O   UNL d   1     -39.391  15.748  16.807  0.00  0.00    -0.198 OA
ATOM     16  O   UNL d   1     -40.022  15.300  18.259  0.00  0.00    -0.198 OA
BRANCH  14  17
ATOM     17  C   UNL d   1     -40.465  15.656  17.247  0.00  0.00     0.105 A 
ATOM     18  C   UNL d   1     -41.095  15.728  17.769  0.00  0.00     0.013 A 
ATOM     19  C   UNL d   1     -41.865  15.862  17.499  0.00  0.00     0.001 A 
ATOM     20  C   UNL d   1     -41.986  15.922  16.667  0.00  0.00     0.000 A 
ATOM     21  C   UNL d   1     -41.358  15.849  16.148  0.00  0.00     0.001 A 
ATOM     22  C   UNL d   1     -40.601  15.717  16.432  0.00  0.00     0.013 A 
ENDBRANCH  14  17
ENDBRANCH  13  14
ENDBRANCH   1  13
BRANCH   2  23
ATOM     23  N   UNL d   1     -38.701  14.566  19.904  0.00  0.00    -0.300 N 
ATOM     24  C   UNL d   1     -39.357  14.335  20.348  0.00  0.00     0.100 A 
ATOM     25  C   UNL d   1     -39.431  14.607  21.093  0.00  0.00     0.102 A 
ATOM     26  N   UNL d   1     -38.868  15.126  21.459  0.00  0.00    -0.269 N 
ATOM     27  C   UNL d   1     -38.220  15.353  21.017  0.00  0.00     0.102 A 
ATOM     28  C   UNL d   1     -38.941  15.410  22.230  0.00  0.00     0.265 C 
ATOM     29  C   UNL d   1     -38.131  15.060  20.200  0.00  0.00     0.100 A 
ATOM     30  O   UNL d   1     -39.578  15.213  22.724  0.00  0.00    -0.267 OA
ATOM     31  C   UNL d   1     -38.398  15.914  22.590  0.00  0.00     0.066 C 
ENDBRANCH   2  23
TORSDOF 4
ENDMDL
MODEL 3
REMARK VINA RESULT:      -3.8      2.142      3.512
REMARK  4 active torsions:
REMARK  status: ('A' for Active; 'I' for Inactive)
REMARK    1  A    between atoms: N_3  and  S_1 
REMARK    2  A    between atoms: C_13  and  S_1 
REMARK    3  A    between atoms: C_2  and  N_3 
REMARK    4  A    between atoms: N_8  and  C_4 
REMARK       I    between atoms: C_10  and  N_9 
ROOT
ATOM      1  C   UNL d   1     -40.092  15.364  20.430  0.00  0.00     0.110 A 
ATOM      2  C   UNL d   1     -40.525  14.587  21.013  0.00  0.00     0.083 A 
ATOM      3  C   UNL d   1     -39.342  15.421  20.760  0.00  0.00     0.020 A 
ATOM      4  C   UNL d   1     -39.920  14.384  21.538  0.00  0.00     0.018 A 
ATOM      5  C   UNL d   1     -39.282  14.874  21.359  0.00  0.00     0.003 A 
ATOM      6  C   UNL d   1     -38.580  14.811  21.788  0.00  0.00     0.000 A 
ATOM      7  C   UNL d   1     -38.706  15.922  20.568  0.00  0.00     0.002 A 
ATOM      8  C   UNL d   1     -39.860  13.838  22.137  0.00  0.00     0.002 A 
ATOM      9  C   UNL d   1     -39.154  13.760  22.583  0.00  0.00     0.000 A 
ATOM     10  C   UNL d   1     -38.002  15.847  21.011  0.00  0.00     0.000 A 
ATOM     11  C   UNL d   1     -38.518  14.259  22.395  0.00  0.00     0.000 A 
ATOM     12  C   UNL d   1     -37.940  15.296  21.616  0.00  0.00     0.000 A 
ENDROOT
BRANCH   1  13
ATOM     13  N   UNL d   1     -40.326  15.842  19.811  0.00  0.00    -0.157 NA
BRANCH  13  14
ATOM     14  S   UNL d   1     -40.361  15.561  19.037  0.00  0.00     0.285 S 
ATOM     15  O   UNL d   1     -41.179  15.676  19.042  0.00  0.00    -0.198 OA
ATOM     16  O   UNL d   1     -39.549  15.449  19.038  0.00  0.00    -0.198 OA
BRANCH  14  17
ATOM     17  C   UNL d   1     -40.402  15.283  18.269  0.00  0.00     0.105 A 
ATOM     18  C   UNL d   1     -40.982  15.568  17.761  0.00  0.00     0.013 A 
ATOM     19  C   UNL d   1     -41.040  15.299  16.981  0.00  0.00     0.001 A 
ATOM     20  C   UNL d   1     -40.486  14.721  16.721  0.00  0.00     0.000 A 
ATOM     21  C   UNL d   1     -39.910  14.437  17.227  0.00  0.00     0.001 A 
ATOM     22  C   UNL d   1     -39.865  14.714  17.997  0.00  0.00     0.013 A 
ENDBRANCH  14  17
ENDBRANCH  13  14
ENDBRANCH   1  13
BRANCH   2  23
ATOM     23  N   UNL d   1     -41.243  14.194  21.050  0.00  0.00    -0.300 N 
ATOM     24  C   UNL d   1     -41.305  13.433  20.738  0.00  0.00     0.100 A 
ATOM     25  C   UNL d   1     -42.006  13.058  20.777  0.00  0.00     0.102 A 
ATOM     26  N   UNL d   1     -42.700  13.400  21.125  0.00  0.00    -0.269 N 
ATOM     27  C   UNL d   1     -42.636  14.154  21.433  0.00  0.00     0.102 A 
ATOM     28  C   UNL d   1     -43.429  13.015  21.168  0.00  0.00     0.265 C 
ATOM     29  C   UNL d   1     -41.871  14.572  21.394  0.00  0.00     0.100 A 
ATOM     30  O   UNL d   1     -43.551  12.250  20.872  0.00  0.00    -0.267 OA
ATOM     31  C   UNL d   1     -44.105  13.343  21.504  0.00  0.00     0.066 C 
ENDBRANCH   2  23
TORSDOF 4
ENDMDL
