MODEL 1
REMARK VINA RESULT:      -7.7      0.000      0.000
REMARK  5 active torsions:
REMARK  status: ('A' for Active; 'I' for Inactive)
REMARK    1  A    between atoms: C_17  and  N_5 
REMARK    2  A    between atoms: S_14  and  C_6 
REMARK    3  A    between atoms: C_11  and  C_18 
REMARK    4  A    between atoms: C_18  and  S_14 
REMARK    5  A    between atoms: C_19  and  C_17 
ROOT
ATOM      1  C   UNL d   1     -48.435  12.769  23.333  0.00  0.00     0.081 A 
ATOM      2  C   UNL d   1     -48.315  11.953  23.421  0.00  0.00     0.117 A 
ATOM      3  N   UNL d   1     -47.547  11.649  23.447  0.00  0.00    -0.215 NA
ATOM      4  C   UNL d   1     -47.792  13.281  23.272  0.00  0.00     0.268 A 
ATOM      5  N   UNL d   1     -47.016  12.978  23.298  0.00  0.00    -0.253 N 
ATOM      6  C   UNL d   1     -46.899  12.162  23.386  0.00  0.00     0.182 A 
ATOM      7  S   UNL d   1     -49.051  11.594  23.466  0.00  0.00    -0.068 SA
ATOM      8  C   UNL d   1     -49.250  12.909  23.325  0.00  0.00     0.013 A 
ATOM      9  C   UNL d   1     -49.629  12.185  23.407  0.00  0.00     0.031 A 
ATOM     10  O   UNL d   1     -47.910  14.084  23.186  0.00  0.00    -0.267 OA
ATOM     11  C   UNL d   1     -49.577  13.658  23.247  0.00  0.00     0.001 A 
ATOM     12  C   UNL d   1     -50.439  12.026  23.431  0.00  0.00     0.006 A 
ATOM     13  C   UNL d   1     -50.374  13.874  23.230  0.00  0.00     0.000 A 
ATOM     14  C   UNL d   1     -51.064  12.557  23.379  0.00  0.00     0.001 A 
ATOM     15  C   UNL d   1     -51.043  13.381  23.289  0.00  0.00     0.000 A 
ENDROOT
BRANCH   6  16
ATOM     16  S   UNL d   1     -46.126  11.859  23.412  0.00  0.00    -0.048 SA
BRANCH  16  17
ATOM     17  C   UNL d   1     -46.004  11.051  23.490  0.00  0.00     0.058 C 
BRANCH  17  18
ATOM     18  C   UNL d   1     -45.235  10.747  23.496  0.00  0.00     0.095 A 
ATOM     19  N   UNL d   1     -44.557  11.155  23.322  0.00  0.00    -0.238 NA
ATOM     20  C   UNL d   1     -43.927  10.637  23.399  0.00  0.00     0.111 A 
ATOM     21  C   UNL d   1     -43.139  10.798  23.280  0.00  0.00     0.028 C 
ATOM     22  S   UNL d   1     -44.222   9.916  23.619  0.00  0.00    -0.066 SA
ATOM     23  C   UNL d   1     -45.026   9.982  23.680  0.00  0.00     0.057 A 
ENDBRANCH  17  18
ENDBRANCH  16  17
ENDBRANCH   6  16
BRANCH   5  24
ATOM     24  C   UNL d   1     -46.369  13.478  23.238  0.00  0.00     0.085 C 
BRANCH  24  25
ATOM     25  C   UNL d   1     -46.258  13.927  22.539  0.00  0.00     0.019 C 
ATOM     26  C   UNL d   1     -45.728  14.558  22.531  0.00  0.00     0.002 C 
ENDBRANCH  24  25
ENDBRANCH   5  24
TORSDOF 5
ENDMDL
MODEL 2
REMARK VINA RESULT:      -6.5      1.607      2.483
REMARK  5 active torsions:
REMARK  status: ('A' for Active; 'I' for Inactive)
REMARK    1  A    between atoms: C_17  and  N_5 
REMARK    2  A    between atoms: S_14  and  C_6 
REMARK    3  A    between atoms: C_11  and  C_18 
REMARK    4  A    between atoms: C_18  and  S_14 
REMARK    5  A    between atoms: C_19  and  C_17 
ROOT
ATOM      1  C   UNL d   1     -48.765  13.773  23.050  0.00  0.00     0.081 A 
ATOM      2  C   UNL d   1     -48.138  14.297  22.907  0.00  0.00     0.117 A 
ATOM      3  N   UNL d   1     -47.379  14.003  22.764  0.00  0.00    -0.215 NA
ATOM      4  C   UNL d   1     -48.636  12.959  23.050  0.00  0.00     0.268 A 
ATOM      5  N   UNL d   1     -47.872  12.659  22.906  0.00  0.00    -0.253 N 
ATOM      6  C   UNL d   1     -47.247  13.186  22.764  0.00  0.00     0.182 A 
ATOM      7  S   UNL d   1     -48.436  15.060  22.942  0.00  0.00    -0.068 SA
ATOM      8  C   UNL d   1     -49.450  14.220  23.173  0.00  0.00     0.013 A 
ATOM      9  C   UNL d   1     -49.246  15.013  23.106  0.00  0.00     0.031 A 
ATOM     10  O   UNL d   1     -49.253  12.443  23.190  0.00  0.00    -0.267 OA
ATOM     11  C   UNL d   1     -50.183  13.886  23.330  0.00  0.00     0.001 A 
ATOM     12  C   UNL d   1     -49.729  15.678  23.182  0.00  0.00     0.006 A 
ATOM     13  C   UNL d   1     -50.905  14.264  23.463  0.00  0.00     0.000 A 
ATOM     14  C   UNL d   1     -50.536  15.707  23.343  0.00  0.00     0.001 A 
ATOM     15  C   UNL d   1     -51.064  15.081  23.469  0.00  0.00     0.000 A 
ENDROOT
BRANCH   6  16
ATOM     16  S   UNL d   1     -46.485  12.887  22.621  0.00  0.00    -0.048 SA
BRANCH  16  17
ATOM     17  C   UNL d   1     -45.873  13.400  22.429  0.00  0.00     0.058 C 
BRANCH  17  18
ATOM     18  C   UNL d   1     -45.148  13.100  22.169  0.00  0.00     0.095 A 
ATOM     19  N   UNL d   1     -44.693  12.548  22.550  0.00  0.00    -0.238 NA
ATOM     20  C   UNL d   1     -44.025  12.416  22.094  0.00  0.00     0.111 A 
ATOM     21  C   UNL d   1     -43.411  11.908  22.254  0.00  0.00     0.028 C 
ATOM     22  S   UNL d   1     -44.075  12.888  21.438  0.00  0.00    -0.066 SA
ATOM     23  C   UNL d   1     -44.763  13.309  21.482  0.00  0.00     0.057 A 
ENDBRANCH  17  18
ENDBRANCH  16  17
ENDBRANCH   6  16
BRANCH   5  24
ATOM     24  C   UNL d   1     -47.733  11.851  22.904  0.00  0.00     0.085 C 
BRANCH  24  25
ATOM     25  C   UNL d   1     -47.792  11.421  23.622  0.00  0.00     0.019 C 
ATOM     26  C   UNL d   1     -47.420  10.689  23.698  0.00  0.00     0.002 C 
ENDBRANCH  24  25
ENDBRANCH   5  24
TORSDOF 5
ENDMDL
MODEL 3
REMARK VINA RESULT:      -6.1      1.759      5.236
REMARK  5 active torsions:
REMARK  status: ('A' for Active; 'I' for Inactive)
REMARK    1  A    between atoms: C_17  and  N_5 
REMARK    2  A    between atoms: S_14  and  C_6 
REMARK    3  A    between atoms: C_11  and  C_18 
REMARK    4  A    between atoms: C_18  and  S_14 
REMARK    5  A    between atoms: C_19  and  C_17 
ROOT
ATOM      1  C   UNL d   1     -45.923  12.423  22.775  0.00  0.00     0.081 A 
ATOM      2  C   UNL d   1     -46.066  13.125  22.357  0.00  0.00     0.117 A 
ATOM      3  N   UNL d   1     -46.813  13.477  22.385  0.00  0.00    -0.215 NA
ATOM      4  C   UNL d   1     -46.523  12.072  23.219  0.00  0.00     0.268 A 
ATOM      5  N   UNL d   1     -47.278  12.425  23.250  0.00  0.00    -0.253 N 
ATOM      6  C   UNL d   1     -47.417  13.127  22.831  0.00  0.00     0.182 A 
ATOM      7  S   UNL d   1     -45.372  13.334  21.974  0.00  0.00    -0.068 SA
ATOM      8  C   UNL d   1     -45.138  12.202  22.646  0.00  0.00     0.013 A 
ATOM      9  C   UNL d   1     -44.798  12.764  22.152  0.00  0.00     0.031 A 
ATOM     10  O   UNL d   1     -46.383  11.381  23.631  0.00  0.00    -0.267 OA
ATOM     11  C   UNL d   1     -44.798  11.530  22.974  0.00  0.00     0.001 A 
ATOM     12  C   UNL d   1     -44.026  12.796  21.860  0.00  0.00     0.006 A 
ATOM     13  C   UNL d   1     -44.027  11.248  22.891  0.00  0.00     0.000 A 
ATOM     14  C   UNL d   1     -43.409  12.270  21.993  0.00  0.00     0.001 A 
ATOM     15  C   UNL d   1     -43.402  11.579  22.451  0.00  0.00     0.000 A 
ENDROOT
BRANCH   6  16
ATOM     16  S   UNL d   1     -48.169  13.479  22.860  0.00  0.00    -0.048 SA
BRANCH  16  17
ATOM     17  C   UNL d   1     -48.289  14.219  22.525  0.00  0.00     0.058 C 
BRANCH  17  18
ATOM     18  C   UNL d   1     -49.009  14.612  22.635  0.00  0.00     0.095 A 
ATOM     19  N   UNL d   1     -49.182  15.139  23.225  0.00  0.00    -0.238 NA
ATOM     20  C   UNL d   1     -49.955  15.388  23.118  0.00  0.00     0.111 A 
ATOM     21  C   UNL d   1     -50.371  15.917  23.576  0.00  0.00     0.028 C 
ATOM     22  S   UNL d   1     -50.251  15.012  22.465  0.00  0.00    -0.066 SA
ATOM     23  C   UNL d   1     -49.671  14.535  22.166  0.00  0.00     0.057 A 
ENDBRANCH  17  18
ENDBRANCH  16  17
ENDBRANCH   6  16
BRANCH   5  24
ATOM     24  C   UNL d   1     -47.882  12.085  23.688  0.00  0.00     0.085 C 
BRANCH  24  25
ATOM     25  C   UNL d   1     -48.310  11.440  23.368  0.00  0.00     0.019 C 
ATOM     26  C   UNL d   1     -49.083  11.292  23.615  0.00  0.00     0.002 C 
ENDBRANCH  24  25
ENDBRANCH   5  24
TORSDOF 5
ENDMDL
MODEL 4
REMARK VINA RESULT:      -4.8      1.547      2.327
REMARK  5 active torsions:
REMARK  status: ('A' for Active; 'I' for Inactive)
REMARK    1  A    between atoms: C_17  and  N_5 
REMARK    2  A    between atoms: S_14  and  C_6 
REMARK    3  A    between atoms: C_11  and  C_18 
REMARK    4  A    between atoms: C_18  and  S_14 
REMARK    5  A    between atoms: C_19  and  C_17 
ROOT
ATOM      1  C   UNL d   1     -48.412  12.968  22.731  0.00  0.00     0.081 A 
ATOM      2  C   UNL d   1     -48.003  13.501  22.244  0.00  0.00     0.117 A 
ATOM      3  N   UNL d   1     -47.180  13.463  22.190  0.00  0.00    -0.215 NA
ATOM      4  C   UNL d   1     -48.001  12.398  23.162  0.00  0.00     0.268 A 
ATOM      5  N   UNL d   1     -47.170  12.356  23.109  0.00  0.00    -0.253 N 
ATOM      6  C   UNL d   1     -46.764  12.891  22.622  0.00  0.00     0.182 A 
ATOM      7  S   UNL d   1     -48.556  13.994  21.893  0.00  0.00    -0.068 SA
ATOM      8  C   UNL d   1     -49.219  13.137  22.676  0.00  0.00     0.013 A 
ATOM      9  C   UNL d   1     -49.307  13.769  22.159  0.00  0.00     0.031 A 
ATOM     10  O   UNL d   1     -48.403  11.873  23.641  0.00  0.00    -0.267 OA
ATOM     11  C   UNL d   1     -49.796  12.718  23.084  0.00  0.00     0.001 A 
ATOM     12  C   UNL d   1     -50.002  14.146  21.918  0.00  0.00     0.006 A 
ATOM     13  C   UNL d   1     -50.614  12.828  23.079  0.00  0.00     0.000 A 
ATOM     14  C   UNL d   1     -50.776  13.978  22.140  0.00  0.00     0.001 A 
ATOM     15  C   UNL d   1     -51.055  13.393  22.656  0.00  0.00     0.000 A 
ENDROOT
BRANCH   6  16
ATOM     16  S   UNL d   1     -45.937  12.849  22.569  0.00  0.00    -0.048 SA
BRANCH  16  17
ATOM     17  C   UNL d   1     -45.550  13.175  21.921  0.00  0.00     0.058 C 
BRANCH  17  18
ATOM     18  C   UNL d   1     -44.736  13.061  21.825  0.00  0.00     0.095 A 
ATOM     19  N   UNL d   1     -44.328  12.376  21.964  0.00  0.00    -0.238 NA
ATOM     20  C   UNL d   1     -43.539  12.517  21.796  0.00  0.00     0.111 A 
ATOM     21  C   UNL d   1     -42.921  11.991  21.854  0.00  0.00     0.028 C 
ATOM     22  S   UNL d   1     -43.468  13.286  21.557  0.00  0.00    -0.066 SA
ATOM     23  C   UNL d   1     -44.203  13.623  21.574  0.00  0.00     0.057 A 
ENDBRANCH  17  18
ENDBRANCH  16  17
ENDBRANCH   6  16
BRANCH   5  24
ATOM     24  C   UNL d   1     -46.751  11.793  23.533  0.00  0.00     0.085 C 
BRANCH  24  25
ATOM     25  C   UNL d   1     -47.008  10.995  23.525  0.00  0.00     0.019 C 
ATOM     26  C   UNL d   1     -46.479  10.387  23.698  0.00  0.00     0.002 C 
ENDBRANCH  24  25
ENDBRANCH   5  24
TORSDOF 5
ENDMDL
