MODEL 1
REMARK VINA RESULT:      -7.8      0.000      0.000
REMARK  4 active torsions:
REMARK  status: ('A' for Active; 'I' for Inactive)
REMARK    1  A    between atoms: C_2  and  C_1 
REMARK    2  A    between atoms: O_18  and  C_16 
REMARK    3  A    between atoms: C_17  and  C_19 
REMARK    4  A    between atoms: C_19  and  O_18 
ROOT
ATOM      1  C   UNL d   1     -48.944  12.415  23.260  0.00  0.00     0.030 A 
ATOM      2  C   UNL d   1     -48.183  12.109  23.360  0.00  0.00     0.027 A 
ATOM      3  C   UNL d   1     -49.505  11.148  23.585  0.00  0.00     0.300 A 
ATOM      4  C   UNL d   1     -49.601  11.930  23.374  0.00  0.00     0.071 A 
ATOM      5  C   UNL d   1     -48.086  11.317  23.574  0.00  0.00     0.103 A 
ATOM      6  O   UNL d   1     -48.744  10.833  23.688  0.00  0.00    -0.273 OA
ATOM      7  C   UNL d   1     -47.515  12.596  23.246  0.00  0.00     0.027 A 
ATOM      8  O   UNL d   1     -50.163  10.669  23.698  0.00  0.00    -0.259 OA
ATOM      9  C   UNL d   1     -47.327  11.012  23.674  0.00  0.00     0.027 A 
ATOM     10  C   UNL d   1     -46.771  12.283  23.347  0.00  0.00     0.100 A 
ATOM     11  C   UNL d   1     -46.669  11.492  23.561  0.00  0.00     0.027 A 
ENDROOT
BRANCH   1  12
ATOM     12  C   UNL d   1     -49.036  13.217  23.043  0.00  0.00     0.100 A 
ATOM     13  O   UNL d   1     -49.026  13.522  22.279  0.00  0.00    -0.307 OA
ATOM     14  C   UNL d   1     -49.137  14.331  22.333  0.00  0.00     0.100 A 
ATOM     15  C   UNL d   1     -49.178  14.921  21.757  0.00  0.00     0.025 A 
ATOM     16  C   UNL d   1     -49.218  14.537  23.129  0.00  0.00     0.025 A 
ATOM     17  C   UNL d   1     -49.297  15.707  21.980  0.00  0.00     0.002 A 
ATOM     18  C   UNL d   1     -49.377  15.902  22.779  0.00  0.00     0.000 A 
ATOM     19  C   UNL d   1     -49.336  15.310  23.349  0.00  0.00     0.002 A 
ATOM     20  C   UNL d   1     -49.154  13.838  23.569  0.00  0.00     0.027 A 
ENDBRANCH   1  12
BRANCH  10  21
ATOM     21  O   UNL d   1     -46.108  12.768  23.233  0.00  0.00    -0.302 OA
BRANCH  21  22
ATOM     22  C   UNL d   1     -45.663  12.692  22.555  0.00  0.00     0.165 C 
BRANCH  22  23
ATOM     23  C   UNL d   1     -45.194  13.315  22.297  0.00  0.00     0.220 C 
ATOM     24  O   UNL d   1     -45.316  14.072  22.601  0.00  0.00    -0.284 OA
ATOM     25  C   UNL d   1     -44.603  13.190  21.735  0.00  0.00     0.048 C 
ENDBRANCH  22  23
ENDBRANCH  21  22
ENDBRANCH  10  21
TORSDOF 4
ENDMDL
MODEL 2
REMARK VINA RESULT:      -7.6      1.187      3.195
REMARK  4 active torsions:
REMARK  status: ('A' for Active; 'I' for Inactive)
REMARK    1  A    between atoms: C_2  and  C_1 
REMARK    2  A    between atoms: O_18  and  C_16 
REMARK    3  A    between atoms: C_17  and  C_19 
REMARK    4  A    between atoms: C_19  and  O_18 
ROOT
ATOM      1  C   UNL d   1     -47.294  12.064  23.144  0.00  0.00     0.030 A 
ATOM      2  C   UNL d   1     -46.911  12.774  22.968  0.00  0.00     0.027 A 
ATOM      3  C   UNL d   1     -46.045  11.457  23.455  0.00  0.00     0.300 A 
ATOM      4  C   UNL d   1     -46.855  11.409  23.388  0.00  0.00     0.071 A 
ATOM      5  C   UNL d   1     -46.089  12.823  23.036  0.00  0.00     0.103 A 
ATOM      6  O   UNL d   1     -45.652  12.167  23.280  0.00  0.00    -0.273 OA
ATOM      7  C   UNL d   1     -47.350  13.439  22.721  0.00  0.00     0.027 A 
ATOM      8  O   UNL d   1     -45.612  10.802  23.698  0.00  0.00    -0.259 OA
ATOM      9  C   UNL d   1     -45.707  13.532  22.860  0.00  0.00     0.027 A 
ATOM     10  C   UNL d   1     -46.961  14.133  22.550  0.00  0.00     0.100 A 
ATOM     11  C   UNL d   1     -46.139  14.187  22.617  0.00  0.00     0.027 A 
ENDROOT
BRANCH   1  12
ATOM     12  C   UNL d   1     -48.126  12.020  23.073  0.00  0.00     0.100 A 
ATOM     13  O   UNL d   1     -48.672  12.056  23.687  0.00  0.00    -0.307 OA
ATOM     14  C   UNL d   1     -49.419  11.990  23.359  0.00  0.00     0.100 A 
ATOM     15  C   UNL d   1     -50.171  11.990  23.698  0.00  0.00     0.025 A 
ATOM     16  C   UNL d   1     -49.345  11.913  22.540  0.00  0.00     0.025 A 
ATOM     17  C   UNL d   1     -50.839  11.913  23.219  0.00  0.00     0.002 A 
ATOM     18  C   UNL d   1     -50.754  11.837  22.401  0.00  0.00     0.000 A 
ATOM     19  C   UNL d   1     -50.002  11.838  22.068  0.00  0.00     0.002 A 
ATOM     20  C   UNL d   1     -48.535  11.932  22.365  0.00  0.00     0.027 A 
ENDBRANCH   1  12
BRANCH  10  21
ATOM     21  O   UNL d   1     -47.398  14.794  22.305  0.00  0.00    -0.302 OA
BRANCH  21  22
ATOM     22  C   UNL d   1     -47.854  15.200  22.845  0.00  0.00     0.165 C 
BRANCH  22  23
ATOM     23  C   UNL d   1     -48.589  15.494  22.627  0.00  0.00     0.220 C 
ATOM     24  O   UNL d   1     -48.746  15.657  21.834  0.00  0.00    -0.284 OA
ATOM     25  C   UNL d   1     -49.173  15.627  23.195  0.00  0.00     0.048 C 
ENDBRANCH  22  23
ENDBRANCH  21  22
ENDBRANCH  10  21
TORSDOF 4
ENDMDL
MODEL 3
REMARK VINA RESULT:      -6.2      1.356      3.081
REMARK  4 active torsions:
REMARK  status: ('A' for Active; 'I' for Inactive)
REMARK    1  A    between atoms: C_2  and  C_1 
REMARK    2  A    between atoms: O_18  and  C_16 
REMARK    3  A    between atoms: C_17  and  C_19 
REMARK    4  A    between atoms: C_19  and  O_18 
ROOT
ATOM      1  C   UNL d   1     -48.032  13.894  22.717  0.00  0.00     0.030 A 
ATOM      2  C   UNL d   1     -47.238  13.691  22.813  0.00  0.00     0.027 A 
ATOM      3  C   UNL d   1     -47.653  15.165  22.200  0.00  0.00     0.300 A 
ATOM      4  C   UNL d   1     -48.234  14.633  22.410  0.00  0.00     0.071 A 
ATOM      5  C   UNL d   1     -46.649  14.230  22.600  0.00  0.00     0.103 A 
ATOM      6  O   UNL d   1     -46.852  14.969  22.293  0.00  0.00    -0.273 OA
ATOM      7  C   UNL d   1     -47.028  12.946  23.123  0.00  0.00     0.027 A 
ATOM      8  O   UNL d   1     -47.859  15.899  21.894  0.00  0.00    -0.259 OA
ATOM      9  C   UNL d   1     -45.856  14.027  22.696  0.00  0.00     0.027 A 
ATOM     10  C   UNL d   1     -46.242  12.757  23.213  0.00  0.00     0.100 A 
ATOM     11  C   UNL d   1     -45.650  13.293  23.002  0.00  0.00     0.027 A 
ENDROOT
BRANCH   1  12
ATOM     12  C   UNL d   1     -48.624  13.345  22.934  0.00  0.00     0.100 A 
ATOM     13  O   UNL d   1     -48.545  12.527  22.963  0.00  0.00    -0.307 OA
ATOM     14  C   UNL d   1     -49.263  12.216  23.204  0.00  0.00     0.100 A 
ATOM     15  C   UNL d   1     -49.512  11.440  23.330  0.00  0.00     0.025 A 
ATOM     16  C   UNL d   1     -49.794  12.837  23.327  0.00  0.00     0.025 A 
ATOM     17  C   UNL d   1     -50.286  11.291  23.578  0.00  0.00     0.002 A 
ATOM     18  C   UNL d   1     -50.810  11.919  23.698  0.00  0.00     0.000 A 
ATOM     19  C   UNL d   1     -50.556  12.691  23.570  0.00  0.00     0.002 A 
ATOM     20  C   UNL d   1     -49.391  13.540  23.157  0.00  0.00     0.027 A 
ENDBRANCH   1  12
BRANCH  10  21
ATOM     21  O   UNL d   1     -46.035  12.015  23.522  0.00  0.00    -0.302 OA
BRANCH  21  22
ATOM     22  C   UNL d   1     -45.476  11.560  23.142  0.00  0.00     0.165 C 
BRANCH  22  23
ATOM     23  C   UNL d   1     -45.287  10.814  23.428  0.00  0.00     0.220 C 
ATOM     24  O   UNL d   1     -45.886  10.314  23.692  0.00  0.00    -0.284 OA
ATOM     25  C   UNL d   1     -44.502  10.561  23.452  0.00  0.00     0.048 C 
ENDBRANCH  22  23
ENDBRANCH  21  22
ENDBRANCH  10  21
TORSDOF 4
ENDMDL
MODEL 4
REMARK VINA RESULT:      -5.6      8.055      9.957
REMARK  4 active torsions:
REMARK  status: ('A' for Active; 'I' for Inactive)
REMARK    1  A    between atoms: C_2  and  C_1 
REMARK    2  A    between atoms: O_18  and  C_16 
REMARK    3  A    between atoms: C_17  and  C_19 
REMARK    4  A    between atoms: C_19  and  O_18 
ROOT
ATOM      1  C   UNL d   1     -40.490  15.029  17.838  0.00  0.00     0.030 A 
ATOM      2  C   UNL d   1     -39.909  14.610  17.428  0.00  0.00     0.027 A 
ATOM      3  C   UNL d   1     -41.041  15.486  16.609  0.00  0.00     0.300 A 
ATOM      4  C   UNL d   1     -41.053  15.465  17.423  0.00  0.00     0.071 A 
ATOM      5  C   UNL d   1     -39.896  14.631  16.602  0.00  0.00     0.103 A 
ATOM      6  O   UNL d   1     -40.460  15.068  16.188  0.00  0.00    -0.273 OA
ATOM      7  C   UNL d   1     -39.336  14.167  17.843  0.00  0.00     0.027 A 
ATOM      8  O   UNL d   1     -41.605  15.922  16.200  0.00  0.00    -0.259 OA
ATOM      9  C   UNL d   1     -39.315  14.213  16.193  0.00  0.00     0.027 A 
ATOM     10  C   UNL d   1     -38.768  13.758  17.427  0.00  0.00     0.100 A 
ATOM     11  C   UNL d   1     -38.752  13.777  16.602  0.00  0.00     0.027 A 
ENDROOT
BRANCH   1  12
ATOM     12  C   UNL d   1     -40.498  15.004  18.674  0.00  0.00     0.100 A 
ATOM     13  O   UNL d   1     -40.871  14.441  19.144  0.00  0.00    -0.307 OA
ATOM     14  C   UNL d   1     -40.731  14.637  19.926  0.00  0.00     0.100 A 
ATOM     15  C   UNL d   1     -40.963  14.281  20.633  0.00  0.00     0.025 A 
ATOM     16  C   UNL d   1     -40.271  15.322  19.951  0.00  0.00     0.025 A 
ATOM     17  C   UNL d   1     -40.735  14.610  21.355  0.00  0.00     0.002 A 
ATOM     18  C   UNL d   1     -40.274  15.295  21.369  0.00  0.00     0.000 A 
ATOM     19  C   UNL d   1     -40.045  15.647  20.661  0.00  0.00     0.002 A 
ATOM     20  C   UNL d   1     -40.127  15.548  19.166  0.00  0.00     0.027 A 
ENDBRANCH   1  12
BRANCH  10  21
ATOM     21  O   UNL d   1     -38.200  13.318  17.841  0.00  0.00    -0.302 OA
BRANCH  21  22
ATOM     22  C   UNL d   1     -38.261  12.506  17.873  0.00  0.00     0.165 C 
BRANCH  22  23
ATOM     23  C   UNL d   1     -38.048  12.103  18.555  0.00  0.00     0.220 C 
ATOM     24  O   UNL d   1     -37.940  12.518  19.259  0.00  0.00    -0.284 OA
ATOM     25  C   UNL d   1     -37.942  11.284  18.542  0.00  0.00     0.048 C 
ENDBRANCH  22  23
ENDBRANCH  21  22
ENDBRANCH  10  21
TORSDOF 4
ENDMDL
MODEL 5
REMARK VINA RESULT:      -4.8      1.212      3.194
REMARK  4 active torsions:
REMARK  status: ('A' for Active; 'I' for Inactive)
REMARK    1  A    between atoms: C_2  and  C_1 
REMARK    2  A    between atoms: O_18  and  C_16 
REMARK    3  A    between atoms: C_17  and  C_19 
REMARK    4  A    between atoms: C_19  and  O_18 
ROOT
ATOM      1  C   UNL d   1     -48.968  14.146  22.762  0.00  0.00     0.030 A 
ATOM      2  C   UNL d   1     -48.199  14.434  22.677  0.00  0.00     0.027 A 
ATOM      3  C   UNL d   1     -49.493  15.425  22.426  0.00  0.00     0.300 A 
ATOM      4  C   UNL d   1     -49.611  14.647  22.635  0.00  0.00     0.071 A 
ATOM      5  C   UNL d   1     -48.079  15.224  22.465  0.00  0.00     0.103 A 
ATOM      6  O   UNL d   1     -48.723  15.723  22.339  0.00  0.00    -0.273 OA
ATOM      7  C   UNL d   1     -47.545  13.932  22.804  0.00  0.00     0.027 A 
ATOM      8  O   UNL d   1     -50.137  15.920  22.301  0.00  0.00    -0.259 OA
ATOM      9  C   UNL d   1     -47.311  15.511  22.381  0.00  0.00     0.027 A 
ATOM     10  C   UNL d   1     -46.791  14.228  22.718  0.00  0.00     0.100 A 
ATOM     11  C   UNL d   1     -46.667  15.016  22.506  0.00  0.00     0.027 A 
ENDROOT
BRANCH   1  12
ATOM     12  C   UNL d   1     -49.083  13.346  22.976  0.00  0.00     0.100 A 
ATOM     13  O   UNL d   1     -48.497  12.786  23.111  0.00  0.00    -0.307 OA
ATOM     14  C   UNL d   1     -48.865  12.082  23.306  0.00  0.00     0.100 A 
ATOM     15  C   UNL d   1     -48.565  11.337  23.496  0.00  0.00     0.025 A 
ATOM     16  C   UNL d   1     -49.683  12.197  23.295  0.00  0.00     0.025 A 
ATOM     17  C   UNL d   1     -49.081  10.717  23.673  0.00  0.00     0.002 A 
ATOM     18  C   UNL d   1     -49.898  10.843  23.659  0.00  0.00     0.000 A 
ATOM     19  C   UNL d   1     -50.192  11.587  23.469  0.00  0.00     0.002 A 
ATOM     20  C   UNL d   1     -49.815  12.988  23.089  0.00  0.00     0.027 A 
ENDBRANCH   1  12
BRANCH  10  21
ATOM     21  O   UNL d   1     -46.142  13.727  22.844  0.00  0.00    -0.302 OA
BRANCH  21  22
ATOM     22  C   UNL d   1     -45.665  13.516  22.218  0.00  0.00     0.165 C 
BRANCH  22  23
ATOM     23  C   UNL d   1     -45.100  12.928  22.309  0.00  0.00     0.220 C 
ATOM     24  O   UNL d   1     -45.142  12.417  22.954  0.00  0.00    -0.284 OA
ATOM     25  C   UNL d   1     -44.490  12.845  21.760  0.00  0.00     0.048 C 
ENDBRANCH  22  23
ENDBRANCH  21  22
ENDBRANCH  10  21
TORSDOF 4
ENDMDL
