MODEL 1
REMARK VINA RESULT:      -5.4      0.000      0.000
REMARK  2 active torsions:
REMARK  status: ('A' for Active; 'I' for Inactive)
REMARK    1  A    between atoms: C_6  and  C_1 
REMARK    2  A    between atoms: C_10  and  C_6 
ROOT
ATOM      1  C   UNL d   1     -41.205-122.402 -51.688  0.00  0.00     0.139 A 
ATOM      2  C   UNL d   1     -41.312-122.214 -53.009  0.00  0.00     0.064 A 
ATOM      3  C   UNL d   1     -41.222-121.830 -52.283  0.00  0.00     0.220 A 
ATOM      4  C   UNL d   1     -41.351-123.024 -52.864  0.00  0.00     0.106 A 
ATOM      5  O   UNL d   1     -41.284-123.136 -52.050  0.00  0.00    -0.304 OA
ATOM      6  C   UNL d   1     -41.440-123.558 -53.480  0.00  0.00     0.067 A 
ATOM      7  C   UNL d   1     -41.364-121.930 -53.779  0.00  0.00     0.009 A 
ATOM      8  O   UNL d   1     -41.160-121.013 -52.164  0.00  0.00    -0.284 OA
ATOM      9  C   UNL d   1     -41.492-123.278 -54.250  0.00  0.00     0.198 A 
ATOM     10  C   UNL d   1     -41.455-122.465 -54.403  0.00  0.00     0.042 A 
ATOM     11  O   UNL d   1     -41.584-123.817 -54.882  0.00  0.00    -0.286 OA
ENDROOT
BRANCH   1  12
ATOM     12  C   UNL d   1     -41.123-122.262 -50.881  0.00  0.00     0.028 C 
BRANCH  12  13
ATOM     13  C   UNL d   1     -41.623-122.653 -50.342  0.00  0.00     0.002 A 
ATOM     14  C   UNL d   1     -41.360-123.337 -49.965  0.00  0.00     0.001 A 
ATOM     15  C   UNL d   1     -41.850-123.728 -49.432  0.00  0.00     0.007 A 
ATOM     16  C   UNL d   1     -42.609-123.435 -49.271  0.00  0.00     0.035 A 
ATOM     17  C   UNL d   1     -42.873-122.747 -49.650  0.00  0.00     0.007 A 
ATOM     18 BR   UNL d   1     -43.107-123.816 -48.742  0.00  0.00    -0.049 Br
ATOM     19  C   UNL d   1     -42.376-122.356 -50.187  0.00  0.00     0.001 A 
ENDBRANCH  12  13
ENDBRANCH   1  12
TORSDOF 2
ENDMDL
MODEL 2
REMARK VINA RESULT:      -4.5      1.061      1.600
REMARK  2 active torsions:
REMARK  status: ('A' for Active; 'I' for Inactive)
REMARK    1  A    between atoms: C_6  and  C_1 
REMARK    2  A    between atoms: C_10  and  C_6 
ROOT
ATOM      1  C   UNL d   1     -41.401-122.396 -52.708  0.00  0.00     0.139 A 
ATOM      2  C   UNL d   1     -41.724-122.801 -53.942  0.00  0.00     0.064 A 
ATOM      3  C   UNL d   1     -41.401-123.043 -53.221  0.00  0.00     0.220 A 
ATOM      4  C   UNL d   1     -41.924-122.005 -53.876  0.00  0.00     0.106 A 
ATOM      5  O   UNL d   1     -41.724-121.759 -53.114  0.00  0.00    -0.304 OA
ATOM      6  C   UNL d   1     -42.261-121.602 -54.506  0.00  0.00     0.067 A 
ATOM      7  C   UNL d   1     -41.860-123.204 -54.646  0.00  0.00     0.009 A 
ATOM      8  O   UNL d   1     -41.123-123.801 -53.037  0.00  0.00    -0.284 OA
ATOM      9  C   UNL d   1     -42.398-122.000 -55.210  0.00  0.00     0.198 A 
ATOM     10  C   UNL d   1     -42.199-122.801 -55.284  0.00  0.00     0.042 A 
ATOM     11  O   UNL d   1     -42.741-121.594 -55.855  0.00  0.00    -0.286 OA
ENDROOT
BRANCH   1  12
ATOM     12  C   UNL d   1     -41.127-122.392 -51.931  0.00  0.00     0.028 C 
BRANCH  12  13
ATOM     13  C   UNL d   1     -41.667-122.478 -51.303  0.00  0.00     0.002 A 
ATOM     14  C   UNL d   1     -41.657-123.165 -50.848  0.00  0.00     0.001 A 
ATOM     15  C   UNL d   1     -42.188-123.255 -50.226  0.00  0.00     0.007 A 
ATOM     16  C   UNL d   1     -42.736-122.656 -50.056  0.00  0.00     0.035 A 
ATOM     17  C   UNL d   1     -42.747-121.967 -50.514  0.00  0.00     0.007 A 
ATOM     18 BR   UNL d   1     -43.271-122.736 -49.439  0.00  0.00    -0.049 Br
ATOM     19  C   UNL d   1     -42.210-121.879 -51.139  0.00  0.00     0.001 A 
ENDBRANCH  12  13
ENDBRANCH   1  12
TORSDOF 2
ENDMDL
MODEL 3
REMARK VINA RESULT:      -4.3      1.930      3.914
REMARK  2 active torsions:
REMARK  status: ('A' for Active; 'I' for Inactive)
REMARK    1  A    between atoms: C_6  and  C_1 
REMARK    2  A    between atoms: C_10  and  C_6 
ROOT
ATOM      1  C   UNL d   1     -41.505-122.258 -52.057  0.00  0.00     0.139 A 
ATOM      2  C   UNL d   1     -41.961-122.221 -50.800  0.00  0.00     0.064 A 
ATOM      3  C   UNL d   1     -41.516-121.812 -51.362  0.00  0.00     0.220 A 
ATOM      4  C   UNL d   1     -42.226-122.921 -51.145  0.00  0.00     0.106 A 
ATOM      5  O   UNL d   1     -41.943-122.940 -51.920  0.00  0.00    -0.304 OA
ATOM      6  C   UNL d   1     -42.687-123.451 -50.723  0.00  0.00     0.067 A 
ATOM      7  C   UNL d   1     -42.158-122.047 -50.020  0.00  0.00     0.009 A 
ATOM      8  O   UNL d   1     -41.142-121.081 -51.256  0.00  0.00    -0.284 OA
ATOM      9  C   UNL d   1     -42.885-123.280 -49.945  0.00  0.00     0.198 A 
ATOM     10  C   UNL d   1     -42.623-122.580 -49.590  0.00  0.00     0.042 A 
ATOM     11  O   UNL d   1     -43.355-123.817 -49.510  0.00  0.00    -0.286 OA
ENDROOT
BRANCH   1  12
ATOM     12  C   UNL d   1     -41.124-122.055 -52.759  0.00  0.00     0.028 C 
BRANCH  12  13
ATOM     13  C   UNL d   1     -41.516-122.161 -53.486  0.00  0.00     0.002 A 
ATOM     14  C   UNL d   1     -41.404-122.857 -53.912  0.00  0.00     0.001 A 
ATOM     15  C   UNL d   1     -41.789-122.967 -54.631  0.00  0.00     0.007 A 
ATOM     16  C   UNL d   1     -42.291-122.377 -54.929  0.00  0.00     0.035 A 
ATOM     17  C   UNL d   1     -42.403-121.678 -54.501  0.00  0.00     0.007 A 
ATOM     18 BR   UNL d   1     -42.680-122.476 -55.644  0.00  0.00    -0.049 Br
ATOM     19  C   UNL d   1     -42.014-121.571 -53.776  0.00  0.00     0.001 A 
ENDBRANCH  12  13
ENDBRANCH   1  12
TORSDOF 2
ENDMDL
MODEL 4
REMARK VINA RESULT:      -3.3      1.921      4.053
REMARK  2 active torsions:
REMARK  status: ('A' for Active; 'I' for Inactive)
REMARK    1  A    between atoms: C_6  and  C_1 
REMARK    2  A    between atoms: C_10  and  C_6 
ROOT
ATOM      1  C   UNL d   1     -41.834-122.178 -50.902  0.00  0.00     0.139 A 
ATOM      2  C   UNL d   1     -42.507-122.547 -49.806  0.00  0.00     0.064 A 
ATOM      3  C   UNL d   1     -42.568-122.149 -50.528  0.00  0.00     0.220 A 
ATOM      4  C   UNL d   1     -41.733-122.822 -49.733  0.00  0.00     0.106 A 
ATOM      5  O   UNL d   1     -41.322-122.593 -50.410  0.00  0.00    -0.304 OA
ATOM      6  C   UNL d   1     -41.497-123.242 -49.070  0.00  0.00     0.067 A 
ATOM      7  C   UNL d   1     -43.054-122.692 -49.209  0.00  0.00     0.009 A 
ATOM      8  O   UNL d   1     -43.247-121.782 -50.830  0.00  0.00    -0.284 OA
ATOM      9  C   UNL d   1     -42.040-123.389 -48.473  0.00  0.00     0.198 A 
ATOM     10  C   UNL d   1     -42.819-123.116 -48.539  0.00  0.00     0.042 A 
ATOM     11  O   UNL d   1     -41.804-123.817 -47.795  0.00  0.00    -0.286 OA
ENDROOT
BRANCH   1  12
ATOM     12  C   UNL d   1     -41.648-121.850 -51.635  0.00  0.00     0.028 C 
BRANCH  12  13
ATOM     13  C   UNL d   1     -41.573-122.345 -52.301  0.00  0.00     0.002 A 
ATOM     14  C   UNL d   1     -41.876-122.101 -53.027  0.00  0.00     0.001 A 
ATOM     15  C   UNL d   1     -41.804-122.586 -53.687  0.00  0.00     0.007 A 
ATOM     16  C   UNL d   1     -41.427-123.322 -53.625  0.00  0.00     0.035 A 
ATOM     17  C   UNL d   1     -41.123-123.568 -52.895  0.00  0.00     0.007 A 
ATOM     18 BR   UNL d   1     -41.350-123.814 -54.277  0.00  0.00    -0.049 Br
ATOM     19  C   UNL d   1     -41.197-123.076 -52.231  0.00  0.00     0.001 A 
ENDBRANCH  12  13
ENDBRANCH   1  12
TORSDOF 2
ENDMDL
