MODEL 1
REMARK VINA RESULT:      18.4      0.000      0.000
REMARK  4 active torsions:
REMARK  status: ('A' for Active; 'I' for Inactive)
REMARK    1  A    between atoms: P_2  and  C_1 
REMARK    2  A    between atoms: N_3  and  C_1 
REMARK    3  A    between atoms: C_5  and  C_1 
REMARK       I    between atoms: C_4  and  N_3 
REMARK    4  A    between atoms: C_6  and  C_4 
ROOT
ATOM      1  C   UNL d   1     -51.614  25.680  33.534  0.00  0.00     0.196 C 
ENDROOT
BRANCH   1   2
ATOM      2  P   UNL d   1     -50.777  25.749  33.466  0.00  0.00     0.317 P 
ATOM      3  O   UNL d   1     -50.694  24.927  33.481  0.00  0.00    -0.635 OA
ATOM      4  O   UNL d   1     -49.943  25.847  33.398  0.00  0.00    -0.635 OA
ATOM      5  O   UNL d   1     -50.867  26.597  33.451  0.00  0.00    -0.635 OA
ENDBRANCH   1   2
BRANCH   1   6
ATOM      6  N   UNL d   1     -52.026  24.988  33.306  0.00  0.00    -0.201 NA
ATOM      7  C   UNL d   1     -52.496  24.595  33.842  0.00  0.00     0.255 C 
ATOM      8  O   UNL d   1     -52.559  24.887  34.605  0.00  0.00    -0.270 OA
BRANCH   7   9
ATOM      9  C   UNL d   1     -52.893  23.924  33.614  0.00  0.00     0.073 C 
ATOM     10  C   UNL d   1     -53.715  23.892  33.688  0.00  0.00     0.009 C 
ATOM     11  C   UNL d   1     -52.473  23.276  33.310  0.00  0.00     0.009 C 
ATOM     12  C   UNL d   1     -53.366  23.193  33.371  0.00  0.00     0.009 C 
ENDBRANCH   7   9
ENDBRANCH   1   6
BRANCH   1  13
ATOM     13  C   UNL d   1     -52.043  26.313  33.836  0.00  0.00     0.142 C 
ATOM     14 CL   UNL d   1     -52.759  26.392  33.543  0.00  0.00    -0.068 Cl
ATOM     15 CL   UNL d   1     -51.682  26.831  34.437  0.00  0.00    -0.068 Cl
ENDBRANCH   1  13
TORSDOF 4
ENDMDL
