MODEL 1
REMARK VINA RESULT:      -4.0      0.000      0.000
REMARK  3 active torsions:
REMARK  status: ('A' for Active; 'I' for Inactive)
REMARK    1  A    between atoms: C_10  and  C_5 
REMARK    2  A    between atoms: C_16  and  C_10 
REMARK    3  A    between atoms: C_17  and  C_16 
ROOT
ATOM      1  C   UNL d   1      58.911   0.677  32.099  0.00  0.00     0.111 A 
ATOM      2  C   UNL d   1      58.387   0.672  30.757  0.00  0.00     0.062 A 
ATOM      3  C   UNL d   1      59.716   0.678  31.736  0.00  0.00     0.213 A 
ATOM      4  C   UNL d   1      59.122   0.673  30.447  0.00  0.00     0.101 A 
ATOM      5  C   UNL d   1      58.281   0.674  31.586  0.00  0.00     0.018 A 
ATOM      6  O   UNL d   1      59.785   0.676  30.936  0.00  0.00    -0.288 OA
ATOM      7  C   UNL d   1      57.714   0.669  30.267  0.00  0.00     0.194 A 
ATOM      8  C   UNL d   1      58.807   0.678  32.916  0.00  0.00     0.105 C 
ATOM      9  N   UNL d   1      58.680   0.680  33.737  0.00  0.00    -0.191 NA
ATOM     10  C   UNL d   1      59.227   0.671  29.629  0.00  0.00     0.002 A 
ATOM     11  C   UNL d   1      58.597   0.668  29.117  0.00  0.00     0.042 A 
ATOM     12  C   UNL d   1      57.794   0.667  29.469  0.00  0.00     0.019 A 
ATOM     13  O   UNL d   1      56.924   0.668  30.604  0.00  0.00    -0.287 OA
ATOM     14  N   UNL d   1      60.431   0.680  32.209  0.00  0.00    -0.120 N 
ATOM     15  C   UNL d   1      59.108   0.668  28.457  0.00  0.00     0.009 C 
ATOM     16  C   UNL d   1      58.076   0.666  28.489  0.00  0.00     0.009 C 
ENDROOT
BRANCH   5  17
ATOM     17  C   UNL d   1      57.500   0.673  31.941  0.00  0.00     0.001 C 
BRANCH  17  18
ATOM     18  C   UNL d   1      57.025   0.004  31.862  0.00  0.00     0.000 C 
BRANCH  18  19
ATOM     19  C   UNL d   1      56.389  -0.076  32.380  0.00  0.00     0.000 A 
ATOM     20  C   UNL d   1      56.207  -0.839  32.661  0.00  0.00     0.000 A 
ATOM     21  C   UNL d   1      55.580  -0.932  33.174  0.00  0.00     0.000 A 
ATOM     22  C   UNL d   1      55.128  -0.279  33.414  0.00  0.00     0.000 A 
ATOM     23  C   UNL d   1      55.309   0.483  33.134  0.00  0.00     0.000 A 
ATOM     24  C   UNL d   1      55.934   0.582  32.622  0.00  0.00     0.000 A 
ENDBRANCH  18  19
ENDBRANCH  17  18
ENDBRANCH   5  17
TORSDOF 3
ENDMDL
MODEL 2
REMARK VINA RESULT:      -2.7      1.416      3.955
REMARK  3 active torsions:
REMARK  status: ('A' for Active; 'I' for Inactive)
REMARK    1  A    between atoms: C_10  and  C_5 
REMARK    2  A    between atoms: C_16  and  C_10 
REMARK    3  A    between atoms: C_17  and  C_16 
ROOT
ATOM      1  C   UNL d   1      57.854   0.679  33.599  0.00  0.00     0.111 A 
ATOM      2  C   UNL d   1      56.424   0.678  33.432  0.00  0.00     0.062 A 
ATOM      3  C   UNL d   1      57.707   0.677  34.469  0.00  0.00     0.213 A 
ATOM      4  C   UNL d   1      56.310   0.676  34.222  0.00  0.00     0.101 A 
ATOM      5  C   UNL d   1      57.198   0.679  33.119  0.00  0.00     0.018 A 
ATOM      6  O   UNL d   1      56.951   0.676  34.738  0.00  0.00    -0.288 OA
ATOM      7  C   UNL d   1      55.779   0.678  32.905  0.00  0.00     0.194 A 
ATOM      8  C   UNL d   1      58.619   0.681  33.291  0.00  0.00     0.105 C 
ATOM      9  N   UNL d   1      59.380   0.682  32.960  0.00  0.00    -0.191 NA
ATOM     10  C   UNL d   1      55.545   0.675  34.530  0.00  0.00     0.002 A 
ATOM     11  C   UNL d   1      54.890   0.675  34.050  0.00  0.00     0.042 A 
ATOM     12  C   UNL d   1      55.027   0.677  33.184  0.00  0.00     0.019 A 
ATOM     13  O   UNL d   1      55.905   0.680  32.055  0.00  0.00    -0.287 OA
ATOM     14  N   UNL d   1      58.346   0.677  35.041  0.00  0.00    -0.120 N 
ATOM     15  C   UNL d   1      54.381   0.674  34.711  0.00  0.00     0.009 C 
ATOM     16  C   UNL d   1      54.150   0.675  33.706  0.00  0.00     0.009 C 
ENDROOT
BRANCH   5  17
ATOM     17  C   UNL d   1      57.345   0.681  32.273  0.00  0.00     0.001 C 
BRANCH  17  18
ATOM     18  C   UNL d   1      57.171   0.005  31.836  0.00  0.00     0.000 C 
BRANCH  18  19
ATOM     19  C   UNL d   1      57.491  -0.053  31.078  0.00  0.00     0.000 A 
ATOM     20  C   UNL d   1      57.658  -0.812  30.781  0.00  0.00     0.000 A 
ATOM     21  C   UNL d   1      57.975  -0.884  30.033  0.00  0.00     0.000 A 
ATOM     22  C   UNL d   1      58.130  -0.210  29.573  0.00  0.00     0.000 A 
ATOM     23  C   UNL d   1      57.963   0.549  29.870  0.00  0.00     0.000 A 
ATOM     24  C   UNL d   1      57.647   0.625  30.615  0.00  0.00     0.000 A 
ENDBRANCH  18  19
ENDBRANCH  17  18
ENDBRANCH   5  17
TORSDOF 3
ENDMDL
