MODEL 1
REMARK VINA RESULT:      16.4      0.000      0.000
REMARK  3 active torsions:
REMARK  status: ('A' for Active; 'I' for Inactive)
REMARK    1  A    between atoms: C_2  and  N_1 
REMARK    2  A    between atoms: C_4  and  N_1 
REMARK    3  A    between atoms: C_3  and  C_2 
ROOT
ATOM      1  N   UNL d   1     -51.046  25.236  33.317  0.00  0.00    -0.182 N 
ATOM      2  O   UNL d   1     -50.278  24.931  33.323  0.00  0.00    -0.080 OA
ENDROOT
BRANCH   1   3
ATOM      3  C   UNL d   1     -51.163  26.053  33.306  0.00  0.00     0.133 C 
BRANCH   3   4
ATOM      4  C   UNL d   1     -50.581  26.557  33.595  0.00  0.00     0.120 A 
ATOM      5  O   UNL d   1     -49.872  26.410  34.001  0.00  0.00    -0.304 OA
ATOM      6  C   UNL d   1     -49.508  27.140  34.152  0.00  0.00     0.123 A 
ATOM      7  C   UNL d   1     -49.991  27.739  33.840  0.00  0.00     0.029 A 
ATOM      8  C   UNL d   1     -50.649  27.377  33.499  0.00  0.00     0.028 A 
ENDBRANCH   3   4
ENDBRANCH   1   3
BRANCH   1   9
ATOM      9  C   UNL d   1     -51.706  24.716  33.320  0.00  0.00     0.090 A 
ATOM     10  C   UNL d   1     -52.460  25.033  33.317  0.00  0.00     0.021 A 
ATOM     11  C   UNL d   1     -53.114  24.517  33.321  0.00  0.00     0.013 A 
ATOM     12  C   UNL d   1     -52.992  23.701  33.328  0.00  0.00     0.058 A 
ATOM     13  C   UNL d   1     -52.228  23.394  33.331  0.00  0.00     0.013 A 
ATOM     14 CL   UNL d   1     -53.635  23.194  33.331  0.00  0.00    -0.082 Cl
ATOM     15  C   UNL d   1     -51.574  23.910  33.327  0.00  0.00     0.021 A 
ENDBRANCH   1   9
TORSDOF 3
ENDMDL
