MODEL 1
REMARK VINA RESULT:      -4.2      0.000      0.000
REMARK  3 active torsions:
REMARK  status: ('A' for Active; 'I' for Inactive)
REMARK    1  A    between atoms: N_3  and  S_1 
REMARK    2  A    between atoms: C_11  and  S_1 
REMARK    3  A    between atoms: C_2  and  N_3 
ROOT
ATOM      1  C   UNL d   1     -41.545-123.018 -51.439  0.00  0.00     0.095 A 
ATOM      2  C   UNL d   1     -41.430-123.088 -52.262  0.00  0.00     0.032 A 
ATOM      3  C   UNL d   1     -41.293-122.423 -52.703  0.00  0.00     0.098 A 
ATOM      4  C   UNL d   1     -41.265-121.676 -52.345  0.00  0.00     0.206 A 
ATOM      5  C   UNL d   1     -41.377-121.607 -51.538  0.00  0.00     0.041 A 
ATOM      6  C   UNL d   1     -41.517-122.267 -51.080  0.00  0.00     0.023 A 
ATOM      7 CL   UNL d   1     -41.178-122.493 -53.526  0.00  0.00    -0.079 Cl
ATOM      8  O   UNL d   1     -41.123-121.014 -52.823  0.00  0.00    -0.286 OA
ATOM      9  C   UNL d   1     -41.454-123.817 -52.634  0.00  0.00     0.003 C 
ATOM     10  C   UNL d   1     -41.349-120.852 -51.182  0.00  0.00     0.003 C 
ENDROOT
BRANCH   1  11
ATOM     11  N   UNL d   1     -41.684-123.681 -50.981  0.00  0.00    -0.158 NA
BRANCH  11  12
ATOM     12  S   UNL d   1     -41.910-123.603 -50.199  0.00  0.00     0.285 S 
ATOM     13  O   UNL d   1     -42.688-123.454 -50.417  0.00  0.00    -0.198 OA
ATOM     14  O   UNL d   1     -41.123-123.752 -49.946  0.00  0.00    -0.198 OA
BRANCH  12  15
ATOM     15  C   UNL d   1     -42.131-123.524 -49.388  0.00  0.00     0.105 A 
ATOM     16  C   UNL d   1     -42.848-123.209 -49.169  0.00  0.00     0.013 A 
ATOM     17  C   UNL d   1     -43.062-123.133 -48.381  0.00  0.00     0.001 A 
ATOM     18  C   UNL d   1     -42.537-123.383 -47.789  0.00  0.00     0.000 A 
ATOM     19  C   UNL d   1     -41.819-123.698 -48.007  0.00  0.00     0.001 A 
ATOM     20  C   UNL d   1     -41.607-123.773 -48.801  0.00  0.00     0.013 A 
ENDBRANCH  12  15
ENDBRANCH  11  12
ENDBRANCH   1  11
TORSDOF 3
ENDMDL
MODEL 2
REMARK VINA RESULT:      -4.0      1.707      3.789
REMARK  3 active torsions:
REMARK  status: ('A' for Active; 'I' for Inactive)
REMARK    1  A    between atoms: N_3  and  S_1 
REMARK    2  A    between atoms: C_11  and  S_1 
REMARK    3  A    between atoms: C_2  and  N_3 
ROOT
ATOM      1  C   UNL d   1     -41.770-122.844 -50.707  0.00  0.00     0.095 A 
ATOM      2  C   UNL d   1     -41.768-123.327 -50.027  0.00  0.00     0.032 A 
ATOM      3  C   UNL d   1     -42.416-123.333 -49.541  0.00  0.00     0.098 A 
ATOM      4  C   UNL d   1     -43.079-122.866 -49.714  0.00  0.00     0.206 A 
ATOM      5  C   UNL d   1     -43.080-122.393 -50.380  0.00  0.00     0.041 A 
ATOM      6  C   UNL d   1     -42.436-122.375 -50.879  0.00  0.00     0.023 A 
ATOM      7 CL   UNL d   1     -42.414-123.816 -48.862  0.00  0.00    -0.079 Cl
ATOM      8  O   UNL d   1     -43.726-122.894 -49.198  0.00  0.00    -0.286 OA
ATOM      9  C   UNL d   1     -41.123-123.796 -49.840  0.00  0.00     0.003 C 
ATOM     10  C   UNL d   1     -43.750-121.924 -50.549  0.00  0.00     0.003 C 
ENDROOT
BRANCH   1  11
ATOM     11  N   UNL d   1     -41.123-122.828 -51.206  0.00  0.00    -0.158 NA
BRANCH  11  12
ATOM     12  S   UNL d   1     -41.224-122.889 -52.015  0.00  0.00     0.285 S 
ATOM     13  O   UNL d   1     -41.313-123.705 -51.963  0.00  0.00    -0.198 OA
ATOM     14  O   UNL d   1     -41.136-122.058 -52.101  0.00  0.00    -0.198 OA
BRANCH  12  15
ATOM     15  C   UNL d   1     -41.327-122.941 -52.852  0.00  0.00     0.105 A 
ATOM     16  C   UNL d   1     -41.459-122.280 -53.308  0.00  0.00     0.013 A 
ATOM     17  C   UNL d   1     -41.559-122.331 -54.120  0.00  0.00     0.001 A 
ATOM     18  C   UNL d   1     -41.525-123.073 -54.490  0.00  0.00     0.000 A 
ATOM     19  C   UNL d   1     -41.393-123.734 -54.035  0.00  0.00     0.001 A 
ATOM     20  C   UNL d   1     -41.292-123.680 -53.218  0.00  0.00     0.013 A 
ENDBRANCH  12  15
ENDBRANCH  11  12
ENDBRANCH   1  11
TORSDOF 3
ENDMDL
MODEL 3
REMARK VINA RESULT:      -3.6      1.658      2.195
REMARK  3 active torsions:
REMARK  status: ('A' for Active; 'I' for Inactive)
REMARK    1  A    between atoms: N_3  and  S_1 
REMARK    2  A    between atoms: C_11  and  S_1 
REMARK    3  A    between atoms: C_2  and  N_3 
ROOT
ATOM      1  C   UNL d   1     -41.496-122.701 -53.347  0.00  0.00     0.095 A 
ATOM      2  C   UNL d   1     -41.501-123.091 -54.084  0.00  0.00     0.032 A 
ATOM      3  C   UNL d   1     -41.875-122.746 -54.715  0.00  0.00     0.098 A 
ATOM      4  C   UNL d   1     -42.251-122.012 -54.634  0.00  0.00     0.206 A 
ATOM      5  C   UNL d   1     -42.245-121.630 -53.911  0.00  0.00     0.041 A 
ATOM      6  C   UNL d   1     -41.874-121.963 -53.267  0.00  0.00     0.023 A 
ATOM      7 CL   UNL d   1     -41.880-123.136 -55.451  0.00  0.00    -0.079 Cl
ATOM      8  O   UNL d   1     -42.624-121.685 -55.297  0.00  0.00    -0.286 OA
ATOM      9  C   UNL d   1     -41.136-123.817 -54.184  0.00  0.00     0.003 C 
ATOM     10  C   UNL d   1     -42.625-120.890 -53.835  0.00  0.00     0.003 C 
ENDROOT
BRANCH   1  11
ATOM     11  N   UNL d   1     -41.123-123.038 -52.702  0.00  0.00    -0.158 NA
BRANCH  11  12
ATOM     12  S   UNL d   1     -41.484-123.036 -51.969  0.00  0.00     0.285 S 
ATOM     13  O   UNL d   1     -41.842-123.760 -52.121  0.00  0.00    -0.198 OA
ATOM     14  O   UNL d   1     -41.132-122.296 -51.784  0.00  0.00    -0.198 OA
BRANCH  12  15
ATOM     15  C   UNL d   1     -41.852-123.023 -51.209  0.00  0.00     0.105 A 
ATOM     16  C   UNL d   1     -41.857-122.353 -50.747  0.00  0.00     0.013 A 
ATOM     17  C   UNL d   1     -42.215-122.342 -50.009  0.00  0.00     0.001 A 
ATOM     18  C   UNL d   1     -42.582-123.029 -49.723  0.00  0.00     0.000 A 
ATOM     19  C   UNL d   1     -42.577-123.699 -50.184  0.00  0.00     0.001 A 
ATOM     20  C   UNL d   1     -42.216-123.708 -50.926  0.00  0.00     0.013 A 
ENDBRANCH  12  15
ENDBRANCH  11  12
ENDBRANCH   1  11
TORSDOF 3
ENDMDL
MODEL 4
REMARK VINA RESULT:      -3.5      2.108      4.174
REMARK  3 active torsions:
REMARK  status: ('A' for Active; 'I' for Inactive)
REMARK    1  A    between atoms: N_3  and  S_1 
REMARK    2  A    between atoms: C_11  and  S_1 
REMARK    3  A    between atoms: C_2  and  N_3 
ROOT
ATOM      1  C   UNL d   1     -41.268-122.591 -52.273  0.00  0.00     0.095 A 
ATOM      2  C   UNL d   1     -41.531-123.007 -51.600  0.00  0.00     0.032 A 
ATOM      3  C   UNL d   1     -41.666-122.602 -50.911  0.00  0.00     0.098 A 
ATOM      4  C   UNL d   1     -41.547-121.783 -50.870  0.00  0.00     0.206 A 
ATOM      5  C   UNL d   1     -41.290-121.377 -51.531  0.00  0.00     0.041 A 
ATOM      6  C   UNL d   1     -41.149-121.769 -52.231  0.00  0.00     0.023 A 
ATOM      7 CL   UNL d   1     -41.928-123.018 -50.237  0.00  0.00    -0.079 Cl
ATOM      8  O   UNL d   1     -41.694-121.398 -50.152  0.00  0.00    -0.286 OA
ATOM      9  C   UNL d   1     -41.655-123.816 -51.619  0.00  0.00     0.003 C 
ATOM     10  C   UNL d   1     -41.171-120.552 -51.485  0.00  0.00     0.003 C 
ENDROOT
BRANCH   1  11
ATOM     11  N   UNL d   1     -41.128-122.987 -52.975  0.00  0.00    -0.158 NA
BRANCH  11  12
ATOM     12  S   UNL d   1     -41.484-122.738 -53.668  0.00  0.00     0.285 S 
ATOM     13  O   UNL d   1     -41.139-121.995 -53.603  0.00  0.00    -0.198 OA
ATOM     14  O   UNL d   1     -41.852-123.487 -53.762  0.00  0.00    -0.198 OA
BRANCH  12  15
ATOM     15  C   UNL d   1     -41.858-122.491 -54.384  0.00  0.00     0.105 A 
ATOM     16  C   UNL d   1     -42.597-122.758 -54.594  0.00  0.00     0.013 A 
ATOM     17  C   UNL d   1     -42.959-122.518 -55.290  0.00  0.00     0.001 A 
ATOM     18  C   UNL d   1     -42.565-121.991 -55.795  0.00  0.00     0.000 A 
ATOM     19  C   UNL d   1     -41.825-121.724 -55.586  0.00  0.00     0.001 A 
ATOM     20  C   UNL d   1     -41.464-121.967 -54.885  0.00  0.00     0.013 A 
ENDBRANCH  12  15
ENDBRANCH  11  12
ENDBRANCH   1  11
TORSDOF 3
ENDMDL
