MODEL 1
REMARK VINA RESULT:      -3.3      0.000      0.000
REMARK  3 active torsions:
REMARK  status: ('A' for Active; 'I' for Inactive)
REMARK    1  A    between atoms: C_2  and  S_1 
REMARK    2  A    between atoms: N_3  and  S_1 
REMARK    3  A    between atoms: C_9  and  N_3 
ROOT
ATOM      1  S   UNL d   1      32.058  17.191 -24.220  0.00  0.00     0.285 S 
ATOM      2  O   UNL d   1      32.178  17.242 -25.029  0.00  0.00    -0.198 OA
ATOM      3  O   UNL d   1      31.933  17.138 -23.406  0.00  0.00    -0.198 OA
ENDROOT
BRANCH   1   4
ATOM      4  C   UNL d   1      31.290  16.915 -24.353  0.00  0.00     0.105 A 
ATOM      5  C   UNL d   1      30.667  17.447 -24.429  0.00  0.00     0.013 A 
ATOM      6  C   UNL d   1      29.906  17.177 -24.561  0.00  0.00     0.001 A 
ATOM      7  C   UNL d   1      29.278  17.711 -24.637  0.00  0.00     0.000 C 
ATOM      8  C   UNL d   1      29.757  16.366 -24.618  0.00  0.00     0.000 A 
ATOM      9  C   UNL d   1      30.382  15.830 -24.542  0.00  0.00     0.001 A 
ATOM     10  C   UNL d   1      28.991  16.085 -24.751  0.00  0.00     0.000 C 
ATOM     11  C   UNL d   1      31.151  16.104 -24.409  0.00  0.00     0.012 A 
ATOM     12  C   UNL d   1      31.771  15.569 -24.334  0.00  0.00     0.001 C 
ENDBRANCH   1   4
BRANCH   1  13
ATOM     13  N   UNL d   1      32.825  17.467 -24.084  0.00  0.00    -0.159 NA
BRANCH  13  14
ATOM     14  C   UNL d   1      32.948  18.253 -23.891  0.00  0.00     0.089 A 
ATOM     15  C   UNL d   1      33.011  18.823 -24.486  0.00  0.00     0.015 A 
ATOM     16  C   UNL d   1      33.134  19.611 -24.296  0.00  0.00     0.100 A 
ATOM     17  C   UNL d   1      33.241  20.390 -24.533  0.00  0.00     0.029 C 
ATOM     18  C   UNL d   1      33.134  19.800 -25.097  0.00  0.00     0.029 C 
ATOM     19  N   UNL d   1      33.195  19.836 -23.510  0.00  0.00    -0.295 NA
ATOM     20  C   UNL d   1      33.133  19.275 -22.911  0.00  0.00     0.100 A 
ATOM     21  C   UNL d   1      33.010  18.486 -23.102  0.00  0.00     0.015 A 
ATOM     22  C   UNL d   1      33.132  19.080 -22.110  0.00  0.00     0.029 C 
ATOM     23  C   UNL d   1      33.240  19.868 -22.345  0.00  0.00     0.029 C 
ENDBRANCH  13  14
ENDBRANCH   1  13
TORSDOF 3
ENDMDL
MODEL 2
REMARK VINA RESULT:      -2.7      0.533      1.402
REMARK  3 active torsions:
REMARK  status: ('A' for Active; 'I' for Inactive)
REMARK    1  A    between atoms: C_2  and  S_1 
REMARK    2  A    between atoms: N_3  and  S_1 
REMARK    3  A    between atoms: C_9  and  N_3 
ROOT
ATOM      1  S   UNL d   1      32.506  17.565 -24.157  0.00  0.00     0.285 S 
ATOM      2  O   UNL d   1      32.548  17.655 -24.970  0.00  0.00    -0.198 OA
ATOM      3  O   UNL d   1      32.460  17.474 -23.337  0.00  0.00    -0.198 OA
ENDROOT
BRANCH   1   4
ATOM      4  C   UNL d   1      31.788  17.163 -24.239  0.00  0.00     0.105 A 
ATOM      5  C   UNL d   1      31.113  17.568 -24.480  0.00  0.00     0.013 A 
ATOM      6  C   UNL d   1      30.402  17.172 -24.562  0.00  0.00     0.001 A 
ATOM      7  C   UNL d   1      29.721  17.578 -24.805  0.00  0.00     0.000 C 
ATOM      8  C   UNL d   1      30.355  16.363 -24.403  0.00  0.00     0.000 A 
ATOM      9  C   UNL d   1      31.032  15.956 -24.161  0.00  0.00     0.001 A 
ATOM     10  C   UNL d   1      29.640  15.957 -24.484  0.00  0.00     0.000 C 
ATOM     11  C   UNL d   1      31.751  16.355 -24.078  0.00  0.00     0.012 A 
ATOM     12  C   UNL d   1      32.423  15.948 -23.837  0.00  0.00     0.001 C 
ENDBRANCH   1   4
BRANCH   1  13
ATOM     13  N   UNL d   1      33.224  17.967 -24.072  0.00  0.00    -0.159 NA
BRANCH  13  14
ATOM     14  C   UNL d   1      33.228  18.744 -23.812  0.00  0.00     0.089 A 
ATOM     15  C   UNL d   1      33.230  18.912 -23.003  0.00  0.00     0.015 A 
ATOM     16  C   UNL d   1      33.234  19.688 -22.740  0.00  0.00     0.100 A 
ATOM     17  C   UNL d   1      33.238  20.228 -22.120  0.00  0.00     0.029 C 
ATOM     18  C   UNL d   1      33.234  19.421 -21.961  0.00  0.00     0.029 C 
ATOM     19  N   UNL d   1      33.237  20.303 -23.282  0.00  0.00    -0.295 NA
ATOM     20  C   UNL d   1      33.235  20.145 -24.089  0.00  0.00     0.100 A 
ATOM     21  C   UNL d   1      33.231  19.367 -24.353  0.00  0.00     0.015 A 
ATOM     22  C   UNL d   1      33.236  20.408 -24.871  0.00  0.00     0.029 C 
ATOM     23  C   UNL d   1      33.240  20.956 -24.249  0.00  0.00     0.029 C 
ENDBRANCH  13  14
ENDBRANCH   1  13
TORSDOF 3
ENDMDL
MODEL 3
REMARK VINA RESULT:      -2.0      1.066      4.124
REMARK  3 active torsions:
REMARK  status: ('A' for Active; 'I' for Inactive)
REMARK    1  A    between atoms: C_2  and  S_1 
REMARK    2  A    between atoms: N_3  and  S_1 
REMARK    3  A    between atoms: C_9  and  N_3 
ROOT
ATOM      1  S   UNL d   1      32.709  18.311 -23.898  0.00  0.00     0.285 S 
ATOM      2  O   UNL d   1      33.209  17.924 -23.378  0.00  0.00    -0.198 OA
ATOM      3  O   UNL d   1      32.205  18.705 -24.421  0.00  0.00    -0.198 OA
ENDROOT
BRANCH   1   4
ATOM      4  C   UNL d   1      32.842  19.021 -23.497  0.00  0.00     0.105 A 
ATOM      5  C   UNL d   1      32.746  19.059 -22.680  0.00  0.00     0.013 A 
ATOM      6  C   UNL d   1      32.877  19.760 -22.280  0.00  0.00     0.001 A 
ATOM      7  C   UNL d   1      32.780  19.799 -21.458  0.00  0.00     0.000 C 
ATOM      8  C   UNL d   1      33.107  20.437 -22.693  0.00  0.00     0.000 A 
ATOM      9  C   UNL d   1      33.204  20.401 -23.513  0.00  0.00     0.001 A 
ATOM     10  C   UNL d   1      33.241  21.150 -22.296  0.00  0.00     0.000 C 
ATOM     11  C   UNL d   1      33.071  19.692 -23.918  0.00  0.00     0.012 A 
ATOM     12  C   UNL d   1      33.168  19.659 -24.733  0.00  0.00     0.001 C 
ENDBRANCH   1   4
BRANCH   1  13
ATOM     13  N   UNL d   1      32.574  17.602 -24.302  0.00  0.00    -0.159 NA
BRANCH  13  14
ATOM     14  C   UNL d   1      31.893  17.171 -24.154  0.00  0.00     0.089 A 
ATOM     15  C   UNL d   1      31.910  16.533 -23.630  0.00  0.00     0.015 A 
ATOM     16  C   UNL d   1      31.231  16.100 -23.479  0.00  0.00     0.100 A 
ATOM     17  C   UNL d   1      30.853  15.483 -23.089  0.00  0.00     0.029 C 
ATOM     18  C   UNL d   1      31.655  15.620 -22.963  0.00  0.00     0.029 C 
ATOM     19  N   UNL d   1      30.528  16.300 -23.851  0.00  0.00    -0.295 NA
ATOM     20  C   UNL d   1      30.502  16.935 -24.375  0.00  0.00     0.100 A 
ATOM     21  C   UNL d   1      31.183  17.368 -24.526  0.00  0.00     0.015 A 
ATOM     22  C   UNL d   1      30.082  17.418 -24.894  0.00  0.00     0.029 C 
ATOM     23  C   UNL d   1      29.697  16.797 -24.502  0.00  0.00     0.029 C 
ENDBRANCH  13  14
ENDBRANCH   1  13
TORSDOF 3
ENDMDL
MODEL 4
REMARK VINA RESULT:      -0.3      1.640      2.361
REMARK  3 active torsions:
REMARK  status: ('A' for Active; 'I' for Inactive)
REMARK    1  A    between atoms: C_2  and  S_1 
REMARK    2  A    between atoms: N_3  and  S_1 
REMARK    3  A    between atoms: C_9  and  N_3 
ROOT
ATOM      1  S   UNL d   1      32.786  18.863 -22.719  0.00  0.00     0.285 S 
ATOM      2  O   UNL d   1      33.236  19.073 -23.371  0.00  0.00    -0.198 OA
ATOM      3  O   UNL d   1      32.331  18.649 -22.064  0.00  0.00    -0.198 OA
ENDROOT
BRANCH   1   4
ATOM      4  C   UNL d   1      32.331  18.364 -23.196  0.00  0.00     0.105 A 
ATOM      5  C   UNL d   1      31.712  18.670 -23.643  0.00  0.00     0.013 A 
ATOM      6  C   UNL d   1      31.260  18.178 -24.115  0.00  0.00     0.001 A 
ATOM      7  C   UNL d   1      30.637  18.486 -24.566  0.00  0.00     0.000 C 
ATOM      8  C   UNL d   1      31.422  17.369 -24.146  0.00  0.00     0.000 A 
ATOM      9  C   UNL d   1      32.043  17.059 -23.697  0.00  0.00     0.001 A 
ATOM     10  C   UNL d   1      30.969  16.866 -24.621  0.00  0.00     0.000 C 
ATOM     11  C   UNL d   1      32.500  17.557 -23.220  0.00  0.00     0.012 A 
ATOM     12  C   UNL d   1      33.117  17.247 -22.775  0.00  0.00     0.001 C 
ENDBRANCH   1   4
BRANCH   1  13
ATOM     13  N   UNL d   1      33.240  19.362 -22.241  0.00  0.00    -0.159 NA
BRANCH  13  14
ATOM     14  C   UNL d   1      33.025  20.147 -22.150  0.00  0.00     0.089 A 
ATOM     15  C   UNL d   1      33.165  20.690 -22.756  0.00  0.00     0.015 A 
ATOM     16  C   UNL d   1      32.951  21.476 -22.668  0.00  0.00     0.100 A 
ATOM     17  C   UNL d   1      32.910  22.240 -22.970  0.00  0.00     0.029 C 
ATOM     18  C   UNL d   1      33.241  21.636 -23.422  0.00  0.00     0.029 C 
ATOM     19  N   UNL d   1      32.595  21.727 -21.974  0.00  0.00    -0.295 NA
ATOM     20  C   UNL d   1      32.451  21.193 -21.365  0.00  0.00     0.100 A 
ATOM     21  C   UNL d   1      32.666  20.405 -21.453  0.00  0.00     0.015 A 
ATOM     22  C   UNL d   1      32.162  21.027 -20.611  0.00  0.00     0.029 C 
ATOM     23  C   UNL d   1      32.119  21.799 -20.911  0.00  0.00     0.029 C 
ENDBRANCH  13  14
ENDBRANCH   1  13
TORSDOF 3
ENDMDL
