MODEL 1
REMARK VINA RESULT:      59.1      0.000      0.000
REMARK  6 active torsions:
REMARK  status: ('A' for Active; 'I' for Inactive)
REMARK    1  A    between atoms: C_10  and  N_1 
REMARK    2  A    between atoms: S_8  and  C_2 
REMARK       I    between atoms: N_7  and  C_9 
REMARK    3  A    between atoms: C_13  and  S_8 
REMARK    4  A    between atoms: C_9  and  C_13 
REMARK    5  A    between atoms: C_21  and  N_11 
REMARK    6  A    between atoms: C_25  and  C_21 
ROOT
ATOM      1  N   UNL d   1      14.102  13.156  -2.256  0.00  0.00    -0.254 N 
ATOM      2  C   UNL d   1      14.102  13.844  -2.702  0.00  0.00     0.182 A 
ATOM      3  C   UNL d   1      13.771  12.466  -2.567  0.00  0.00     0.268 A 
ATOM      4  N   UNL d   1      13.772  13.842  -3.459  0.00  0.00    -0.222 NA
ATOM      5  C   UNL d   1      13.441  12.464  -3.324  0.00  0.00     0.074 A 
ATOM      6  C   UNL d   1      13.441  13.152  -3.770  0.00  0.00     0.088 A 
ATOM      7  O   UNL d   1      13.771  11.779  -2.121  0.00  0.00    -0.267 OA
ATOM      8  C   UNL d   1      13.118  11.782  -3.622  0.00  0.00     0.006 A 
ATOM      9  C   UNL d   1      13.118  13.158  -4.514  0.00  0.00     0.019 A 
ATOM     10  C   UNL d   1      12.787  11.780  -4.379  0.00  0.00     0.000 A 
ATOM     11  C   UNL d   1      12.787  12.468  -4.825  0.00  0.00     0.002 A 
ENDROOT
BRANCH   2  12
ATOM     12  S   UNL d   1      14.433  14.549  -2.401  0.00  0.00    -0.044 SA
BRANCH  12  13
ATOM     13  C   UNL d   1      14.177  15.276  -2.719  0.00  0.00     0.099 C 
BRANCH  13  14
ATOM     14  C   UNL d   1      14.635  15.958  -2.572  0.00  0.00     0.272 C 
ATOM     15  N   UNL d   1      14.796  16.474  -3.208  0.00  0.00    -0.269 N 
ATOM     16  C   UNL d   1      15.245  17.138  -3.054  0.00  0.00     0.102 A 
ATOM     17  C   UNL d   1      14.510  16.314  -3.960  0.00  0.00     0.102 A 
ATOM     18  C   UNL d   1      15.406  17.653  -3.691  0.00  0.00     0.100 A 
ATOM     19  N   UNL d   1      15.120  17.494  -4.442  0.00  0.00    -0.297 N 
ATOM     20  C   UNL d   1      14.667  16.815  -4.573  0.00  0.00     0.100 A 
ATOM     21  O   UNL d   1      14.921  16.117  -1.821  0.00  0.00    -0.266 OA
BRANCH  19  22
ATOM     22  C   UNL d   1      15.296  18.031  -5.071  0.00  0.00     0.126 C 
BRANCH  22  23
ATOM     23  C   UNL d   1      14.724  18.521  -5.361  0.00  0.00     0.253 C 
ATOM     24  O   UNL d   1      14.932  19.268  -5.647  0.00  0.00    -0.281 OA
ENDBRANCH  22  23
ENDBRANCH  19  22
ENDBRANCH  13  14
ENDBRANCH  12  13
ENDBRANCH   2  12
BRANCH   1  25
ATOM     25  C   UNL d   1      14.427  13.163  -1.516  0.00  0.00     0.069 A 
ATOM     26  C   UNL d   1      15.107  12.709  -1.364  0.00  0.00     0.018 A 
ATOM     27  C   UNL d   1      15.442  12.713  -0.609  0.00  0.00     0.002 A 
ATOM     28  C   UNL d   1      15.096  13.169  -0.014  0.00  0.00     0.000 A 
ATOM     29  C   UNL d   1      14.427  13.615  -0.164  0.00  0.00     0.002 A 
ATOM     30  C   UNL d   1      14.088  13.614  -0.919  0.00  0.00     0.018 A 
ENDBRANCH   1  25
TORSDOF 6
ENDMDL
