MODEL 1
REMARK VINA RESULT:      -1.6      0.000      0.000
REMARK  6 active torsions:
REMARK  status: ('A' for Active; 'I' for Inactive)
REMARK    1  A    between atoms: N_2  and  S_1 
REMARK    2  A    between atoms: C_6  and  S_1 
REMARK    3  A    between atoms: C_3  and  N_10 
REMARK    4  A    between atoms: C_7  and  C_5 
REMARK       I    between atoms: N_10  and  C_7 
REMARK    5  A    between atoms: C_15  and  C_8 
REMARK    6  A    between atoms: O_27  and  C_24 
ROOT
ATOM      1  C   UNL d   1      31.705  17.387 -24.409  0.00  0.00     0.299 C 
ATOM      2  N   UNL d   1      32.061  17.439 -23.666  0.00  0.00    -0.164 NA
ATOM      3  O   UNL d   1      31.720  18.040 -24.913  0.00  0.00    -0.263 OA
ENDROOT
BRANCH   1   4
ATOM      4  C   UNL d   1      31.341  16.696 -24.644  0.00  0.00     0.133 A 
ATOM      5  N   UNL d   1      30.521  16.557 -24.654  0.00  0.00    -0.226 N 
ATOM      6  C   UNL d   1      30.402  15.780 -24.932  0.00  0.00     0.092 A 
ATOM      7  C   UNL d   1      31.138  15.454 -25.089  0.00  0.00     0.021 A 
ATOM      8  C   UNL d   1      31.718  16.014 -24.913  0.00  0.00     0.025 A 
BRANCH   5   9
ATOM      9  S   UNL d   1      29.932  17.090 -24.429  0.00  0.00     0.277 S 
ATOM     10  O   UNL d   1      30.074  17.561 -25.096  0.00  0.00    -0.199 OA
ATOM     11  O   UNL d   1      29.796  16.619 -23.770  0.00  0.00    -0.199 OA
BRANCH   9  12
ATOM     12  C   UNL d   1      29.339  17.597 -24.172  0.00  0.00     0.133 A 
ATOM     13  S   UNL d   1      28.711  17.401 -23.678  0.00  0.00    -0.074 SA
ATOM     14  C   UNL d   1      28.250  18.077 -23.565  0.00  0.00     0.036 A 
ATOM     15  C   UNL d   1      28.600  18.693 -23.993  0.00  0.00     0.008 A 
ATOM     16  C   UNL d   1      29.271  18.396 -24.368  0.00  0.00     0.020 A 
ENDBRANCH   9  12
ENDBRANCH   5   9
ENDBRANCH   1   4
BRANCH   2  17
ATOM     17  C   UNL d   1      32.430  18.138 -23.427  0.00  0.00     0.297 A 
ATOM     18  O   UNL d   1      32.247  18.568 -22.749  0.00  0.00    -0.253 OA
ATOM     19  C   UNL d   1      32.746  19.227 -22.719  0.00  0.00     0.206 A 
ATOM     20  N   UNL d   1      33.236  19.201 -23.381  0.00  0.00    -0.119 NA
ATOM     21  N   UNL d   1      33.038  18.524 -23.820  0.00  0.00    -0.101 NA
BRANCH  19  22
ATOM     22  C   UNL d   1      32.749  19.797 -22.139  0.00  0.00     0.043 A 
ATOM     23  C   UNL d   1      33.197  19.696 -21.454  0.00  0.00     0.006 A 
ATOM     24  C   UNL d   1      33.194  20.285 -20.867  0.00  0.00     0.024 A 
ATOM     25  C   UNL d   1      32.747  20.966 -20.967  0.00  0.00     0.094 A 
ATOM     26  C   UNL d   1      32.301  21.063 -21.653  0.00  0.00     0.024 A 
ATOM     27  C   UNL d   1      32.299  20.488 -22.235  0.00  0.00     0.006 A 
BRANCH  25  28
ATOM     28  O   UNL d   1      32.743  21.548 -20.387  0.00  0.00    -0.328 OA
ATOM     29  C   UNL d   1      33.227  22.217 -20.466  0.00  0.00     0.181 C 
ENDBRANCH  25  28
ENDBRANCH  19  22
ENDBRANCH   2  17
TORSDOF 6
ENDMDL
MODEL 2
REMARK VINA RESULT:      -0.7      1.160      1.562
REMARK  6 active torsions:
REMARK  status: ('A' for Active; 'I' for Inactive)
REMARK    1  A    between atoms: N_2  and  S_1 
REMARK    2  A    between atoms: C_6  and  S_1 
REMARK    3  A    between atoms: C_3  and  N_10 
REMARK    4  A    between atoms: C_7  and  C_5 
REMARK       I    between atoms: N_10  and  C_7 
REMARK    5  A    between atoms: C_15  and  C_8 
REMARK    6  A    between atoms: O_27  and  C_24 
ROOT
ATOM      1  C   UNL d   1      32.738  17.562 -23.567  0.00  0.00     0.299 C 
ATOM      2  N   UNL d   1      32.932  17.978 -22.881  0.00  0.00    -0.164 NA
ATOM      3  O   UNL d   1      32.622  17.974 -24.272  0.00  0.00    -0.263 OA
ENDROOT
BRANCH   1   4
ATOM      4  C   UNL d   1      32.662  16.750 -23.549  0.00  0.00     0.133 A 
ATOM      5  N   UNL d   1      31.991  16.319 -23.785  0.00  0.00    -0.226 N 
ATOM      6  C   UNL d   1      32.161  15.510 -23.671  0.00  0.00     0.092 A 
ATOM      7  C   UNL d   1      32.921  15.453 -23.371  0.00  0.00     0.021 A 
ATOM      8  C   UNL d   1      33.233  16.213 -23.294  0.00  0.00     0.025 A 
BRANCH   5   9
ATOM      9  S   UNL d   1      31.286  16.633 -24.080  0.00  0.00     0.277 S 
ATOM     10  O   UNL d   1      31.645  16.816 -24.804  0.00  0.00    -0.199 OA
ATOM     11  O   UNL d   1      30.936  16.450 -23.360  0.00  0.00    -0.199 OA
BRANCH   9  12
ATOM     12  C   UNL d   1      30.568  16.936 -24.336  0.00  0.00     0.133 A 
ATOM     13  S   UNL d   1      30.410  17.253 -25.079  0.00  0.00    -0.074 SA
ATOM     14  C   UNL d   1      29.619  17.490 -25.097  0.00  0.00     0.036 A 
ATOM     15  C   UNL d   1      29.290  17.317 -24.358  0.00  0.00     0.008 A 
ATOM     16  C   UNL d   1      29.875  16.976 -23.889  0.00  0.00     0.020 A 
ENDBRANCH   9  12
ENDBRANCH   5   9
ENDBRANCH   1   4
BRANCH   2  17
ATOM     17  C   UNL d   1      33.009  18.800 -22.898  0.00  0.00     0.297 A 
ATOM     18  O   UNL d   1      32.866  19.308 -22.265  0.00  0.00    -0.253 OA
ATOM     19  C   UNL d   1      33.009  20.082 -22.518  0.00  0.00     0.206 A 
ATOM     20  N   UNL d   1      33.241  20.049 -23.308  0.00  0.00    -0.119 NA
ATOM     21  N   UNL d   1      33.240  19.251 -23.542  0.00  0.00    -0.101 NA
BRANCH  19  22
ATOM     22  C   UNL d   1      32.934  20.753 -22.066  0.00  0.00     0.043 A 
ATOM     23  C   UNL d   1      33.232  21.475 -22.332  0.00  0.00     0.006 A 
ATOM     24  C   UNL d   1      33.150  22.156 -21.861  0.00  0.00     0.024 A 
ATOM     25  C   UNL d   1      32.774  22.111 -21.133  0.00  0.00     0.094 A 
ATOM     26  C   UNL d   1      32.478  21.389 -20.871  0.00  0.00     0.024 A 
ATOM     27  C   UNL d   1      32.554  20.714 -21.328  0.00  0.00     0.006 A 
BRANCH  25  28
ATOM     28  O   UNL d   1      32.692  22.784 -20.668  0.00  0.00    -0.328 OA
ATOM     29  C   UNL d   1      31.960  23.170 -20.620  0.00  0.00     0.181 C 
ENDBRANCH  25  28
ENDBRANCH  19  22
ENDBRANCH   2  17
TORSDOF 6
ENDMDL
