MODEL 1
REMARK VINA RESULT:      -8.0      0.000      0.000
REMARK  5 active torsions:
REMARK  status: ('A' for Active; 'I' for Inactive)
REMARK    1  A    between atoms: N_2  and  C_1 
REMARK    2  A    between atoms: C_4  and  C_8 
REMARK       I    between atoms: N_7  and  C_4 
REMARK    3  A    between atoms: C_9  and  C_6 
REMARK    4  A    between atoms: C_14  and  N_7 
REMARK    5  A    between atoms: C_8  and  C_9 
ROOT
ATOM      1  C   UNL d   1      53.151  32.778  53.503  0.00  0.00     0.265 C 
ATOM      2  N   UNL d   1      52.563  33.323  53.616  0.00  0.00    -0.272 N 
ATOM      3  O   UNL d   1      53.951  32.959  53.590  0.00  0.00    -0.267 OA
ATOM      4  C   UNL d   1      51.774  33.122  53.524  0.00  0.00     0.102 C 
ENDROOT
BRANCH   1   5
ATOM      5  C   UNL d   1      52.940  32.009  53.291  0.00  0.00     0.062 C 
BRANCH   5   6
ATOM      6  C   UNL d   1      53.537  31.411  53.299  0.00  0.00     0.011 C 
BRANCH   6   7
ATOM      7  C   UNL d   1      53.336  30.595  53.467  0.00  0.00     0.031 A 
ATOM      8  S   UNL d   1      53.544  30.171  54.131  0.00  0.00    -0.064 SA
ATOM      9  C   UNL d   1      53.238  29.401  54.077  0.00  0.00     0.156 A 
ATOM     10  C   UNL d   1      52.832  29.369  53.350  0.00  0.00     0.031 A 
ATOM     11  C   UNL d   1      52.896  30.082  52.998  0.00  0.00     0.009 A 
BRANCH   9  12
ATOM     12  N   UNL d   1      53.309  28.779  54.618  0.00  0.00    -0.107 N 
ATOM     13  O   UNL d   1      52.984  28.847  55.413  0.00  0.00    -0.531 OA
ATOM     14  O   UNL d   1      53.696  28.036  54.446  0.00  0.00    -0.531 OA
ENDBRANCH   9  12
ENDBRANCH   6   7
ENDBRANCH   5   6
ENDBRANCH   1   5
BRANCH   2  15
ATOM     15  C   UNL d   1      52.762  34.095  53.827  0.00  0.00     0.067 A 
ATOM     16  C   UNL d   1      52.967  34.272  54.591  0.00  0.00     0.018 A 
ATOM     17  C   UNL d   1      53.160  35.050  54.771  0.00  0.00     0.002 A 
ATOM     18  C   UNL d   1      53.151  35.645  54.203  0.00  0.00     0.000 A 
ATOM     19  C   UNL d   1      52.934  35.428  53.418  0.00  0.00     0.002 A 
ATOM     20  C   UNL d   1      52.743  34.673  53.231  0.00  0.00     0.018 A 
ENDBRANCH   2  15
TORSDOF 5
ENDMDL
MODEL 2
REMARK VINA RESULT:      -7.9      3.228      5.075
REMARK  5 active torsions:
REMARK  status: ('A' for Active; 'I' for Inactive)
REMARK    1  A    between atoms: N_2  and  C_1 
REMARK    2  A    between atoms: C_4  and  C_8 
REMARK       I    between atoms: N_7  and  C_4 
REMARK    3  A    between atoms: C_9  and  C_6 
REMARK    4  A    between atoms: C_14  and  N_7 
REMARK    5  A    between atoms: C_8  and  C_9 
ROOT
ATOM      1  C   UNL d   1      52.108  33.804  53.431  0.00  0.00     0.265 C 
ATOM      2  N   UNL d   1      52.821  34.161  53.570  0.00  0.00    -0.272 N 
ATOM      3  O   UNL d   1      51.959  33.015  53.617  0.00  0.00    -0.267 OA
ATOM      4  C   UNL d   1      52.948  34.947  53.377  0.00  0.00     0.102 C 
ENDROOT
BRANCH   1   5
ATOM      5  C   UNL d   1      51.504  34.250  53.089  0.00  0.00     0.062 C 
BRANCH   5   6
ATOM      6  C   UNL d   1      50.739  33.900  53.012  0.00  0.00     0.011 C 
BRANCH   6   7
ATOM      7  C   UNL d   1      50.081  34.353  52.702  0.00  0.00     0.031 A 
ATOM      8  S   UNL d   1      49.599  34.858  53.122  0.00  0.00    -0.064 SA
ATOM      9  C   UNL d   1      49.029  35.186  52.615  0.00  0.00     0.156 A 
ATOM     10  C   UNL d   1      49.182  34.861  51.862  0.00  0.00     0.031 A 
ATOM     11  C   UNL d   1      49.807  34.370  51.926  0.00  0.00     0.009 A 
BRANCH   9  12
ATOM     12  N   UNL d   1      48.427  35.725  52.795  0.00  0.00    -0.107 N 
ATOM     13  O   UNL d   1      47.711  35.760  52.318  0.00  0.00    -0.531 OA
ATOM     14  O   UNL d   1      48.458  36.276  53.448  0.00  0.00    -0.531 OA
ENDBRANCH   9  12
ENDBRANCH   6   7
ENDBRANCH   5   6
ENDBRANCH   1   5
BRANCH   2  15
ATOM     15  C   UNL d   1      53.432  33.725  53.912  0.00  0.00     0.067 A 
ATOM     16  C   UNL d   1      53.869  33.208  53.465  0.00  0.00     0.018 A 
ATOM     17  C   UNL d   1      54.470  32.787  53.834  0.00  0.00     0.002 A 
ATOM     18  C   UNL d   1      54.639  32.877  54.634  0.00  0.00     0.000 A 
ATOM     19  C   UNL d   1      54.167  33.422  55.071  0.00  0.00     0.002 A 
ATOM     20  C   UNL d   1      53.577  33.837  54.722  0.00  0.00     0.018 A 
ENDBRANCH   2  15
TORSDOF 5
ENDMDL
MODEL 3
REMARK VINA RESULT:      -7.5      1.877      4.902
REMARK  5 active torsions:
REMARK  status: ('A' for Active; 'I' for Inactive)
REMARK    1  A    between atoms: N_2  and  C_1 
REMARK    2  A    between atoms: C_4  and  C_8 
REMARK       I    between atoms: N_7  and  C_4 
REMARK    3  A    between atoms: C_9  and  C_6 
REMARK    4  A    between atoms: C_14  and  N_7 
REMARK    5  A    between atoms: C_8  and  C_9 
ROOT
ATOM      1  C   UNL d   1      52.813  31.838  53.232  0.00  0.00     0.265 C 
ATOM      2  N   UNL d   1      53.418  31.315  53.351  0.00  0.00    -0.272 N 
ATOM      3  O   UNL d   1      52.021  31.608  53.207  0.00  0.00    -0.267 OA
ATOM      4  C   UNL d   1      54.198  31.564  53.373  0.00  0.00     0.102 C 
ENDROOT
BRANCH   1   5
ATOM      5  C   UNL d   1      52.996  32.636  53.131  0.00  0.00     0.062 C 
BRANCH   5   6
ATOM      6  C   UNL d   1      52.378  33.206  53.224  0.00  0.00     0.011 C 
BRANCH   6   7
ATOM      7  C   UNL d   1      52.561  34.016  53.438  0.00  0.00     0.031 A 
ATOM      8  S   UNL d   1      52.678  34.304  54.190  0.00  0.00    -0.064 SA
ATOM      9  C   UNL d   1      52.842  35.117  54.155  0.00  0.00     0.156 A 
ATOM     10  C   UNL d   1      52.819  35.318  53.346  0.00  0.00     0.031 A 
ATOM     11  C   UNL d   1      52.652  34.658  52.931  0.00  0.00     0.009 A 
BRANCH   9  12
ATOM     12  N   UNL d   1      52.997  35.640  54.778  0.00  0.00    -0.107 N 
ATOM     13  O   UNL d   1      53.225  35.345  55.554  0.00  0.00    -0.531 OA
ATOM     14  O   UNL d   1      52.948  36.491  54.711  0.00  0.00    -0.531 OA
ENDBRANCH   9  12
ENDBRANCH   6   7
ENDBRANCH   5   6
ENDBRANCH   1   5
BRANCH   2  15
ATOM     15  C   UNL d   1      53.247  30.514  53.453  0.00  0.00     0.067 A 
ATOM     16  C   UNL d   1      52.932  30.080  52.846  0.00  0.00     0.018 A 
ATOM     17  C   UNL d   1      52.772  29.285  52.977  0.00  0.00     0.002 A 
ATOM     18  C   UNL d   1      52.921  28.924  53.701  0.00  0.00     0.000 A 
ATOM     19  C   UNL d   1      53.249  29.402  54.313  0.00  0.00     0.002 A 
ATOM     20  C   UNL d   1      53.409  30.178  54.196  0.00  0.00     0.018 A 
ENDBRANCH   2  15
TORSDOF 5
ENDMDL
MODEL 4
REMARK VINA RESULT:      -7.5      2.828      3.788
REMARK  5 active torsions:
REMARK  status: ('A' for Active; 'I' for Inactive)
REMARK    1  A    between atoms: N_2  and  C_1 
REMARK    2  A    between atoms: C_4  and  C_8 
REMARK       I    between atoms: N_7  and  C_4 
REMARK    3  A    between atoms: C_9  and  C_6 
REMARK    4  A    between atoms: C_14  and  N_7 
REMARK    5  A    between atoms: C_8  and  C_9 
ROOT
ATOM      1  C   UNL d   1      51.472  34.110  52.794  0.00  0.00     0.265 C 
ATOM      2  N   UNL d   1      50.711  33.854  52.895  0.00  0.00    -0.272 N 
ATOM      3  O   UNL d   1      51.667  34.752  52.315  0.00  0.00    -0.267 OA
ATOM      4  C   UNL d   1      50.537  33.214  53.376  0.00  0.00     0.102 C 
ENDROOT
BRANCH   1   5
ATOM      5  C   UNL d   1      52.077  33.711  53.187  0.00  0.00     0.062 C 
BRANCH   5   6
ATOM      6  C   UNL d   1      52.861  34.024  53.143  0.00  0.00     0.011 C 
BRANCH   6   7
ATOM      7  C   UNL d   1      53.496  33.676  53.601  0.00  0.00     0.031 A 
ATOM      8  S   UNL d   1      53.771  33.933  54.323  0.00  0.00    -0.064 SA
ATOM      9  C   UNL d   1      54.391  33.443  54.577  0.00  0.00     0.156 A 
ATOM     10  C   UNL d   1      54.487  32.871  53.977  0.00  0.00     0.031 A 
ATOM     11  C   UNL d   1      53.952  33.019  53.405  0.00  0.00     0.009 A 
BRANCH   9  12
ATOM     12  N   UNL d   1      54.836  33.491  55.273  0.00  0.00    -0.107 N 
ATOM     13  O   UNL d   1      54.639  33.004  55.956  0.00  0.00    -0.531 OA
ATOM     14  O   UNL d   1      55.508  34.009  55.377  0.00  0.00    -0.531 OA
ENDBRANCH   9  12
ENDBRANCH   6   7
ENDBRANCH   5   6
ENDBRANCH   1   5
BRANCH   2  15
ATOM     15  C   UNL d   1      50.097  34.246  52.507  0.00  0.00     0.067 A 
ATOM     16  C   UNL d   1      49.945  34.098  51.724  0.00  0.00     0.018 A 
ATOM     17  C   UNL d   1      49.327  34.503  51.365  0.00  0.00     0.002 A 
ATOM     18  C   UNL d   1      48.866  35.048  51.774  0.00  0.00     0.000 A 
ATOM     19  C   UNL d   1      49.049  35.179  52.586  0.00  0.00     0.002 A 
ATOM     20  C   UNL d   1      49.649  34.789  52.947  0.00  0.00     0.018 A 
ENDBRANCH   2  15
TORSDOF 5
ENDMDL
MODEL 5
REMARK VINA RESULT:      -6.7      3.978      5.102
REMARK  5 active torsions:
REMARK  status: ('A' for Active; 'I' for Inactive)
REMARK    1  A    between atoms: N_2  and  C_1 
REMARK    2  A    between atoms: C_4  and  C_8 
REMARK       I    between atoms: N_7  and  C_4 
REMARK    3  A    between atoms: C_9  and  C_6 
REMARK    4  A    between atoms: C_14  and  N_7 
REMARK    5  A    between atoms: C_8  and  C_9 
ROOT
ATOM      1  C   UNL d   1      49.050  34.979  52.404  0.00  0.00     0.265 C 
ATOM      2  N   UNL d   1      48.574  35.082  51.758  0.00  0.00    -0.272 N 
ATOM      3  O   UNL d   1      48.859  35.271  53.152  0.00  0.00    -0.267 OA
ATOM      4  C   UNL d   1      48.782  34.784  51.024  0.00  0.00     0.102 C 
ENDROOT
BRANCH   1   5
ATOM      5  C   UNL d   1      49.758  34.566  52.310  0.00  0.00     0.062 C 
BRANCH   5   6
ATOM      6  C   UNL d   1      50.232  34.419  52.994  0.00  0.00     0.011 C 
BRANCH   6   7
ATOM      7  C   UNL d   1      51.021  34.092  52.916  0.00  0.00     0.031 A 
ATOM      8  S   UNL d   1      51.254  33.336  53.107  0.00  0.00    -0.064 SA
ATOM      9  C   UNL d   1      52.063  33.244  52.948  0.00  0.00     0.156 A 
ATOM     10  C   UNL d   1      52.320  33.980  52.650  0.00  0.00     0.031 A 
ATOM     11  C   UNL d   1      51.694  34.474  52.636  0.00  0.00     0.009 A 
BRANCH   9  12
ATOM     12  N   UNL d   1      52.538  32.575  53.054  0.00  0.00    -0.107 N 
ATOM     13  O   UNL d   1      53.017  32.482  53.764  0.00  0.00    -0.531 OA
ATOM     14  O   UNL d   1      52.596  31.935  52.490  0.00  0.00    -0.531 OA
ENDBRANCH   9  12
ENDBRANCH   6   7
ENDBRANCH   5   6
ENDBRANCH   1   5
BRANCH   2  15
ATOM     15  C   UNL d   1      47.863  35.494  51.841  0.00  0.00     0.067 A 
ATOM     16  C   UNL d   1      47.840  36.198  52.240  0.00  0.00     0.018 A 
ATOM     17  C   UNL d   1      47.119  36.585  52.306  0.00  0.00     0.002 A 
ATOM     18  C   UNL d   1      46.428  36.279  51.980  0.00  0.00     0.000 A 
ATOM     19  C   UNL d   1      46.485  35.545  51.571  0.00  0.00     0.002 A 
ATOM     20  C   UNL d   1      47.184  35.159  51.501  0.00  0.00     0.018 A 
ENDBRANCH   2  15
TORSDOF 5
ENDMDL
MODEL 6
REMARK VINA RESULT:      -5.3      9.965     11.241
REMARK  5 active torsions:
REMARK  status: ('A' for Active; 'I' for Inactive)
REMARK    1  A    between atoms: N_2  and  C_1 
REMARK    2  A    between atoms: C_4  and  C_8 
REMARK       I    between atoms: N_7  and  C_4 
REMARK    3  A    between atoms: C_9  and  C_6 
REMARK    4  A    between atoms: C_14  and  N_7 
REMARK    5  A    between atoms: C_8  and  C_9 
ROOT
ATOM      1  C   UNL d   1      44.776  28.645  58.682  0.00  0.00     0.265 C 
ATOM      2  N   UNL d   1      44.916  28.667  57.886  0.00  0.00    -0.272 N 
ATOM      3  O   UNL d   1      44.638  27.943  59.093  0.00  0.00    -0.267 OA
ATOM      4  C   UNL d   1      45.051  29.375  57.496  0.00  0.00     0.102 C 
ENDROOT
BRANCH   1   5
ATOM      5  C   UNL d   1      44.772  29.356  59.101  0.00  0.00     0.062 C 
BRANCH   5   6
ATOM      6  C   UNL d   1      44.568  29.339  59.921  0.00  0.00     0.011 C 
BRANCH   6   7
ATOM      7  C   UNL d   1      44.517  30.065  60.373  0.00  0.00     0.031 A 
ATOM      8  S   UNL d   1      44.662  30.152  61.170  0.00  0.00    -0.064 SA
ATOM      9  C   UNL d   1      44.550  30.945  61.390  0.00  0.00     0.156 A 
ATOM     10  C   UNL d   1      44.330  31.344  60.691  0.00  0.00     0.031 A 
ATOM     11  C   UNL d   1      44.314  30.813  60.096  0.00  0.00     0.009 A 
BRANCH   9  12
ATOM     12  N   UNL d   1      44.634  31.290  62.137  0.00  0.00    -0.107 N 
ATOM     13  O   UNL d   1      44.670  32.147  62.224  0.00  0.00    -0.531 OA
ATOM     14  O   UNL d   1      44.690  30.847  62.866  0.00  0.00    -0.531 OA
ENDBRANCH   9  12
ENDBRANCH   6   7
ENDBRANCH   5   6
ENDBRANCH   1   5
BRANCH   2  15
ATOM     15  C   UNL d   1      44.922  27.962  57.457  0.00  0.00     0.067 A 
ATOM     16  C   UNL d   1      45.483  27.396  57.604  0.00  0.00     0.018 A 
ATOM     17  C   UNL d   1      45.464  26.705  57.161  0.00  0.00     0.002 A 
ATOM     18  C   UNL d   1      44.897  26.575  56.579  0.00  0.00     0.000 A 
ATOM     19  C   UNL d   1      44.328  27.183  56.450  0.00  0.00     0.002 A 
ATOM     20  C   UNL d   1      44.337  27.861  56.876  0.00  0.00     0.018 A 
ENDBRANCH   2  15
TORSDOF 5
ENDMDL
