MODEL 1
REMARK VINA RESULT:      55.6      0.000      0.000
REMARK  7 active torsions:
REMARK  status: ('A' for Active; 'I' for Inactive)
REMARK    1  A    between atoms: C_4  and  C_10 
REMARK    2  A    between atoms: O_17  and  C_4 
REMARK    3  A    between atoms: O_19  and  C_5 
REMARK    4  A    between atoms: O_20  and  C_7 
REMARK    5  A    between atoms: C_12  and  C_8 
REMARK    6  A    between atoms: O_15  and  C_12 
REMARK    7  A    between atoms: C_16  and  O_15 
ROOT
ATOM      1  C   UNL d   1      58.904  49.703  51.232  0.00  0.00     0.022 A 
ATOM      2  C   UNL d   1      58.575  49.703  50.478  0.00  0.00     0.028 A 
ATOM      3  C   UNL d   1      58.415  49.705  51.910  0.00  0.00     0.005 A 
ATOM      4  C   UNL d   1      57.756  49.705  50.403  0.00  0.00     0.116 A 
ATOM      5  C   UNL d   1      57.599  49.707  51.830  0.00  0.00     0.026 A 
ATOM      6  C   UNL d   1      57.267  49.706  51.081  0.00  0.00     0.116 A 
ATOM      7  C   UNL d   1      59.720  49.702  51.305  0.00  0.00     0.106 A 
ATOM      8  N   UNL d   1      60.049  49.702  52.058  0.00  0.00    -0.242 NA
ATOM      9  C   UNL d   1      59.560  49.704  52.736  0.00  0.00     0.099 A 
ATOM     10  C   UNL d   1      58.744  49.706  52.657  0.00  0.00     0.021 A 
ENDROOT
BRANCH   7  11
ATOM     11  C   UNL d   1      60.209  49.700  50.626  0.00  0.00     0.142 C 
BRANCH  11  12
ATOM     12  O   UNL d   1      60.975  49.409  50.670  0.00  0.00    -0.304 OA
BRANCH  12  13
ATOM     13  C   UNL d   1      61.126  48.606  50.522  0.00  0.00     0.100 A 
ATOM     14  C   UNL d   1      60.937  48.029  51.080  0.00  0.00     0.025 A 
ATOM     15  C   UNL d   1      61.088  47.226  50.932  0.00  0.00     0.007 A 
ATOM     16  C   UNL d   1      61.432  46.984  50.222  0.00  0.00     0.063 A 
ATOM     17  C   UNL d   1      61.622  47.561  49.663  0.00  0.00     0.007 A 
ATOM     18  C   UNL d   1      61.470  48.364  49.812  0.00  0.00     0.025 A 
BRANCH  16  19
ATOM     19  C   UNL d   1      61.582  46.179  50.078  0.00  0.00     0.296 C 
ATOM     20  O   UNL d   1      61.494  45.619  50.669  0.00  0.00    -0.259 OA
BRANCH  19  21
ATOM     21  O   UNL d   1      61.826  45.928  49.322  0.00  0.00    -0.296 OA
ATOM     22  C   UNL d   1      61.806  45.113  49.117  0.00  0.00     0.185 C 
ENDBRANCH  19  21
ENDBRANCH  16  19
ENDBRANCH  12  13
ENDBRANCH  11  12
ENDBRANCH   7  11
BRANCH   4  23
ATOM     23  O   UNL d   1      57.414  49.704  49.641  0.00  0.00    -0.326 OA
ATOM     24  C   UNL d   1      57.897  49.668  48.978  0.00  0.00     0.181 C 
ENDBRANCH   4  23
BRANCH   6  25
ATOM     25  O   UNL d   1      56.430  49.708  51.005  0.00  0.00    -0.326 OA
ATOM     26  C   UNL d   1      56.093  49.335  50.350  0.00  0.00     0.181 C 
ENDBRANCH   6  25
TORSDOF 7
ENDMDL
