MODEL 1
REMARK VINA RESULT:      -8.4      0.000      0.000
REMARK  3 active torsions:
REMARK  status: ('A' for Active; 'I' for Inactive)
REMARK    1  A    between atoms: C_9  and  C_5 
REMARK    2  A    between atoms: C_10  and  C_6 
REMARK    3  A    between atoms: O_16  and  C_13 
ROOT
ATOM      1  N   UNL d   1     -49.556  12.675  23.396  0.00  0.00    -0.205 N 
ATOM      2  C   UNL d   1     -49.696  11.891  23.613  0.00  0.00     0.197 A 
ATOM      3  N   UNL d   1     -48.963  11.504  23.664  0.00  0.00    -0.200 NA
ATOM      4  N   UNL d   1     -48.741  12.774  23.312  0.00  0.00    -0.144 NA
ATOM      5  C   UNL d   1     -48.376  12.055  23.477  0.00  0.00     0.184 A 
ATOM      6  C   UNL d   1     -50.285  13.067  23.343  0.00  0.00     0.092 A 
ATOM      7  S   UNL d   1     -50.519  11.796  23.696  0.00  0.00    -0.046 SA
ATOM      8  C   UNL d   1     -50.879  12.527  23.528  0.00  0.00     0.058 A 
ENDROOT
BRANCH   5   9
ATOM      9  C   UNL d   1     -47.572  11.904  23.460  0.00  0.00     0.038 A 
ATOM     10  C   UNL d   1     -47.047  12.493  23.234  0.00  0.00     0.005 A 
ATOM     11  C   UNL d   1     -46.235  12.343  23.216  0.00  0.00     0.024 A 
ATOM     12  C   UNL d   1     -45.951  11.604  23.426  0.00  0.00     0.094 A 
ATOM     13  C   UNL d   1     -46.478  11.004  23.656  0.00  0.00     0.024 A 
ATOM     14  C   UNL d   1     -47.286  11.158  23.672  0.00  0.00     0.005 A 
BRANCH  12  15
ATOM     15  O   UNL d   1     -45.139  11.454  23.408  0.00  0.00    -0.328 OA
ATOM     16  C   UNL d   1     -44.854  10.698  23.601  0.00  0.00     0.181 C 
ENDBRANCH  12  15
ENDBRANCH   5   9
BRANCH   6  17
ATOM     17  C   UNL d   1     -50.390  13.864  23.140  0.00  0.00     0.018 A 
ATOM     18  C   UNL d   1     -50.265  14.459  23.696  0.00  0.00     0.002 A 
ATOM     19  C   UNL d   1     -50.370  15.250  23.490  0.00  0.00     0.000 A 
ATOM     20  C   UNL d   1     -50.603  15.453  22.719  0.00  0.00     0.000 A 
ATOM     21  C   UNL d   1     -50.728  14.859  22.163  0.00  0.00     0.000 A 
ATOM     22  C   UNL d   1     -50.624  14.066  22.364  0.00  0.00     0.002 A 
ENDBRANCH   6  17
TORSDOF 3
ENDMDL
MODEL 2
REMARK VINA RESULT:      -8.4      1.126      1.221
REMARK  3 active torsions:
REMARK  status: ('A' for Active; 'I' for Inactive)
REMARK    1  A    between atoms: C_9  and  C_5 
REMARK    2  A    between atoms: C_10  and  C_6 
REMARK    3  A    between atoms: O_16  and  C_13 
ROOT
ATOM      1  N   UNL d   1     -49.273  13.370  22.434  0.00  0.00    -0.205 N 
ATOM      2  C   UNL d   1     -49.317  12.755  21.885  0.00  0.00     0.197 A 
ATOM      3  N   UNL d   1     -48.646  12.277  21.982  0.00  0.00    -0.200 NA
ATOM      4  N   UNL d   1     -48.578  13.274  22.869  0.00  0.00    -0.144 NA
ATOM      5  C   UNL d   1     -48.193  12.602  22.592  0.00  0.00     0.184 A 
ATOM      6  C   UNL d   1     -49.941  13.853  22.341  0.00  0.00     0.092 A 
ATOM      7  S   UNL d   1     -50.019  12.857  21.448  0.00  0.00    -0.046 SA
ATOM      8  C   UNL d   1     -50.401  13.538  21.735  0.00  0.00     0.058 A 
ENDROOT
BRANCH   5   9
ATOM      9  C   UNL d   1     -47.483  12.301  22.868  0.00  0.00     0.038 A 
ATOM     10  C   UNL d   1     -46.773  12.614  22.602  0.00  0.00     0.005 A 
ATOM     11  C   UNL d   1     -46.056  12.312  22.879  0.00  0.00     0.024 A 
ATOM     12  C   UNL d   1     -46.052  11.699  23.421  0.00  0.00     0.094 A 
ATOM     13  C   UNL d   1     -46.768  11.378  23.694  0.00  0.00     0.024 A 
ATOM     14  C   UNL d   1     -47.480  11.682  23.415  0.00  0.00     0.005 A 
BRANCH  12  15
ATOM     15  O   UNL d   1     -45.334  11.397  23.698  0.00  0.00    -0.328 OA
ATOM     16  C   UNL d   1     -45.100  10.628  23.486  0.00  0.00     0.181 C 
ENDBRANCH  12  15
ENDBRANCH   5   9
BRANCH   6  17
ATOM     17  C   UNL d   1     -50.110  14.532  22.786  0.00  0.00     0.018 A 
ATOM     18  C   UNL d   1     -49.567  15.150  22.831  0.00  0.00     0.002 A 
ATOM     19  C   UNL d   1     -49.738  15.823  23.275  0.00  0.00     0.000 A 
ATOM     20  C   UNL d   1     -50.461  15.883  23.680  0.00  0.00     0.000 A 
ATOM     21  C   UNL d   1     -51.004  15.267  23.635  0.00  0.00     0.000 A 
ATOM     22  C   UNL d   1     -50.837  14.591  23.192  0.00  0.00     0.002 A 
ENDBRANCH   6  17
TORSDOF 3
ENDMDL
MODEL 3
REMARK VINA RESULT:      -8.0      1.538      2.069
REMARK  3 active torsions:
REMARK  status: ('A' for Active; 'I' for Inactive)
REMARK    1  A    between atoms: C_9  and  C_5 
REMARK    2  A    between atoms: C_10  and  C_6 
REMARK    3  A    between atoms: O_16  and  C_13 
ROOT
ATOM      1  N   UNL d   1     -48.236  13.835  22.598  0.00  0.00    -0.205 N 
ATOM      2  C   UNL d   1     -47.691  14.443  22.721  0.00  0.00     0.197 A 
ATOM      3  N   UNL d   1     -46.955  14.098  22.887  0.00  0.00    -0.200 NA
ATOM      4  N   UNL d   1     -47.841  13.117  22.688  0.00  0.00    -0.144 NA
ATOM      5  C   UNL d   1     -47.053  13.277  22.866  0.00  0.00     0.184 A 
ATOM      6  C   UNL d   1     -48.975  14.175  22.431  0.00  0.00     0.092 A 
ATOM      7  S   UNL d   1     -48.095  15.166  22.629  0.00  0.00    -0.046 SA
ATOM      8  C   UNL d   1     -48.889  14.994  22.450  0.00  0.00     0.058 A 
ENDROOT
BRANCH   5   9
ATOM      9  C   UNL d   1     -46.464  12.725  22.999  0.00  0.00     0.038 A 
ATOM     10  C   UNL d   1     -45.763  12.761  22.575  0.00  0.00     0.005 A 
ATOM     11  C   UNL d   1     -45.167  12.206  22.708  0.00  0.00     0.024 A 
ATOM     12  C   UNL d   1     -45.275  11.615  23.265  0.00  0.00     0.094 A 
ATOM     13  C   UNL d   1     -45.983  11.573  23.698  0.00  0.00     0.024 A 
ATOM     14  C   UNL d   1     -46.574  12.130  23.562  0.00  0.00     0.005 A 
BRANCH  12  15
ATOM     15  O   UNL d   1     -44.678  11.059  23.398  0.00  0.00    -0.328 OA
ATOM     16  C   UNL d   1     -44.875  10.300  23.673  0.00  0.00     0.181 C 
ENDBRANCH  12  15
ENDBRANCH   5   9
BRANCH   6  17
ATOM     17  C   UNL d   1     -49.672  13.756  22.274  0.00  0.00     0.018 A 
ATOM     18  C   UNL d   1     -50.207  13.590  22.878  0.00  0.00     0.002 A 
ATOM     19  C   UNL d   1     -50.900  13.173  22.718  0.00  0.00     0.000 A 
ATOM     20  C   UNL d   1     -51.064  12.918  21.944  0.00  0.00     0.000 A 
ATOM     21  C   UNL d   1     -50.530  13.084  21.341  0.00  0.00     0.000 A 
ATOM     22  C   UNL d   1     -49.835  13.501  21.496  0.00  0.00     0.002 A 
ENDBRANCH   6  17
TORSDOF 3
ENDMDL
MODEL 4
REMARK VINA RESULT:      -8.0      0.931      1.286
REMARK  3 active torsions:
REMARK  status: ('A' for Active; 'I' for Inactive)
REMARK    1  A    between atoms: C_9  and  C_5 
REMARK    2  A    between atoms: C_10  and  C_6 
REMARK    3  A    between atoms: O_16  and  C_13 
ROOT
ATOM      1  N   UNL d   1     -49.184  12.881  23.206  0.00  0.00    -0.205 N 
ATOM      2  C   UNL d   1     -49.057  12.101  23.444  0.00  0.00     0.197 A 
ATOM      3  N   UNL d   1     -48.248  11.934  23.356  0.00  0.00    -0.200 NA
ATOM      4  N   UNL d   1     -48.458  13.197  22.971  0.00  0.00    -0.144 NA
ATOM      5  C   UNL d   1     -47.883  12.616  23.064  0.00  0.00     0.184 A 
ATOM      6  C   UNL d   1     -49.991  13.053  23.291  0.00  0.00     0.092 A 
ATOM      7  S   UNL d   1     -49.791  11.786  23.680  0.00  0.00    -0.046 SA
ATOM      8  C   UNL d   1     -50.366  12.380  23.583  0.00  0.00     0.058 A 
ENDROOT
BRANCH   5   9
ATOM      9  C   UNL d   1     -47.086  12.692  22.897  0.00  0.00     0.038 A 
ATOM     10  C   UNL d   1     -46.829  13.262  22.365  0.00  0.00     0.005 A 
ATOM     11  C   UNL d   1     -46.025  13.340  22.195  0.00  0.00     0.024 A 
ATOM     12  C   UNL d   1     -45.480  12.849  22.557  0.00  0.00     0.094 A 
ATOM     13  C   UNL d   1     -45.733  12.270  23.097  0.00  0.00     0.024 A 
ATOM     14  C   UNL d   1     -46.536  12.195  23.263  0.00  0.00     0.005 A 
BRANCH  12  15
ATOM     15  O   UNL d   1     -44.675  12.928  22.387  0.00  0.00    -0.328 OA
ATOM     16  C   UNL d   1     -44.419  12.933  21.597  0.00  0.00     0.181 C 
ENDBRANCH  12  15
ENDBRANCH   5   9
BRANCH   6  17
ATOM     17  C   UNL d   1     -50.350  13.778  23.112  0.00  0.00     0.018 A 
ATOM     18  C   UNL d   1     -50.683  13.910  22.370  0.00  0.00     0.002 A 
ATOM     19  C   UNL d   1     -51.039  14.632  22.195  0.00  0.00     0.000 A 
ATOM     20  C   UNL d   1     -51.064  15.234  22.768  0.00  0.00     0.000 A 
ATOM     21  C   UNL d   1     -50.732  15.103  23.509  0.00  0.00     0.000 A 
ATOM     22  C   UNL d   1     -50.374  14.382  23.688  0.00  0.00     0.002 A 
ENDBRANCH   6  17
TORSDOF 3
ENDMDL
MODEL 5
REMARK VINA RESULT:      -6.6      9.473     10.986
REMARK  3 active torsions:
REMARK  status: ('A' for Active; 'I' for Inactive)
REMARK    1  A    between atoms: C_9  and  C_5 
REMARK    2  A    between atoms: C_10  and  C_6 
REMARK    3  A    between atoms: O_16  and  C_13 
ROOT
ATOM      1  N   UNL d   1     -39.923  15.122  18.113  0.00  0.00    -0.205 N 
ATOM      2  C   UNL d   1     -40.602  15.588  18.178  0.00  0.00     0.197 A 
ATOM      3  N   UNL d   1     -40.671  15.830  18.969  0.00  0.00    -0.200 NA
ATOM      4  N   UNL d   1     -39.574  15.075  18.859  0.00  0.00    -0.144 NA
ATOM      5  C   UNL d   1     -40.033  15.510  19.386  0.00  0.00     0.184 A 
ATOM      6  C   UNL d   1     -39.848  14.878  17.324  0.00  0.00     0.092 A 
ATOM      7  S   UNL d   1     -40.951  15.633  17.423  0.00  0.00    -0.046 SA
ATOM      8  C   UNL d   1     -40.480  15.191  16.898  0.00  0.00     0.058 A 
ENDROOT
BRANCH   5   9
ATOM      9  C   UNL d   1     -39.889  15.612  20.185  0.00  0.00     0.038 A 
ATOM     10  C   UNL d   1     -39.133  15.791  20.447  0.00  0.00     0.005 A 
ATOM     11  C   UNL d   1     -38.985  15.894  21.253  0.00  0.00     0.024 A 
ATOM     12  C   UNL d   1     -39.596  15.818  21.794  0.00  0.00     0.094 A 
ATOM     13  C   UNL d   1     -40.364  15.637  21.534  0.00  0.00     0.024 A 
ATOM     14  C   UNL d   1     -40.506  15.535  20.730  0.00  0.00     0.005 A 
BRANCH  12  15
ATOM     15  O   UNL d   1     -39.448  15.922  22.600  0.00  0.00    -0.328 OA
ATOM     16  C   UNL d   1     -38.891  15.438  22.983  0.00  0.00     0.181 C 
ENDBRANCH  12  15
ENDBRANCH   5   9
BRANCH   6  17
ATOM     17  C   UNL d   1     -39.240  14.401  17.023  0.00  0.00     0.018 A 
ATOM     18  C   UNL d   1     -39.189  13.605  17.232  0.00  0.00     0.002 A 
ATOM     19  C   UNL d   1     -38.583  13.134  16.931  0.00  0.00     0.000 A 
ATOM     20  C   UNL d   1     -38.018  13.460  16.415  0.00  0.00     0.000 A 
ATOM     21  C   UNL d   1     -38.069  14.254  16.207  0.00  0.00     0.000 A 
ATOM     22  C   UNL d   1     -38.674  14.729  16.505  0.00  0.00     0.002 A 
ENDBRANCH   6  17
TORSDOF 3
ENDMDL
MODEL 6
REMARK VINA RESULT:      -6.2      9.245     10.697
REMARK  3 active torsions:
REMARK  status: ('A' for Active; 'I' for Inactive)
REMARK    1  A    between atoms: C_9  and  C_5 
REMARK    2  A    between atoms: C_10  and  C_6 
REMARK    3  A    between atoms: O_16  and  C_13 
ROOT
ATOM      1  N   UNL d   1     -40.072  15.211  20.133  0.00  0.00    -0.205 N 
ATOM      2  C   UNL d   1     -40.681  15.642  19.779  0.00  0.00     0.197 A 
ATOM      3  N   UNL d   1     -40.560  15.629  18.958  0.00  0.00    -0.200 NA
ATOM      4  N   UNL d   1     -39.577  14.932  19.535  0.00  0.00    -0.144 NA
ATOM      5  C   UNL d   1     -39.876  15.189  18.812  0.00  0.00     0.184 A 
ATOM      6  C   UNL d   1     -40.188  15.220  20.954  0.00  0.00     0.092 A 
ATOM      7  S   UNL d   1     -41.178  15.922  20.386  0.00  0.00    -0.046 SA
ATOM      8  C   UNL d   1     -40.868  15.658  21.111  0.00  0.00     0.058 A 
ENDROOT
BRANCH   5   9
ATOM      9  C   UNL d   1     -39.557  15.038  18.074  0.00  0.00     0.038 A 
ATOM     10  C   UNL d   1     -39.980  14.600  17.524  0.00  0.00     0.005 A 
ATOM     11  C   UNL d   1     -39.660  14.446  16.779  0.00  0.00     0.024 A 
ATOM     12  C   UNL d   1     -38.917  14.732  16.586  0.00  0.00     0.094 A 
ATOM     13  C   UNL d   1     -38.483  15.176  17.138  0.00  0.00     0.024 A 
ATOM     14  C   UNL d   1     -38.807  15.326  17.880  0.00  0.00     0.005 A 
BRANCH  12  15
ATOM     15  O   UNL d   1     -38.597  14.578  15.839  0.00  0.00    -0.328 OA
ATOM     16  C   UNL d   1     -38.212  13.856  15.697  0.00  0.00     0.181 C 
ENDBRANCH  12  15
ENDBRANCH   5   9
BRANCH   6  17
ATOM     17  C   UNL d   1     -39.699  14.852  21.513  0.00  0.00     0.018 A 
ATOM     18  C   UNL d   1     -39.763  14.043  21.657  0.00  0.00     0.002 A 
ATOM     19  C   UNL d   1     -39.275  13.680  22.214  0.00  0.00     0.000 A 
ATOM     20  C   UNL d   1     -38.715  14.128  22.634  0.00  0.00     0.000 A 
ATOM     21  C   UNL d   1     -38.652  14.936  22.490  0.00  0.00     0.000 A 
ATOM     22  C   UNL d   1     -39.138  15.304  21.934  0.00  0.00     0.002 A 
ENDBRANCH   6  17
TORSDOF 3
ENDMDL
MODEL 7
REMARK VINA RESULT:      -5.9     10.011     10.631
REMARK  3 active torsions:
REMARK  status: ('A' for Active; 'I' for Inactive)
REMARK    1  A    between atoms: C_9  and  C_5 
REMARK    2  A    between atoms: C_10  and  C_6 
REMARK    3  A    between atoms: O_16  and  C_13 
ROOT
ATOM      1  N   UNL d   1     -39.354  14.409  18.716  0.00  0.00    -0.205 N 
ATOM      2  C   UNL d   1     -38.849  13.794  18.937  0.00  0.00     0.197 A 
ATOM      3  N   UNL d   1     -38.688  13.874  19.747  0.00  0.00    -0.200 NA
ATOM      4  N   UNL d   1     -39.504  14.868  19.384  0.00  0.00    -0.144 NA
ATOM      5  C   UNL d   1     -39.095  14.540  20.019  0.00  0.00     0.184 A 
ATOM      6  C   UNL d   1     -39.519  14.333  17.906  0.00  0.00     0.092 A 
ATOM      7  S   UNL d   1     -38.701  13.333  18.259  0.00  0.00    -0.046 SA
ATOM      8  C   UNL d   1     -39.118  13.672  17.624  0.00  0.00     0.058 A 
ENDROOT
BRANCH   5   9
ATOM      9  C   UNL d   1     -39.088  14.820  20.788  0.00  0.00     0.038 A 
ATOM     10  C   UNL d   1     -38.858  15.592  20.943  0.00  0.00     0.005 A 
ATOM     11  C   UNL d   1     -38.850  15.876  21.719  0.00  0.00     0.024 A 
ATOM     12  C   UNL d   1     -39.073  15.386  22.336  0.00  0.00     0.094 A 
ATOM     13  C   UNL d   1     -39.307  14.604  22.185  0.00  0.00     0.024 A 
ATOM     14  C   UNL d   1     -39.313  14.325  21.411  0.00  0.00     0.005 A 
BRANCH  12  15
ATOM     15  O   UNL d   1     -39.065  15.671  23.112  0.00  0.00    -0.328 OA
ATOM     16  C   UNL d   1     -38.410  15.519  23.601  0.00  0.00     0.181 C 
ENDBRANCH  12  15
ENDBRANCH   5   9
BRANCH   6  17
ATOM     17  C   UNL d   1     -40.004  14.840  17.465  0.00  0.00     0.018 A 
ATOM     18  C   UNL d   1     -40.825  14.785  17.516  0.00  0.00     0.002 A 
ATOM     19  C   UNL d   1     -41.305  15.290  17.076  0.00  0.00     0.000 A 
ATOM     20  C   UNL d   1     -40.963  15.861  16.577  0.00  0.00     0.000 A 
ATOM     21  C   UNL d   1     -40.144  15.916  16.525  0.00  0.00     0.000 A 
ATOM     22  C   UNL d   1     -39.659  15.412  16.964  0.00  0.00     0.002 A 
ENDBRANCH   6  17
TORSDOF 3
ENDMDL
