MODEL 1
REMARK VINA RESULT:       2.0      0.000      0.000
REMARK  6 active torsions:
REMARK  status: ('A' for Active; 'I' for Inactive)
REMARK    1  A    between atoms: C_6  and  C_1 
REMARK    2  A    between atoms: C_8  and  C_2 
REMARK    3  A    between atoms: C_9  and  C_4 
REMARK    4  A    between atoms: C_12  and  C_8 
REMARK    5  A    between atoms: O_27  and  C_11 
REMARK    6  A    between atoms: C_30  and  O_27 
ROOT
ATOM      1  C   UNL d   1      59.496  -2.132  29.072  0.00  0.00     0.306 A 
ATOM      2  C   UNL d   1      59.072  -1.556  29.485  0.00  0.00     0.114 A 
ATOM      3  N   UNL d   1      59.107  -2.832  28.844  0.00  0.00    -0.152 NA
ATOM      4  C   UNL d   1      58.277  -1.675  29.667  0.00  0.00     0.094 A 
ATOM      5  C   UNL d   1      58.313  -2.947  29.028  0.00  0.00     0.371 A 
ATOM      6  N   UNL d   1      57.894  -2.361  29.445  0.00  0.00    -0.191 NA
ATOM      7  O   UNL d   1      57.924  -3.646  28.801  0.00  0.00    -0.242 OA
ATOM      8  O   UNL d   1      60.006  -2.623  28.675  0.00  0.00    -0.266 OA
ENDROOT
BRANCH   4   9
ATOM      9  C   UNL d   1      57.857  -1.090  30.083  0.00  0.00     0.020 A 
ATOM     10  C   UNL d   1      57.608  -1.227  30.853  0.00  0.00     0.029 A 
ATOM     11  C   UNL d   1      57.188  -0.642  31.270  0.00  0.00     0.139 A 
ATOM     12  C   UNL d   1      57.018   0.087  30.908  0.00  0.00     0.218 A 
ATOM     13  C   UNL d   1      57.272   0.221  30.129  0.00  0.00     0.044 A 
ATOM     14  O   UNL d   1      56.608   0.659  31.315  0.00  0.00    -0.284 OA
ATOM     15  C   UNL d   1      57.691  -0.363  29.713  0.00  0.00     0.005 A 
BRANCH  11  16
ATOM     16  O   UNL d   1      56.943  -0.785  32.037  0.00  0.00    -0.302 OA
BRANCH  16  17
ATOM     17  C   UNL d   1      56.159  -0.761  32.221  0.00  0.00     0.123 C 
ATOM     18  C   UNL d   1      55.917  -0.846  32.998  0.00  0.00     0.029 C 
ENDBRANCH  16  17
ENDBRANCH  11  16
ENDBRANCH   4   9
BRANCH   2  19
ATOM     19  C   UNL d   1      59.462  -0.855  29.712  0.00  0.00     0.201 C 
ATOM     20  O   UNL d   1      59.292  -0.466  29.111  0.00  0.00    -0.286 OA
BRANCH  19  21
ATOM     21  C   UNL d   1      59.826  -0.448  30.104  0.00  0.00     0.039 A 
ATOM     22  C   UNL d   1      60.123   0.310  29.987  0.00  0.00     0.004 A 
ATOM     23  C   UNL d   1      60.557   0.670  30.581  0.00  0.00     0.011 A 
ATOM     24  C   UNL d   1      60.700   0.281  31.294  0.00  0.00     0.058 A 
ATOM     25  C   UNL d   1      60.398  -0.486  31.410  0.00  0.00     0.011 A 
ATOM     26 CL   UNL d   1      61.133   0.649  31.879  0.00  0.00    -0.082 Cl
ATOM     27  C   UNL d   1      59.964  -0.846  30.816  0.00  0.00     0.004 A 
ENDBRANCH  19  21
ENDBRANCH   2  19
BRANCH   1  28
ATOM     28  C   UNL d   1      60.248  -1.918  28.949  0.00  0.00     0.470 C 
ATOM     29  F   UNL d   1      60.941  -2.271  29.206  0.00  0.00    -0.162 F 
ATOM     30  F   UNL d   1      60.927  -1.717  28.832  0.00  0.00    -0.162 F 
ATOM     31  F   UNL d   1      60.538  -1.272  28.522  0.00  0.00    -0.162 F 
ENDBRANCH   1  28
TORSDOF 6
ENDMDL
MODEL 2
REMARK VINA RESULT:       5.0      2.009      2.821
REMARK  6 active torsions:
REMARK  status: ('A' for Active; 'I' for Inactive)
REMARK    1  A    between atoms: C_6  and  C_1 
REMARK    2  A    between atoms: C_8  and  C_2 
REMARK    3  A    between atoms: C_9  and  C_4 
REMARK    4  A    between atoms: C_12  and  C_8 
REMARK    5  A    between atoms: O_27  and  C_11 
REMARK    6  A    between atoms: C_30  and  O_27 
ROOT
ATOM      1  C   UNL d   1      60.328  -0.071  30.956  0.00  0.00     0.306 A 
ATOM      2  C   UNL d   1      59.503  -0.050  30.928  0.00  0.00     0.114 A 
ATOM      3  N   UNL d   1      60.713   0.174  31.652  0.00  0.00    -0.152 NA
ATOM      4  C   UNL d   1      59.071   0.211  31.580  0.00  0.00     0.094 A 
ATOM      5  C   UNL d   1      60.278   0.433  32.300  0.00  0.00     0.371 A 
ATOM      6  N   UNL d   1      59.447   0.452  32.263  0.00  0.00    -0.191 NA
ATOM      7  O   UNL d   1      60.662   0.679  32.996  0.00  0.00    -0.242 OA
ATOM      8  O   UNL d   1      61.133  -0.134  30.871  0.00  0.00    -0.266 OA
ENDROOT
BRANCH   4   9
ATOM      9  C   UNL d   1      58.240   0.229  31.543  0.00  0.00     0.020 A 
ATOM     10  C   UNL d   1      57.791  -0.171  32.101  0.00  0.00     0.029 A 
ATOM     11  C   UNL d   1      56.961  -0.153  32.065  0.00  0.00     0.139 A 
ATOM     12  C   UNL d   1      56.578   0.272  31.461  0.00  0.00     0.218 A 
ATOM     13  C   UNL d   1      57.036   0.675  30.898  0.00  0.00     0.044 A 
ATOM     14  O   UNL d   1      55.766   0.290  31.425  0.00  0.00    -0.284 OA
ATOM     15  C   UNL d   1      57.866   0.657  30.935  0.00  0.00     0.005 A 
BRANCH  11  16
ATOM     16  O   UNL d   1      56.519  -0.555  32.625  0.00  0.00    -0.302 OA
BRANCH  16  17
ATOM     17  C   UNL d   1      56.194  -1.270  32.445  0.00  0.00     0.123 C 
ATOM     18  C   UNL d   1      55.933  -1.763  33.044  0.00  0.00     0.029 C 
ENDBRANCH  16  17
ENDBRANCH  11  16
ENDBRANCH   4   9
BRANCH   2  19
ATOM     19  C   UNL d   1      59.118  -0.296  30.231  0.00  0.00     0.201 C 
ATOM     20  O   UNL d   1      59.057   0.373  29.929  0.00  0.00    -0.286 OA
BRANCH  19  21
ATOM     21  C   UNL d   1      58.840  -0.726  29.795  0.00  0.00     0.039 A 
ATOM     22  C   UNL d   1      58.339  -0.614  29.152  0.00  0.00     0.004 A 
ATOM     23  C   UNL d   1      58.088  -1.261  28.718  0.00  0.00     0.011 A 
ATOM     24  C   UNL d   1      58.331  -2.024  28.918  0.00  0.00     0.058 A 
ATOM     25  C   UNL d   1      58.838  -2.134  29.569  0.00  0.00     0.011 A 
ATOM     26 CL   UNL d   1      58.075  -2.661  28.479  0.00  0.00    -0.082 Cl
ATOM     27  C   UNL d   1      59.089  -1.487  30.003  0.00  0.00     0.004 A 
ENDBRANCH  19  21
ENDBRANCH   2  19
BRANCH   1  28
ATOM     28  C   UNL d   1      60.644  -0.337  30.280  0.00  0.00     0.470 C 
ATOM     29  F   UNL d   1      60.856  -1.098  30.065  0.00  0.00    -0.162 F 
ATOM     30  F   UNL d   1      60.929  -0.568  29.664  0.00  0.00    -0.162 F 
ATOM     31  F   UNL d   1      60.845   0.092  29.602  0.00  0.00    -0.162 F 
ENDBRANCH   1  28
TORSDOF 6
ENDMDL
