MODEL 1
REMARK VINA RESULT:      -5.5      0.000      0.000
REMARK  1 active torsions:
REMARK  status: ('A' for Active; 'I' for Inactive)
REMARK    1  A    between atoms: C_6  and  C_3 
ROOT
ATOM      1  C   UNL d   1     -41.716-122.353 -53.715  0.00  0.00     0.018 A 
ATOM      2  C   UNL d   1     -41.387-122.779 -54.314  0.00  0.00     0.005 A 
ATOM      3  C   UNL d   1     -42.284-121.767 -53.868  0.00  0.00     0.005 A 
ATOM      4  C   UNL d   1     -42.177-122.054 -55.254  0.00  0.00     0.196 A 
ATOM      5  C   UNL d   1     -41.609-122.640 -55.101  0.00  0.00     0.042 A 
ATOM      6  C   UNL d   1     -42.503-121.630 -54.652  0.00  0.00     0.042 A 
ATOM      7  O   UNL d   1     -42.394-121.919 -56.035  0.00  0.00    -0.287 OA
ENDROOT
BRANCH   1   8
ATOM      8  C   UNL d   1     -41.499-122.487 -52.934  0.00  0.00     0.090 A 
ATOM      9  N   UNL d   1     -41.466-123.240 -52.623  0.00  0.00    -0.219 NA
ATOM     10  C   UNL d   1     -41.234-123.196 -51.838  0.00  0.00     0.215 A 
ATOM     11  S   UNL d   1     -41.123-122.436 -51.652  0.00  0.00    -0.045 SA
ATOM     12  N   UNL d   1     -41.123-123.817 -51.294  0.00  0.00    -0.120 N 
ATOM     13  C   UNL d   1     -41.284-121.972 -52.326  0.00  0.00     0.058 A 
ENDBRANCH   1   8
TORSDOF 1
ENDMDL
MODEL 2
REMARK VINA RESULT:      -4.5      2.980      4.313
REMARK  1 active torsions:
REMARK  status: ('A' for Active; 'I' for Inactive)
REMARK    1  A    between atoms: C_6  and  C_3 
ROOT
ATOM      1  C   UNL d   1     -41.911-122.815 -50.186  0.00  0.00     0.018 A 
ATOM      2  C   UNL d   1     -41.441-123.214 -49.667  0.00  0.00     0.005 A 
ATOM      3  C   UNL d   1     -42.697-122.630 -49.997  0.00  0.00     0.005 A 
ATOM      4  C   UNL d   1     -42.523-123.266 -48.740  0.00  0.00     0.196 A 
ATOM      5  C   UNL d   1     -41.735-123.450 -48.930  0.00  0.00     0.042 A 
ATOM      6  C   UNL d   1     -42.988-122.867 -49.262  0.00  0.00     0.042 A 
ATOM      7  O   UNL d   1     -42.810-123.502 -48.008  0.00  0.00    -0.287 OA
ENDROOT
BRANCH   1   8
ATOM      8  C   UNL d   1     -41.623-122.578 -50.919  0.00  0.00     0.090 A 
ATOM      9  N   UNL d   1     -41.581-123.095 -51.549  0.00  0.00    -0.219 NA
ATOM     10  C   UNL d   1     -41.274-122.702 -52.198  0.00  0.00     0.215 A 
ATOM     11  S   UNL d   1     -41.123-121.954 -51.990  0.00  0.00    -0.045 SA
ATOM     12  N   UNL d   1     -41.128-122.997 -52.964  0.00  0.00    -0.120 N 
ATOM     13  C   UNL d   1     -41.335-121.855 -51.190  0.00  0.00     0.058 A 
ENDBRANCH   1   8
TORSDOF 1
ENDMDL
MODEL 3
REMARK VINA RESULT:      -4.0      2.605      3.502
REMARK  1 active torsions:
REMARK  status: ('A' for Active; 'I' for Inactive)
REMARK    1  A    between atoms: C_6  and  C_3 
ROOT
ATOM      1  C   UNL d   1     -41.799-122.882 -50.521  0.00  0.00     0.018 A 
ATOM      2  C   UNL d   1     -41.879-122.098 -50.690  0.00  0.00     0.005 A 
ATOM      3  C   UNL d   1     -41.491-123.411 -51.081  0.00  0.00     0.005 A 
ATOM      4  C   UNL d   1     -41.346-122.331 -51.991  0.00  0.00     0.196 A 
ATOM      5  C   UNL d   1     -41.654-121.802 -51.430  0.00  0.00     0.042 A 
ATOM      6  C   UNL d   1     -41.268-123.113 -51.818  0.00  0.00     0.042 A 
ATOM      7  O   UNL d   1     -41.124-122.033 -52.724  0.00  0.00    -0.287 OA
ENDROOT
BRANCH   1   8
ATOM      8  C   UNL d   1     -42.020-123.180 -49.788  0.00  0.00     0.090 A 
ATOM      9  N   UNL d   1     -41.657-122.937 -49.100  0.00  0.00    -0.219 NA
ATOM     10  C   UNL d   1     -41.995-123.329 -48.465  0.00  0.00     0.215 A 
ATOM     11  S   UNL d   1     -42.559-123.810 -48.738  0.00  0.00    -0.045 SA
ATOM     12  N   UNL d   1     -41.809-123.263 -47.655  0.00  0.00    -0.120 N 
ATOM     13  C   UNL d   1     -42.592-123.733 -49.568  0.00  0.00     0.058 A 
ENDBRANCH   1   8
TORSDOF 1
ENDMDL
MODEL 4
REMARK VINA RESULT:      -3.2      3.594      4.567
REMARK  1 active torsions:
REMARK  status: ('A' for Active; 'I' for Inactive)
REMARK    1  A    between atoms: C_6  and  C_3 
ROOT
ATOM      1  C   UNL d   1     -41.709-123.129 -49.280  0.00  0.00     0.018 A 
ATOM      2  C   UNL d   1     -41.130-123.433 -49.751  0.00  0.00     0.005 A 
ATOM      3  C   UNL d   1     -42.310-122.650 -49.593  0.00  0.00     0.005 A 
ATOM      4  C   UNL d   1     -41.724-122.793 -50.878  0.00  0.00     0.196 A 
ATOM      5  C   UNL d   1     -41.123-123.273 -50.564  0.00  0.00     0.042 A 
ATOM      6  C   UNL d   1     -42.300-122.492 -50.403  0.00  0.00     0.042 A 
ATOM      7  O   UNL d   1     -41.713-122.637 -51.685  0.00  0.00    -0.287 OA
ENDROOT
BRANCH   1   8
ATOM      8  C   UNL d   1     -41.720-123.286 -48.473  0.00  0.00     0.090 A 
ATOM      9  N   UNL d   1     -42.410-123.482 -48.085  0.00  0.00    -0.219 NA
ATOM     10  C   UNL d   1     -42.246-123.605 -47.292  0.00  0.00     0.215 A 
ATOM     11  S   UNL d   1     -41.473-123.490 -47.174  0.00  0.00    -0.045 SA
ATOM     12  N   UNL d   1     -42.771-123.815 -46.679  0.00  0.00    -0.120 N 
ATOM     13  C   UNL d   1     -41.123-123.289 -47.904  0.00  0.00     0.058 A 
ENDBRANCH   1   8
TORSDOF 1
ENDMDL
