MODEL 1
REMARK VINA RESULT:      60.3      0.000      0.000
REMARK  1 active torsions:
REMARK  status: ('A' for Active; 'I' for Inactive)
REMARK       I    between atoms: N_2  and  C_1 
REMARK       I    between atoms: N_4  and  C_1 
REMARK    1  A    between atoms: C_5  and  N_3 
ROOT
ATOM      1  C   UNL d   1     -54.841 -99.823 -43.638  0.00  0.00     0.339 C 
ATOM      2  N   UNL d   1     -54.824-100.257 -42.938  0.00  0.00    -0.254 N 
ATOM      3  N   UNL d   1     -54.789-101.118 -41.550  0.00  0.00    -0.301 N 
ATOM      4  N   UNL d   1     -54.926-100.203 -44.365  0.00  0.00    -0.258 N 
ATOM      5  O   UNL d   1     -54.772 -99.000 -43.608  0.00  0.00    -0.245 OA
ATOM      6  C   UNL d   1     -54.739 -99.875 -42.219  0.00  0.00     0.104 A 
ATOM      7  C   UNL d   1     -54.893-101.089 -42.968  0.00  0.00     0.104 A 
ATOM      8  C   UNL d   1     -54.876-101.518 -42.276  0.00  0.00     0.100 A 
ATOM      9  C   UNL d   1     -54.722-100.305 -41.527  0.00  0.00     0.100 A 
ATOM     10  C   UNL d   1     -54.952 -99.840 -45.098  0.00  0.00     0.085 A 
ATOM     11  C   UNL d   1     -55.000-101.015 -44.476  0.00  0.00     0.085 A 
ATOM     12  C   UNL d   1     -55.072-101.153 -45.279  0.00  0.00     0.021 A 
ATOM     13  C   UNL d   1     -55.042-100.431 -45.668  0.00  0.00     0.021 A 
ENDROOT
BRANCH   3  14
ATOM     14  C   UNL d   1     -54.772-101.558 -40.841  0.00  0.00     0.064 A 
ATOM     15  C   UNL d   1     -54.768-101.164 -40.112  0.00  0.00     0.018 A 
ATOM     16  C   UNL d   1     -54.751-101.600 -39.400  0.00  0.00     0.001 A 
ATOM     17  C   UNL d   1     -54.748-101.213 -38.675  0.00  0.00     0.000 C 
ATOM     18  C   UNL d   1     -54.737-102.442 -39.423  0.00  0.00     0.000 A 
ATOM     19  C   UNL d   1     -54.740-102.833 -40.165  0.00  0.00     0.002 A 
ATOM     20  C   UNL d   1     -54.720-102.875 -38.724  0.00  0.00     0.000 C 
ATOM     21  C   UNL d   1     -54.758-102.395 -40.871  0.00  0.00     0.018 A 
ENDBRANCH   3  14
TORSDOF 1
ENDMDL
