MODEL 1
REMARK VINA RESULT:      -5.4      0.000      0.000
REMARK  8 active torsions:
REMARK  status: ('A' for Active; 'I' for Inactive)
REMARK    1  A    between atoms: C_2  and  S_1 
REMARK    2  A    between atoms: N_6  and  S_1 
REMARK    3  A    between atoms: C_3  and  C_14 
REMARK       I    between atoms: N_7  and  C_3 
REMARK    4  A    between atoms: C_17  and  N_6 
REMARK    5  A    between atoms: C_14  and  C_19 
REMARK    6  A    between atoms: C_20  and  C_17 
REMARK    7  A    between atoms: C_19  and  C_21 
REMARK    8  A    between atoms: C_21  and  C_20 
ROOT
ATOM      1  N   UNL d   1     -41.208-123.062 -52.199  0.00  0.00    -0.157 NA
ENDROOT
BRANCH   1   2
ATOM      2  S   UNL d   1     -41.437-122.811 -52.955  0.00  0.00     0.285 S 
ATOM      3  O   UNL d   1     -41.490-123.612 -52.742  0.00  0.00    -0.198 OA
ATOM      4  O   UNL d   1     -41.152-122.263 -52.404  0.00  0.00    -0.198 OA
BRANCH   2   5
ATOM      5  C   UNL d   1     -41.665-122.559 -53.711  0.00  0.00     0.105 A 
ATOM      6  C   UNL d   1     -42.207-121.941 -53.796  0.00  0.00     0.013 A 
ATOM      7  C   UNL d   1     -42.432-121.693 -54.540  0.00  0.00     0.001 A 
ATOM      8  C   UNL d   1     -42.121-122.057 -55.200  0.00  0.00     0.000 A 
ATOM      9  C   UNL d   1     -41.581-122.673 -55.124  0.00  0.00     0.001 A 
ATOM     10  C   UNL d   1     -42.352-121.803 -55.955  0.00  0.00     0.000 C 
ATOM     11  C   UNL d   1     -41.356-122.921 -54.379  0.00  0.00     0.013 A 
ENDBRANCH   2   5
ENDBRANCH   1   2
BRANCH   1  12
ATOM     12  C   UNL d   1     -41.492-122.670 -51.528  0.00  0.00     0.112 C 
BRANCH  12  13
ATOM     13  C   UNL d   1     -41.255-122.919 -50.775  0.00  0.00     0.021 C 
BRANCH  13  14
ATOM     14  C   UNL d   1     -41.651-122.637 -50.101  0.00  0.00     0.002 C 
BRANCH  14  15
ATOM     15  C   UNL d   1     -41.928-123.161 -49.530  0.00  0.00     0.005 C 
BRANCH  15  16
ATOM     16  C   UNL d   1     -41.694-123.092 -48.744  0.00  0.00     0.061 C 
BRANCH  16  17
ATOM     17  C   UNL d   1     -42.168-123.397 -48.139  0.00  0.00     0.265 C 
ATOM     18  N   UNL d   1     -41.893-123.399 -47.361  0.00  0.00    -0.269 N 
ATOM     19  C   UNL d   1     -42.375-123.707 -46.757  0.00  0.00     0.102 C 
ATOM     20  C   UNL d   1     -41.143-123.094 -47.187  0.00  0.00     0.102 C 
ATOM     21  O   UNL d   1     -42.917-123.701 -48.316  0.00  0.00    -0.267 OA
ENDBRANCH  16  17
ENDBRANCH  15  16
ENDBRANCH  14  15
ENDBRANCH  13  14
ENDBRANCH  12  13
ENDBRANCH   1  12
TORSDOF 8
ENDMDL
MODEL 2
REMARK VINA RESULT:      -4.7      1.490      5.807
REMARK  8 active torsions:
REMARK  status: ('A' for Active; 'I' for Inactive)
REMARK    1  A    between atoms: C_2  and  S_1 
REMARK    2  A    between atoms: N_6  and  S_1 
REMARK    3  A    between atoms: C_3  and  C_14 
REMARK       I    between atoms: N_7  and  C_3 
REMARK    4  A    between atoms: C_17  and  N_6 
REMARK    5  A    between atoms: C_14  and  C_19 
REMARK    6  A    between atoms: C_20  and  C_17 
REMARK    7  A    between atoms: C_19  and  C_21 
REMARK    8  A    between atoms: C_21  and  C_20 
ROOT
ATOM      1  N   UNL d   1     -41.896-123.585 -50.752  0.00  0.00    -0.157 NA
ENDROOT
BRANCH   1   2
ATOM      2  S   UNL d   1     -41.920-123.462 -49.934  0.00  0.00     0.285 S 
ATOM      3  O   UNL d   1     -42.581-123.765 -50.335  0.00  0.00    -0.198 OA
ATOM      4  O   UNL d   1     -41.234-123.283 -50.360  0.00  0.00    -0.198 OA
BRANCH   2   5
ATOM      5  C   UNL d   1     -41.944-123.339 -49.114  0.00  0.00     0.105 A 
ATOM      6  C   UNL d   1     -42.607-122.990 -48.766  0.00  0.00     0.013 A 
ATOM      7  C   UNL d   1     -42.630-122.869 -47.959  0.00  0.00     0.001 A 
ATOM      8  C   UNL d   1     -41.997-123.094 -47.497  0.00  0.00     0.000 A 
ATOM      9  C   UNL d   1     -41.333-123.442 -47.836  0.00  0.00     0.001 A 
ATOM     10  C   UNL d   1     -42.025-122.969 -46.678  0.00  0.00     0.000 C 
ATOM     11  C   UNL d   1     -41.310-123.563 -48.643  0.00  0.00     0.013 A 
ENDBRANCH   2   5
ENDBRANCH   1   2
BRANCH   1  12
ATOM     12  C   UNL d   1     -41.469-123.068 -51.237  0.00  0.00     0.112 C 
BRANCH  12  13
ATOM     13  C   UNL d   1     -41.367-123.246 -52.039  0.00  0.00     0.021 C 
BRANCH  13  14
ATOM     14  C   UNL d   1     -41.309-122.632 -52.596  0.00  0.00     0.002 C 
BRANCH  14  15
ATOM     15  C   UNL d   1     -41.810-122.612 -53.249  0.00  0.00     0.005 C 
BRANCH  15  16
ATOM     16  C   UNL d   1     -41.561-122.287 -53.963  0.00  0.00     0.061 C 
BRANCH  16  17
ATOM     17  C   UNL d   1     -42.115-122.046 -54.527  0.00  0.00     0.265 C 
ATOM     18  N   UNL d   1     -41.946-122.123 -55.331  0.00  0.00    -0.269 N 
ATOM     19  C   UNL d   1     -42.507-121.879 -55.894  0.00  0.00     0.102 C 
ATOM     20  C   UNL d   1     -41.220-122.442 -55.571  0.00  0.00     0.102 C 
ATOM     21  O   UNL d   1     -42.840-121.728 -54.284  0.00  0.00    -0.267 OA
ENDBRANCH  16  17
ENDBRANCH  15  16
ENDBRANCH  14  15
ENDBRANCH  13  14
ENDBRANCH  12  13
ENDBRANCH   1  12
TORSDOF 8
ENDMDL
