MODEL 1
REMARK VINA RESULT:      -4.6      0.000      0.000
REMARK  4 active torsions:
REMARK  status: ('A' for Active; 'I' for Inactive)
REMARK    1  A    between atoms: N_4  and  C_1 
REMARK    2  A    between atoms: N_2  and  N_4 
REMARK    3  A    between atoms: C_6  and  N_2 
REMARK    4  A    between atoms: C_8  and  C_6 
ROOT
ATOM      1  C   UNL d   1     -41.652-122.207 -53.812  0.00  0.00     0.008 A 
ATOM      2  C   UNL d   1     -41.305-122.705 -53.256  0.00  0.00     0.021 A 
ATOM      3  C   UNL d   1     -41.829-122.497 -54.582  0.00  0.00     0.035 A 
ATOM      4 BR   UNL d   1     -42.182-121.989 -55.149  0.00  0.00    -0.049 Br
ATOM      5  C   UNL d   1     -41.305-123.777 -54.217  0.00  0.00     0.001 A 
ATOM      6  C   UNL d   1     -41.652-123.279 -54.773  0.00  0.00     0.007 A 
ATOM      7  C   UNL d   1     -41.133-123.480 -53.454  0.00  0.00     0.002 A 
ENDROOT
BRANCH   2   8
ATOM      8  C   UNL d   1     -41.123-122.425 -52.481  0.00  0.00     0.122 C 
BRANCH   8   9
ATOM      9  N   UNL d   1     -41.619-122.616 -51.827  0.00  0.00    -0.144 NA
BRANCH   9  10
ATOM     10  N   UNL d   1     -41.441-122.328 -51.067  0.00  0.00    -0.115 NA
BRANCH  10  11
ATOM     11  C   UNL d   1     -41.893-122.547 -50.431  0.00  0.00     0.260 C 
ATOM     12  S   UNL d   1     -41.616-123.126 -49.883  0.00  0.00    -0.034 SA
ATOM     13  N   UNL d   1     -42.622-122.212 -50.309  0.00  0.00    -0.113 N 
ENDBRANCH  10  11
ENDBRANCH   9  10
ENDBRANCH   8   9
ENDBRANCH   2   8
TORSDOF 4
ENDMDL
MODEL 2
REMARK VINA RESULT:      -4.2      2.452      3.655
REMARK  4 active torsions:
REMARK  status: ('A' for Active; 'I' for Inactive)
REMARK    1  A    between atoms: N_4  and  C_1 
REMARK    2  A    between atoms: N_2  and  N_4 
REMARK    3  A    between atoms: C_6  and  N_2 
REMARK    4  A    between atoms: C_8  and  C_6 
ROOT
ATOM      1  C   UNL d   1     -42.146-122.392 -50.849  0.00  0.00     0.008 A 
ATOM      2  C   UNL d   1     -41.585-122.622 -51.406  0.00  0.00     0.021 A 
ATOM      3  C   UNL d   1     -42.244-122.842 -50.144  0.00  0.00     0.035 A 
ATOM      4 BR   UNL d   1     -42.815-122.608 -49.575  0.00  0.00    -0.049 Br
ATOM      5  C   UNL d   1     -41.217-123.739 -50.576  0.00  0.00     0.001 A 
ATOM      6  C   UNL d   1     -41.777-123.510 -50.018  0.00  0.00     0.007 A 
ATOM      7  C   UNL d   1     -41.126-123.287 -51.273  0.00  0.00     0.002 A 
ENDROOT
BRANCH   2   8
ATOM      8  C   UNL d   1     -41.478-122.179 -52.117  0.00  0.00     0.122 C 
BRANCH   8   9
ATOM      9  N   UNL d   1     -41.687-122.507 -52.864  0.00  0.00    -0.144 NA
BRANCH   9  10
ATOM     10  N   UNL d   1     -41.678-122.033 -53.547  0.00  0.00    -0.115 NA
BRANCH  10  11
ATOM     11  C   UNL d   1     -41.772-122.369 -54.279  0.00  0.00     0.260 C 
ATOM     12  S   UNL d   1     -42.268-122.007 -54.859  0.00  0.00    -0.034 SA
ATOM     13  N   UNL d   1     -41.392-123.059 -54.468  0.00  0.00    -0.113 N 
ENDBRANCH  10  11
ENDBRANCH   9  10
ENDBRANCH   8   9
ENDBRANCH   2   8
TORSDOF 4
ENDMDL
MODEL 3
REMARK VINA RESULT:      -3.4      2.665      4.431
REMARK  4 active torsions:
REMARK  status: ('A' for Active; 'I' for Inactive)
REMARK    1  A    between atoms: N_4  and  C_1 
REMARK    2  A    between atoms: N_2  and  N_4 
REMARK    3  A    between atoms: C_6  and  N_2 
REMARK    4  A    between atoms: C_8  and  C_6 
ROOT
ATOM      1  C   UNL d   1     -41.464-123.557 -49.201  0.00  0.00     0.008 A 
ATOM      2  C   UNL d   1     -42.000-123.440 -49.814  0.00  0.00     0.021 A 
ATOM      3  C   UNL d   1     -41.669-123.333 -48.416  0.00  0.00     0.035 A 
ATOM      4 BR   UNL d   1     -41.123-123.452 -47.791  0.00  0.00    -0.049 Br
ATOM      5  C   UNL d   1     -42.944-122.881 -48.882  0.00  0.00     0.001 A 
ATOM      6  C   UNL d   1     -42.408-122.998 -48.269  0.00  0.00     0.007 A 
ATOM      7  C   UNL d   1     -42.731-123.106 -49.659  0.00  0.00     0.002 A 
ENDROOT
BRANCH   2   8
ATOM      8  C   UNL d   1     -41.805-123.660 -50.606  0.00  0.00     0.122 C 
BRANCH   8   9
ATOM      9  N   UNL d   1     -41.674-123.073 -51.196  0.00  0.00    -0.144 NA
BRANCH   9  10
ATOM     10  N   UNL d   1     -41.541-123.296 -51.986  0.00  0.00    -0.115 NA
BRANCH  10  11
ATOM     11  C   UNL d   1     -41.297-122.746 -52.530  0.00  0.00     0.260 C 
ATOM     12  S   UNL d   1     -41.219-122.951 -53.345  0.00  0.00    -0.034 SA
ATOM     13  N   UNL d   1     -41.123-121.988 -52.301  0.00  0.00    -0.113 N 
ENDBRANCH  10  11
ENDBRANCH   9  10
ENDBRANCH   8   9
ENDBRANCH   2   8
TORSDOF 4
ENDMDL
MODEL 4
REMARK VINA RESULT:      -2.1      1.237      1.732
REMARK  4 active torsions:
REMARK  status: ('A' for Active; 'I' for Inactive)
REMARK    1  A    between atoms: N_4  and  C_1 
REMARK    2  A    between atoms: N_2  and  N_4 
REMARK    3  A    between atoms: C_6  and  N_2 
REMARK    4  A    between atoms: C_8  and  C_6 
ROOT
ATOM      1  C   UNL d   1     -41.323-123.537 -52.563  0.00  0.00     0.008 A 
ATOM      2  C   UNL d   1     -41.252-123.061 -51.896  0.00  0.00     0.021 A 
ATOM      3  C   UNL d   1     -41.294-123.191 -53.330  0.00  0.00     0.035 A 
ATOM      4 BR   UNL d   1     -41.366-123.677 -54.011  0.00  0.00    -0.049 Br
ATOM      5  C   UNL d   1     -41.123-121.900 -52.738  0.00  0.00     0.001 A 
ATOM      6  C   UNL d   1     -41.194-122.376 -53.405  0.00  0.00     0.007 A 
ATOM      7  C   UNL d   1     -41.153-122.253 -51.980  0.00  0.00     0.002 A 
ENDROOT
BRANCH   2   8
ATOM      8  C   UNL d   1     -41.279-123.397 -51.122  0.00  0.00     0.122 C 
BRANCH   8   9
ATOM      9  N   UNL d   1     -41.921-123.229 -50.602  0.00  0.00    -0.144 NA
BRANCH   9  10
ATOM     10  N   UNL d   1     -41.860-123.401 -49.791  0.00  0.00    -0.115 NA
BRANCH  10  11
ATOM     11  C   UNL d   1     -42.499-123.296 -49.302  0.00  0.00     0.260 C 
ATOM     12  S   UNL d   1     -42.634-123.818 -48.652  0.00  0.00    -0.034 SA
ATOM     13  N   UNL d   1     -43.019-122.688 -49.429  0.00  0.00    -0.113 N 
ENDBRANCH  10  11
ENDBRANCH   9  10
ENDBRANCH   8   9
ENDBRANCH   2   8
TORSDOF 4
ENDMDL
