MODEL 1
REMARK VINA RESULT:      52.0      0.000      0.000
REMARK  4 active torsions:
REMARK  status: ('A' for Active; 'I' for Inactive)
REMARK    1  A    between atoms: S_5  and  C_2 
REMARK    2  A    between atoms: C_14  and  S_5 
REMARK    3  A    between atoms: N_11  and  C_8 
REMARK    4  A    between atoms: C_15  and  N_11 
ROOT
ATOM      1  C   UNL d   1      46.069 -17.495  43.673  0.00  0.00     0.197 A 
ATOM      2  C   UNL d   1      45.862 -16.914  44.219  0.00  0.00     0.227 A 
ATOM      3  N   UNL d   1      46.075 -18.225  44.062  0.00  0.00    -0.192 N 
ATOM      4  N   UNL d   1      46.255 -17.456  42.866  0.00  0.00    -0.206 NA
ATOM      5  N   UNL d   1      45.738 -17.285  44.955  0.00  0.00    -0.115 NA
ATOM      6  N   UNL d   1      45.872 -18.098  44.853  0.00  0.00    -0.058 NA
ATOM      7  C   UNL d   1      46.447 -18.146  42.444  0.00  0.00     0.166 A 
ATOM      8  C   UNL d   1      46.450 -18.871  42.842  0.00  0.00     0.054 A 
ATOM      9  C   UNL d   1      46.267 -18.918  43.645  0.00  0.00     0.089 A 
ATOM     10  C   UNL d   1      46.641 -19.566  42.428  0.00  0.00     0.005 A 
ATOM     11  C   UNL d   1      46.272 -19.644  44.038  0.00  0.00     0.019 A 
ATOM     12  C   UNL d   1      46.647 -20.291  42.818  0.00  0.00     0.000 A 
ATOM     13  C   UNL d   1      46.461 -20.330  43.625  0.00  0.00     0.002 A 
ENDROOT
BRANCH   2  14
ATOM     14  S   UNL d   1      45.788 -16.106  44.073  0.00  0.00     0.231 S 
ATOM     15  O   UNL d   1      46.604 -16.004  44.056  0.00  0.00    -0.215 OA
ATOM     16  O   UNL d   1      44.968 -16.212  44.091  0.00  0.00    -0.215 OA
BRANCH  14  17
ATOM     17  C   UNL d   1      45.660 -15.308  43.930  0.00  0.00     0.090 A 
ATOM     18  C   UNL d   1      44.942 -14.964  44.139  0.00  0.00     0.011 A 
ATOM     19  C   UNL d   1      44.804 -14.169  43.999  0.00  0.00     0.001 A 
ATOM     20  C   UNL d   1      45.397 -13.708  43.644  0.00  0.00     0.000 A 
ATOM     21  C   UNL d   1      46.118 -14.057  43.435  0.00  0.00     0.001 A 
ATOM     22  C   UNL d   1      46.248 -14.851  43.577  0.00  0.00     0.011 A 
ENDBRANCH  14  17
ENDBRANCH   2  14
BRANCH   7  23
ATOM     23  N   UNL d   1      46.631 -18.107  41.641  0.00  0.00    -0.227 NA
BRANCH  23  24
ATOM     24  C   UNL d   1      46.035 -17.997  41.085  0.00  0.00     0.083 A 
ATOM     25  C   UNL d   1      46.225 -17.809  40.305  0.00  0.00     0.019 A 
ATOM     26  C   UNL d   1      45.627 -17.699  39.749  0.00  0.00     0.002 A 
ATOM     27  C   UNL d   1      45.818 -17.511  38.969  0.00  0.00     0.000 C 
ATOM     28  C   UNL d   1      44.832 -17.776  39.972  0.00  0.00     0.000 A 
ATOM     29  C   UNL d   1      44.647 -17.966  40.762  0.00  0.00     0.002 A 
ATOM     30  C   UNL d   1      45.246 -18.075  41.310  0.00  0.00     0.019 A 
ENDBRANCH  23  24
ENDBRANCH   7  23
TORSDOF 4
ENDMDL
