MODEL 1
REMARK VINA RESULT:      -2.3      0.000      0.000
REMARK  4 active torsions:
REMARK  status: ('A' for Active; 'I' for Inactive)
REMARK    1  A    between atoms: C_2  and  S_1 
REMARK    2  A    between atoms: N_3  and  S_1 
REMARK    3  A    between atoms: C_7  and  N_4 
REMARK    4  A    between atoms: O_16  and  C_13 
ROOT
ATOM      1  N   UNL d   1      58.456  -0.685  29.288  0.00  0.00    -0.226 N 
ATOM      2  N   UNL d   1      59.424  -2.011  29.082  0.00  0.00    -0.300 N 
ATOM      3  C   UNL d   1      59.181  -0.603  28.879  0.00  0.00     0.111 A 
ATOM      4  C   UNL d   1      58.224  -1.412  29.585  0.00  0.00     0.111 A 
ATOM      5  C   UNL d   1      58.709  -2.077  29.481  0.00  0.00     0.100 A 
ATOM      6  C   UNL d   1      59.649  -1.283  28.788  0.00  0.00     0.100 A 
ENDROOT
BRANCH   1   7
ATOM      7  S   UNL d   1      57.974  -0.023  29.391  0.00  0.00     0.274 S 
ATOM      8  O   UNL d   1      57.502  -0.265  28.727  0.00  0.00    -0.200 OA
ATOM      9  O   UNL d   1      57.488   0.642  29.495  0.00  0.00    -0.200 OA
BRANCH   7  10
ATOM     10  C   UNL d   1      58.435   0.212  30.040  0.00  0.00     0.131 A 
ATOM     11  C   UNL d   1      58.094   0.287  30.780  0.00  0.00     0.152 A 
ATOM     12  F   UNL d   1      57.280   0.128  30.891  0.00  0.00    -0.203 F 
ATOM     13  C   UNL d   1      58.552   0.521  31.425  0.00  0.00     0.030 A 
ATOM     14  C   UNL d   1      59.355   0.682  31.333  0.00  0.00     0.002 A 
ATOM     15  C   UNL d   1      59.687   0.604  30.588  0.00  0.00     0.001 A 
ATOM     16  C   UNL d   1      59.228   0.370  29.943  0.00  0.00     0.015 A 
ENDBRANCH   7  10
ENDBRANCH   1   7
BRANCH   2  17
ATOM     17  C   UNL d   1      59.887  -2.682  28.992  0.00  0.00     0.086 A 
ATOM     18  C   UNL d   1      59.528  -3.374  28.676  0.00  0.00     0.110 A 
ATOM     19  C   UNL d   1      59.998  -4.047  28.587  0.00  0.00     0.026 A 
ATOM     20  C   UNL d   1      60.781  -4.061  28.791  0.00  0.00     0.002 A 
ATOM     21  C   UNL d   1      61.126  -3.389  29.097  0.00  0.00     0.002 A 
ATOM     22  C   UNL d   1      60.680  -2.702  29.197  0.00  0.00     0.019 A 
BRANCH  18  23
ATOM     23  O   UNL d   1      58.715  -3.365  28.461  0.00  0.00    -0.327 OA
ATOM     24  C   UNL d   1      58.300  -4.067  28.455  0.00  0.00     0.181 C 
ENDBRANCH  18  23
ENDBRANCH   2  17
TORSDOF 4
ENDMDL
MODEL 2
REMARK VINA RESULT:      -2.1      1.909      4.281
REMARK  4 active torsions:
REMARK  status: ('A' for Active; 'I' for Inactive)
REMARK    1  A    between atoms: C_2  and  S_1 
REMARK    2  A    between atoms: N_3  and  S_1 
REMARK    3  A    between atoms: C_7  and  N_4 
REMARK    4  A    between atoms: O_16  and  C_13 
ROOT
ATOM      1  N   UNL d   1      57.799   0.007  29.979  0.00  0.00    -0.226 N 
ATOM      2  N   UNL d   1      57.133  -0.040  31.494  0.00  0.00    -0.300 N 
ATOM      3  C   UNL d   1      57.476  -0.710  30.263  0.00  0.00     0.111 A 
ATOM      4  C   UNL d   1      57.787   0.682  30.443  0.00  0.00     0.111 A 
ATOM      5  C   UNL d   1      57.453   0.658  31.203  0.00  0.00     0.100 A 
ATOM      6  C   UNL d   1      57.148  -0.709  31.026  0.00  0.00     0.100 A 
ENDROOT
BRANCH   1   7
ATOM      7  S   UNL d   1      58.131   0.030  29.225  0.00  0.00     0.274 S 
ATOM      8  O   UNL d   1      57.531   0.580  28.978  0.00  0.00    -0.200 OA
ATOM      9  O   UNL d   1      58.465   0.054  28.465  0.00  0.00    -0.200 OA
BRANCH   7  10
ATOM     10  C   UNL d   1      58.717  -0.506  29.466  0.00  0.00     0.131 A 
ATOM     11  C   UNL d   1      59.488  -0.253  29.567  0.00  0.00     0.152 A 
ATOM     12  F   UNL d   1      59.695   0.546  29.430  0.00  0.00    -0.203 F 
ATOM     13  C   UNL d   1      60.070  -0.786  29.807  0.00  0.00     0.030 A 
ATOM     14  C   UNL d   1      59.885  -1.576  29.946  0.00  0.00     0.002 A 
ATOM     15  C   UNL d   1      59.109  -1.820  29.842  0.00  0.00     0.001 A 
ATOM     16  C   UNL d   1      58.527  -1.286  29.602  0.00  0.00     0.015 A 
ENDBRANCH   7  10
ENDBRANCH   1   7
BRANCH   2  17
ATOM     17  C   UNL d   1      56.808  -0.039  32.247  0.00  0.00     0.086 A 
ATOM     18  C   UNL d   1      57.312   0.136  32.897  0.00  0.00     0.110 A 
ATOM     19  C   UNL d   1      56.980   0.136  33.653  0.00  0.00     0.026 A 
ATOM     20  C   UNL d   1      56.198  -0.025  33.785  0.00  0.00     0.002 A 
ATOM     21  C   UNL d   1      55.713  -0.194  33.154  0.00  0.00     0.002 A 
ATOM     22  C   UNL d   1      56.017  -0.201  32.387  0.00  0.00     0.019 A 
BRANCH  18  23
ATOM     23  O   UNL d   1      58.126   0.304  32.766  0.00  0.00    -0.327 OA
ATOM     24  C   UNL d   1      58.551   0.682  33.350  0.00  0.00     0.181 C 
ENDBRANCH  18  23
ENDBRANCH   2  17
TORSDOF 4
ENDMDL
MODEL 3
REMARK VINA RESULT:      -1.9      2.838      3.818
REMARK  4 active torsions:
REMARK  status: ('A' for Active; 'I' for Inactive)
REMARK    1  A    between atoms: C_2  and  S_1 
REMARK    2  A    between atoms: N_3  and  S_1 
REMARK    3  A    between atoms: C_7  and  N_4 
REMARK    4  A    between atoms: O_16  and  C_13 
ROOT
ATOM      1  N   UNL d   1      56.642  -0.654  31.935  0.00  0.00    -0.226 N 
ATOM      2  N   UNL d   1      57.870  -0.095  30.977  0.00  0.00    -0.300 N 
ATOM      3  C   UNL d   1      56.575   0.101  31.581  0.00  0.00     0.111 A 
ATOM      4  C   UNL d   1      57.308  -1.115  31.811  0.00  0.00     0.111 A 
ATOM      5  C   UNL d   1      57.924  -0.834  31.331  0.00  0.00     0.100 A 
ATOM      6  C   UNL d   1      57.204   0.359  31.105  0.00  0.00     0.100 A 
ENDROOT
BRANCH   1   7
ATOM      7  S   UNL d   1      56.029  -0.933  32.412  0.00  0.00     0.274 S 
ATOM      8  O   UNL d   1      55.808  -1.485  31.805  0.00  0.00    -0.200 OA
ATOM      9  O   UNL d   1      55.413  -1.213  32.892  0.00  0.00    -0.200 OA
BRANCH   7  10
ATOM     10  C   UNL d   1      56.246  -0.394  33.005  0.00  0.00     0.131 A 
ATOM     11  C   UNL d   1      55.700   0.146  33.288  0.00  0.00     0.152 A 
ATOM     12  F   UNL d   1      54.921   0.161  32.985  0.00  0.00    -0.203 F 
ATOM     13  C   UNL d   1      55.916   0.682  33.877  0.00  0.00     0.030 A 
ATOM     14  C   UNL d   1      56.678   0.681  34.187  0.00  0.00     0.002 A 
ATOM     15  C   UNL d   1      57.218   0.136  33.897  0.00  0.00     0.001 A 
ATOM     16  C   UNL d   1      57.003  -0.400  33.308  0.00  0.00     0.015 A 
ENDBRANCH   7  10
ENDBRANCH   1   7
BRANCH   2  17
ATOM     17  C   UNL d   1      58.492   0.161  30.507  0.00  0.00     0.086 A 
ATOM     18  C   UNL d   1      58.331   0.350  29.704  0.00  0.00     0.110 A 
ATOM     19  C   UNL d   1      58.960   0.607  29.234  0.00  0.00     0.026 A 
ATOM     20  C   UNL d   1      59.714   0.682  29.519  0.00  0.00     0.002 A 
ATOM     21  C   UNL d   1      59.866   0.498  30.298  0.00  0.00     0.002 A 
ATOM     22  C   UNL d   1      59.257   0.239  30.790  0.00  0.00     0.019 A 
BRANCH  18  23
ATOM     23  O   UNL d   1      57.550   0.274  29.401  0.00  0.00    -0.327 OA
ATOM     24  C   UNL d   1      57.400   0.496  28.631  0.00  0.00     0.181 C 
ENDBRANCH  18  23
ENDBRANCH   2  17
TORSDOF 4
ENDMDL
