MODEL 1
REMARK VINA RESULT:      -2.4      0.000      0.000
REMARK  5 active torsions:
REMARK  status: ('A' for Active; 'I' for Inactive)
REMARK    1  A    between atoms: C_7  and  N_2 
REMARK    2  A    between atoms: C_8  and  C_7 
REMARK    3  A    between atoms: C_13  and  C_8 
REMARK    4  A    between atoms: C_9  and  O_11 
REMARK    5  A    between atoms: O_11  and  C_13 
ROOT
ATOM      1  C   UNL d   1      33.089  18.524 -22.437  0.00  0.00     0.378 A 
ATOM      2  N   UNL d   1      33.067  19.201 -22.918  0.00  0.00    -0.251 N 
ATOM      3  O   UNL d   1      32.935  17.869 -22.910  0.00  0.00    -0.258 OA
ATOM      4  C   UNL d   1      32.898  18.951 -23.693  0.00  0.00     0.092 A 
ATOM      5  C   UNL d   1      32.818  18.130 -23.686  0.00  0.00     0.121 A 
ATOM      6  O   UNL d   1      33.238  18.518 -21.627  0.00  0.00    -0.237 OA
ATOM      7  C   UNL d   1      32.811  19.375 -24.394  0.00  0.00     0.020 A 
ATOM      8  C   UNL d   1      32.646  17.724 -24.393  0.00  0.00     0.026 A 
ATOM      9  C   UNL d   1      32.640  18.970 -25.097  0.00  0.00     0.002 A 
ATOM     10  C   UNL d   1      32.558  18.146 -25.096  0.00  0.00     0.002 A 
ENDROOT
BRANCH   2  11
ATOM     11  C   UNL d   1      33.189  19.971 -22.672  0.00  0.00     0.087 C 
BRANCH  11  12
ATOM     12  C   UNL d   1      32.759  20.287 -22.047  0.00  0.00     0.046 C 
BRANCH  12  13
ATOM     13  C   UNL d   1      32.960  21.009 -21.727  0.00  0.00     0.124 C 
BRANCH  13  14
ATOM     14  O   UNL d   1      32.379  21.541 -21.490  0.00  0.00    -0.305 OA
BRANCH  14  15
ATOM     15  C   UNL d   1      32.563  22.177 -20.994  0.00  0.00     0.100 A 
ATOM     16  C   UNL d   1      32.828  22.039 -20.232  0.00  0.00     0.025 A 
ATOM     17  C   UNL d   1      33.013  22.676 -19.736  0.00  0.00     0.002 A 
ATOM     18  C   UNL d   1      32.928  23.443 -20.013  0.00  0.00     0.000 A 
ATOM     19  C   UNL d   1      32.661  23.581 -20.783  0.00  0.00     0.002 A 
ATOM     20  C   UNL d   1      32.476  22.945 -21.279  0.00  0.00     0.025 A 
ENDBRANCH  14  15
ENDBRANCH  13  14
ENDBRANCH  12  13
ENDBRANCH  11  12
ENDBRANCH   2  11
TORSDOF 5
ENDMDL
MODEL 2
REMARK VINA RESULT:      -2.3      2.500      3.924
REMARK  5 active torsions:
REMARK  status: ('A' for Active; 'I' for Inactive)
REMARK    1  A    between atoms: C_7  and  N_2 
REMARK    2  A    between atoms: C_8  and  C_7 
REMARK    3  A    between atoms: C_13  and  C_8 
REMARK    4  A    between atoms: C_9  and  O_11 
REMARK    5  A    between atoms: O_11  and  C_13 
ROOT
ATOM      1  C   UNL d   1      31.210  15.967 -24.906  0.00  0.00     0.378 A 
ATOM      2  N   UNL d   1      31.003  16.752 -24.730  0.00  0.00    -0.251 N 
ATOM      3  O   UNL d   1      30.531  15.507 -24.858  0.00  0.00    -0.258 OA
ATOM      4  C   UNL d   1      30.186  16.765 -24.575  0.00  0.00     0.092 A 
ATOM      5  C   UNL d   1      29.897  15.997 -24.654  0.00  0.00     0.121 A 
ATOM      6  O   UNL d   1      31.967  15.704 -25.094  0.00  0.00    -0.237 OA
ATOM      7  C   UNL d   1      29.681  17.385 -24.372  0.00  0.00     0.020 A 
ATOM      8  C   UNL d   1      29.088  15.844 -24.529  0.00  0.00     0.026 A 
ATOM      9  C   UNL d   1      28.876  17.230 -24.248  0.00  0.00     0.002 A 
ATOM     10  C   UNL d   1      28.580  16.461 -24.326  0.00  0.00     0.002 A 
ENDROOT
BRANCH   2  11
ATOM     11  C   UNL d   1      31.510  17.393 -24.714  0.00  0.00     0.087 C 
BRANCH  11  12
ATOM     12  C   UNL d   1      32.113  17.438 -24.157  0.00  0.00     0.046 C 
BRANCH  12  13
ATOM     13  C   UNL d   1      32.479  18.149 -23.997  0.00  0.00     0.124 C 
BRANCH  13  14
ATOM     14  O   UNL d   1      32.915  18.252 -23.308  0.00  0.00    -0.305 OA
BRANCH  14  15
ATOM     15  C   UNL d   1      33.024  19.005 -22.983  0.00  0.00     0.100 A 
ATOM     16  C   UNL d   1      33.090  19.656 -23.474  0.00  0.00     0.025 A 
ATOM     17  C   UNL d   1      33.199  20.410 -23.149  0.00  0.00     0.002 A 
ATOM     18  C   UNL d   1      33.240  20.499 -22.335  0.00  0.00     0.000 A 
ATOM     19  C   UNL d   1      33.173  19.840 -21.840  0.00  0.00     0.002 A 
ATOM     20  C   UNL d   1      33.064  19.087 -22.164  0.00  0.00     0.025 A 
ENDBRANCH  14  15
ENDBRANCH  13  14
ENDBRANCH  12  13
ENDBRANCH  11  12
ENDBRANCH   2  11
TORSDOF 5
ENDMDL
MODEL 3
REMARK VINA RESULT:      -2.2      1.320      5.069
REMARK  5 active torsions:
REMARK  status: ('A' for Active; 'I' for Inactive)
REMARK    1  A    between atoms: C_7  and  N_2 
REMARK    2  A    between atoms: C_8  and  C_7 
REMARK    3  A    between atoms: C_13  and  C_8 
REMARK    4  A    between atoms: C_9  and  O_11 
REMARK    5  A    between atoms: O_11  and  C_13 
ROOT
ATOM      1  C   UNL d   1      33.171  20.976 -22.985  0.00  0.00     0.378 A 
ATOM      2  N   UNL d   1      33.171  20.344 -22.445  0.00  0.00    -0.251 N 
ATOM      3  O   UNL d   1      33.089  21.675 -22.559  0.00  0.00    -0.258 OA
ATOM      4  C   UNL d   1      33.089  20.666 -21.683  0.00  0.00     0.092 A 
ATOM      5  C   UNL d   1      33.038  21.487 -21.755  0.00  0.00     0.121 A 
ATOM      6  O   UNL d   1      33.241  20.906 -23.802  0.00  0.00    -0.237 OA
ATOM      7  C   UNL d   1      33.054  20.308 -20.942  0.00  0.00     0.020 A 
ATOM      8  C   UNL d   1      32.951  21.958 -21.074  0.00  0.00     0.026 A 
ATOM      9  C   UNL d   1      32.968  20.779 -20.265  0.00  0.00     0.002 A 
ATOM     10  C   UNL d   1      32.916  21.603 -20.331  0.00  0.00     0.002 A 
ENDROOT
BRANCH   2  11
ATOM     11  C   UNL d   1      33.241  19.551 -22.631  0.00  0.00     0.087 C 
BRANCH  11  12
ATOM     12  C   UNL d   1      32.780  19.216 -23.224  0.00  0.00     0.046 C 
BRANCH  12  13
ATOM     13  C   UNL d   1      32.757  18.407 -23.325  0.00  0.00     0.124 C 
BRANCH  13  14
ATOM     14  O   UNL d   1      32.113  18.048 -23.690  0.00  0.00    -0.305 OA
BRANCH  14  15
ATOM     15  C   UNL d   1      32.073  17.224 -23.764  0.00  0.00     0.100 A 
ATOM     16  C   UNL d   1      31.458  16.812 -23.418  0.00  0.00     0.025 A 
ATOM     17  C   UNL d   1      31.418  15.988 -23.493  0.00  0.00     0.002 A 
ATOM     18  C   UNL d   1      31.998  15.590 -23.913  0.00  0.00     0.000 A 
ATOM     19  C   UNL d   1      32.621  16.008 -24.262  0.00  0.00     0.002 A 
ATOM     20  C   UNL d   1      32.661  16.831 -24.188  0.00  0.00     0.025 A 
ENDBRANCH  14  15
ENDBRANCH  13  14
ENDBRANCH  12  13
ENDBRANCH  11  12
ENDBRANCH   2  11
TORSDOF 5
ENDMDL
MODEL 4
REMARK VINA RESULT:      -1.5      3.275      4.980
REMARK  5 active torsions:
REMARK  status: ('A' for Active; 'I' for Inactive)
REMARK    1  A    between atoms: C_7  and  N_2 
REMARK    2  A    between atoms: C_8  and  C_7 
REMARK    3  A    between atoms: C_13  and  C_8 
REMARK    4  A    between atoms: C_9  and  O_11 
REMARK    5  A    between atoms: O_11  and  C_13 
ROOT
ATOM      1  C   UNL d   1      28.818  17.847 -24.624  0.00  0.00     0.378 A 
ATOM      2  N   UNL d   1      29.387  17.242 -24.595  0.00  0.00    -0.251 N 
ATOM      3  O   UNL d   1      28.201  17.642 -24.121  0.00  0.00    -0.258 OA
ATOM      4  C   UNL d   1      29.109  16.663 -24.068  0.00  0.00     0.092 A 
ATOM      5  C   UNL d   1      28.378  16.911 -23.776  0.00  0.00     0.121 A 
ATOM      6  O   UNL d   1      28.871  18.531 -25.079  0.00  0.00    -0.237 OA
ATOM      7  C   UNL d   1      29.436  15.947 -23.824  0.00  0.00     0.020 A 
ATOM      8  C   UNL d   1      27.966  16.435 -23.231  0.00  0.00     0.026 A 
ATOM      9  C   UNL d   1      29.025  15.475 -23.281  0.00  0.00     0.002 A 
ATOM     10  C   UNL d   1      28.291  15.718 -22.985  0.00  0.00     0.002 A 
ENDROOT
BRANCH   2  11
ATOM     11  C   UNL d   1      30.090  17.222 -25.011  0.00  0.00     0.087 C 
BRANCH  11  12
ATOM     12  C   UNL d   1      30.665  17.798 -24.895  0.00  0.00     0.046 C 
BRANCH  12  13
ATOM     13  C   UNL d   1      31.427  17.591 -24.691  0.00  0.00     0.124 C 
BRANCH  13  14
ATOM     14  O   UNL d   1      32.011  18.164 -24.611  0.00  0.00    -0.305 OA
BRANCH  14  15
ATOM     15  C   UNL d   1      32.424  18.253 -23.900  0.00  0.00     0.100 A 
ATOM     16  C   UNL d   1      32.792  17.608 -23.557  0.00  0.00     0.025 A 
ATOM     17  C   UNL d   1      33.204  17.698 -22.844  0.00  0.00     0.002 A 
ATOM     18  C   UNL d   1      33.241  18.434 -22.486  0.00  0.00     0.000 A 
ATOM     19  C   UNL d   1      32.868  19.086 -22.834  0.00  0.00     0.002 A 
ATOM     20  C   UNL d   1      32.456  18.997 -23.546  0.00  0.00     0.025 A 
ENDBRANCH  14  15
ENDBRANCH  13  14
ENDBRANCH  12  13
ENDBRANCH  11  12
ENDBRANCH   2  11
TORSDOF 5
ENDMDL
MODEL 5
REMARK VINA RESULT:      -1.0      1.212      5.140
REMARK  5 active torsions:
REMARK  status: ('A' for Active; 'I' for Inactive)
REMARK    1  A    between atoms: C_7  and  N_2 
REMARK    2  A    between atoms: C_8  and  C_7 
REMARK    3  A    between atoms: C_13  and  C_8 
REMARK    4  A    between atoms: C_9  and  O_11 
REMARK    5  A    between atoms: O_11  and  C_13 
ROOT
ATOM      1  C   UNL d   1      32.384  22.909 -21.665  0.00  0.00     0.378 A 
ATOM      2  N   UNL d   1      32.857  22.376 -21.238  0.00  0.00    -0.251 N 
ATOM      3  O   UNL d   1      32.109  23.481 -21.142  0.00  0.00    -0.258 OA
ATOM      4  C   UNL d   1      32.867  22.629 -20.447  0.00  0.00     0.092 A 
ATOM      5  C   UNL d   1      32.405  23.310 -20.389  0.00  0.00     0.121 A 
ATOM      6  O   UNL d   1      32.224  22.866 -22.471  0.00  0.00    -0.237 OA
ATOM      7  C   UNL d   1      33.241  22.318 -19.781  0.00  0.00     0.020 A 
ATOM      8  C   UNL d   1      32.315  23.689 -19.652  0.00  0.00     0.026 A 
ATOM      9  C   UNL d   1      33.150  22.696 -19.048  0.00  0.00     0.002 A 
ATOM     10  C   UNL d   1      32.687  23.381 -18.984  0.00  0.00     0.002 A 
ENDROOT
BRANCH   2  11
ATOM     11  C   UNL d   1      33.241  21.722 -21.543  0.00  0.00     0.087 C 
BRANCH  11  12
ATOM     12  C   UNL d   1      32.816  21.076 -21.822  0.00  0.00     0.046 C 
BRANCH  12  13
ATOM     13  C   UNL d   1      33.180  20.501 -22.271  0.00  0.00     0.124 C 
BRANCH  13  14
ATOM     14  O   UNL d   1      33.088  19.704 -22.090  0.00  0.00    -0.305 OA
BRANCH  14  15
ATOM     15  C   UNL d   1      33.120  19.128 -22.682  0.00  0.00     0.100 A 
ATOM     16  C   UNL d   1      33.063  18.336 -22.486  0.00  0.00     0.025 A 
ATOM     17  C   UNL d   1      33.095  17.759 -23.080  0.00  0.00     0.002 A 
ATOM     18  C   UNL d   1      33.183  17.987 -23.862  0.00  0.00     0.000 A 
ATOM     19  C   UNL d   1      33.240  18.788 -24.059  0.00  0.00     0.002 A 
ATOM     20  C   UNL d   1      33.209  19.364 -23.467  0.00  0.00     0.025 A 
ENDBRANCH  14  15
ENDBRANCH  13  14
ENDBRANCH  12  13
ENDBRANCH  11  12
ENDBRANCH   2  11
TORSDOF 5
ENDMDL
