MODEL 1
REMARK VINA RESULT:      94.3      0.000      0.000
REMARK  7 active torsions:
REMARK  status: ('A' for Active; 'I' for Inactive)
REMARK    1  A    between atoms: C_11  and  C_1 
REMARK    2  A    between atoms: C_12  and  C_3 
REMARK    3  A    between atoms: C_10  and  C_5 
REMARK    4  A    between atoms: O_21  and  C_11 
REMARK    5  A    between atoms: O_22  and  C_12 
REMARK    6  A    between atoms: O_23  and  C_14 
REMARK    7  A    between atoms: O_24  and  C_17 
ROOT
ATOM      1  C   UNL d   1     -47.886  30.950  34.844  0.00  0.00     0.075 A 
ATOM      2  C   UNL d   1     -46.838  31.190  36.088  0.00  0.00     0.121 A 
ATOM      3  C   UNL d   1     -47.565  31.701  34.985  0.00  0.00     0.099 A 
ATOM      4  C   UNL d   1     -47.154  30.437  35.955  0.00  0.00     0.058 A 
ATOM      5  C   UNL d   1     -47.681  30.322  35.326  0.00  0.00     0.014 A 
ATOM      6  S   UNL d   1     -47.043  31.818  35.606  0.00  0.00    -0.062 SA
ATOM      7  N   UNL d   1     -46.339  31.135  36.741  0.00  0.00    -0.195 NA
ATOM      8  C   UNL d   1     -46.343  30.361  37.010  0.00  0.00     0.311 A 
ATOM      9  S   UNL d   1     -46.849  29.926  36.524  0.00  0.00    -0.024 SA
ATOM     10  O   UNL d   1     -45.921  30.061  37.653  0.00  0.00    -0.258 OA
ENDROOT
BRANCH   5  11
ATOM     11  C   UNL d   1     -47.995  29.572  35.194  0.00  0.00     0.003 A 
ATOM     12  C   UNL d   1     -48.456  29.216  35.765  0.00  0.00     0.026 A 
ATOM     13  C   UNL d   1     -48.769  28.463  35.628  0.00  0.00     0.116 A 
ATOM     14  C   UNL d   1     -48.613  28.076  34.916  0.00  0.00     0.116 A 
ATOM     15  C   UNL d   1     -48.146  28.442  34.342  0.00  0.00     0.026 A 
ATOM     16  C   UNL d   1     -47.837  29.186  34.479  0.00  0.00     0.002 A 
BRANCH  13  17
ATOM     17  O   UNL d   1     -49.236  28.101  36.204  0.00  0.00    -0.326 OA
ATOM     18  C   UNL d   1     -49.299  28.440  36.956  0.00  0.00     0.181 C 
ENDBRANCH  13  17
BRANCH  14  19
ATOM     19  O   UNL d   1     -48.926  27.323  34.778  0.00  0.00    -0.326 OA
ATOM     20  C   UNL d   1     -49.279  27.150  34.054  0.00  0.00     0.181 C 
ENDBRANCH  14  19
ENDBRANCH   5  11
BRANCH   1  21
ATOM     21  C   UNL d   1     -48.410  30.836  34.220  0.00  0.00     0.296 C 
ATOM     22  O   UNL d   1     -48.126  30.620  33.475  0.00  0.00    -0.259 OA
BRANCH  21  23
ATOM     23  O   UNL d   1     -49.220  30.936  34.338  0.00  0.00    -0.296 OA
ATOM     24  C   UNL d   1     -49.723  30.980  33.689  0.00  0.00     0.185 C 
ENDBRANCH  21  23
ENDBRANCH   1  21
BRANCH   3  25
ATOM     25  C   UNL d   1     -47.770  32.329  34.503  0.00  0.00     0.302 C 
ATOM     26  O   UNL d   1     -48.456  32.763  34.646  0.00  0.00    -0.259 OA
BRANCH  25  27
ATOM     27  O   UNL d   1     -47.287  32.533  33.865  0.00  0.00    -0.295 OA
ATOM     28  C   UNL d   1     -47.417  33.244  33.464  0.00  0.00     0.185 C 
ENDBRANCH  25  27
ENDBRANCH   3  25
TORSDOF 7
ENDMDL
MODEL 2
REMARK VINA RESULT:      95.0      1.536      4.067
REMARK  7 active torsions:
REMARK  status: ('A' for Active; 'I' for Inactive)
REMARK    1  A    between atoms: C_11  and  C_1 
REMARK    2  A    between atoms: C_12  and  C_3 
REMARK    3  A    between atoms: C_10  and  C_5 
REMARK    4  A    between atoms: O_21  and  C_11 
REMARK    5  A    between atoms: O_22  and  C_12 
REMARK    6  A    between atoms: O_23  and  C_14 
REMARK    7  A    between atoms: O_24  and  C_17 
ROOT
ATOM      1  C   UNL d   1     -47.338  30.586  35.759  0.00  0.00     0.075 A 
ATOM      2  C   UNL d   1     -48.081  29.202  35.274  0.00  0.00     0.121 A 
ATOM      3  C   UNL d   1     -47.232  29.882  36.182  0.00  0.00     0.099 A 
ATOM      4  C   UNL d   1     -48.192  29.901  34.846  0.00  0.00     0.058 A 
ATOM      5  C   UNL d   1     -47.816  30.596  35.095  0.00  0.00     0.014 A 
ATOM      6  S   UNL d   1     -47.603  29.193  35.938  0.00  0.00    -0.062 SA
ATOM      7  N   UNL d   1     -48.518  28.613  34.900  0.00  0.00    -0.195 NA
ATOM      8  C   UNL d   1     -48.896  28.938  34.250  0.00  0.00     0.311 A 
ATOM      9  S   UNL d   1     -48.695  29.739  34.214  0.00  0.00    -0.024 SA
ATOM     10  O   UNL d   1     -49.391  28.544  33.719  0.00  0.00    -0.258 OA
ENDROOT
BRANCH   5  11
ATOM     11  C   UNL d   1     -47.927  31.291  34.669  0.00  0.00     0.003 A 
ATOM     12  C   UNL d   1     -47.323  31.591  34.209  0.00  0.00     0.026 A 
ATOM     13  C   UNL d   1     -47.440  32.289  33.783  0.00  0.00     0.116 A 
ATOM     14  C   UNL d   1     -48.166  32.680  33.824  0.00  0.00     0.116 A 
ATOM     15  C   UNL d   1     -48.774  32.372  34.290  0.00  0.00     0.026 A 
ATOM     16  C   UNL d   1     -48.657  31.681  34.711  0.00  0.00     0.002 A 
BRANCH  13  17
ATOM     17  O   UNL d   1     -46.830  32.593  33.318  0.00  0.00    -0.326 OA
ATOM     18  C   UNL d   1     -46.687  33.407  33.308  0.00  0.00     0.181 C 
ENDBRANCH  13  17
BRANCH  14  19
ATOM     19  O   UNL d   1     -48.283  33.378  33.397  0.00  0.00    -0.326 OA
ATOM     20  C   UNL d   1     -49.042  33.688  33.315  0.00  0.00     0.181 C 
ENDBRANCH  14  19
ENDBRANCH   5  11
BRANCH   1  21
ATOM     21  C   UNL d   1     -46.964  31.276  36.006  0.00  0.00     0.296 C 
ATOM     22  O   UNL d   1     -46.315  31.568  35.588  0.00  0.00    -0.259 OA
BRANCH  21  23
ATOM     23  O   UNL d   1     -47.238  31.678  36.673  0.00  0.00    -0.296 OA
ATOM     24  C   UNL d   1     -47.148  32.493  36.722  0.00  0.00     0.185 C 
ENDBRANCH  21  23
ENDBRANCH   1  21
BRANCH   3  25
ATOM     25  C   UNL d   1     -46.754  29.872  36.846  0.00  0.00     0.302 C 
ATOM     26  O   UNL d   1     -45.939  29.776  36.775  0.00  0.00    -0.259 OA
BRANCH  25  27
ATOM     27  O   UNL d   1     -47.089  29.960  37.595  0.00  0.00    -0.295 OA
ATOM     28  C   UNL d   1     -46.907  29.418  38.191  0.00  0.00     0.185 C 
ENDBRANCH  25  27
ENDBRANCH   3  25
TORSDOF 7
ENDMDL
