MODEL 1
REMARK VINA RESULT:      -7.2      0.000      0.000
REMARK  4 active torsions:
REMARK  status: ('A' for Active; 'I' for Inactive)
REMARK    1  A    between atoms: C_7  and  C_2 
REMARK    2  A    between atoms: C_6  and  C_3 
REMARK    3  A    between atoms: C_11  and  C_6 
REMARK    4  A    between atoms: N_10  and  C_9 
ROOT
ATOM      1  N   UNL d   1     -49.964  13.727  23.094  0.00  0.00    -0.220 NA
ATOM      2  C   UNL d   1     -50.373  14.403  22.839  0.00  0.00     0.161 A 
ATOM      3  C   UNL d   1     -50.172  13.107  22.589  0.00  0.00     0.146 A 
ATOM      4  O   UNL d   1     -50.827  14.191  22.180  0.00  0.00    -0.257 OA
ATOM      5  C   UNL d   1     -50.703  13.392  22.027  0.00  0.00     0.319 A 
ATOM      6  O   UNL d   1     -51.047  12.945  21.418  0.00  0.00    -0.257 OA
ENDROOT
BRANCH   3   7
ATOM      7  C   UNL d   1     -49.893  12.332  22.640  0.00  0.00     0.025 C 
BRANCH   7   8
ATOM      8  C   UNL d   1     -49.089  12.187  22.806  0.00  0.00     0.002 A 
ATOM      9  C   UNL d   1     -48.522  12.364  22.243  0.00  0.00     0.002 A 
ATOM     10  C   UNL d   1     -47.728  12.227  22.394  0.00  0.00     0.018 A 
ATOM     11  C   UNL d   1     -47.503  11.905  23.128  0.00  0.00     0.064 A 
ATOM     12  C   UNL d   1     -48.077  11.726  23.697  0.00  0.00     0.018 A 
ATOM     13  C   UNL d   1     -48.868  11.868  23.535  0.00  0.00     0.002 A 
BRANCH  11  14
ATOM     14  N   UNL d   1     -46.713  11.763  23.290  0.00  0.00    -0.301 N 
ATOM     15  C   UNL d   1     -46.475  11.049  23.623  0.00  0.00     0.100 C 
ATOM     16  C   UNL d   1     -46.149  12.344  23.118  0.00  0.00     0.100 C 
ENDBRANCH  11  14
ENDBRANCH   7   8
ENDBRANCH   3   7
BRANCH   2  17
ATOM     17  C   UNL d   1     -50.332  15.142  23.179  0.00  0.00     0.058 C 
ATOM     18  C   UNL d   1     -49.698  15.631  23.026  0.00  0.00     0.008 C 
ATOM     19  C   UNL d   1     -50.219  15.895  23.481  0.00  0.00     0.008 C 
ATOM     20  C   UNL d   1     -50.935  15.396  23.682  0.00  0.00     0.008 C 
ENDBRANCH   2  17
TORSDOF 4
ENDMDL
MODEL 2
REMARK VINA RESULT:      -7.1      1.247      1.675
REMARK  4 active torsions:
REMARK  status: ('A' for Active; 'I' for Inactive)
REMARK    1  A    between atoms: C_7  and  C_2 
REMARK    2  A    between atoms: C_6  and  C_3 
REMARK    3  A    between atoms: C_11  and  C_6 
REMARK    4  A    between atoms: N_10  and  C_9 
ROOT
ATOM      1  N   UNL d   1     -49.571  13.134  22.942  0.00  0.00    -0.220 NA
ATOM      2  C   UNL d   1     -50.351  13.330  23.147  0.00  0.00     0.161 A 
ATOM      3  C   UNL d   1     -49.461  12.335  23.119  0.00  0.00     0.146 A 
ATOM      4  O   UNL d   1     -50.712  12.649  23.447  0.00  0.00    -0.257 OA
ATOM      5  C   UNL d   1     -50.164  12.036  23.430  0.00  0.00     0.319 A 
ATOM      6  O   UNL d   1     -50.287  11.254  23.679  0.00  0.00    -0.257 OA
ENDROOT
BRANCH   3   7
ATOM      7  C   UNL d   1     -48.764  11.908  23.004  0.00  0.00     0.025 C 
BRANCH   7   8
ATOM      8  C   UNL d   1     -48.041  12.310  22.895  0.00  0.00     0.002 A 
ATOM      9  C   UNL d   1     -47.861  12.624  22.161  0.00  0.00     0.002 A 
ATOM     10  C   UNL d   1     -47.154  13.021  22.041  0.00  0.00     0.018 A 
ATOM     11  C   UNL d   1     -46.620  13.102  22.675  0.00  0.00     0.064 A 
ATOM     12  C   UNL d   1     -46.805  12.785  23.417  0.00  0.00     0.018 A 
ATOM     13  C   UNL d   1     -47.514  12.390  23.525  0.00  0.00     0.002 A 
BRANCH  11  14
ATOM     14  N   UNL d   1     -45.910  13.498  22.567  0.00  0.00    -0.301 N 
ATOM     15  C   UNL d   1     -45.239  13.092  22.320  0.00  0.00     0.100 C 
ATOM     16  C   UNL d   1     -45.869  14.312  22.709  0.00  0.00     0.100 C 
ENDBRANCH  11  14
ENDBRANCH   7   8
ENDBRANCH   3   7
BRANCH   2  17
ATOM     17  C   UNL d   1     -50.696  14.063  23.065  0.00  0.00     0.058 C 
ATOM     18  C   UNL d   1     -50.729  14.576  23.697  0.00  0.00     0.008 C 
ATOM     19  C   UNL d   1     -51.025  14.814  23.062  0.00  0.00     0.008 C 
ATOM     20  C   UNL d   1     -51.014  14.288  22.337  0.00  0.00     0.008 C 
ENDBRANCH   2  17
TORSDOF 4
ENDMDL
MODEL 3
REMARK VINA RESULT:      -7.0      1.402      2.325
REMARK  4 active torsions:
REMARK  status: ('A' for Active; 'I' for Inactive)
REMARK    1  A    between atoms: C_7  and  C_2 
REMARK    2  A    between atoms: C_6  and  C_3 
REMARK    3  A    between atoms: C_11  and  C_6 
REMARK    4  A    between atoms: N_10  and  C_9 
ROOT
ATOM      1  N   UNL d   1     -49.348  13.738  22.696  0.00  0.00    -0.220 NA
ATOM      2  C   UNL d   1     -50.148  13.709  22.915  0.00  0.00     0.161 A 
ATOM      3  C   UNL d   1     -49.118  14.532  22.704  0.00  0.00     0.146 A 
ATOM      4  O   UNL d   1     -50.401  14.484  23.055  0.00  0.00    -0.257 OA
ATOM      5  C   UNL d   1     -49.767  14.991  22.925  0.00  0.00     0.319 A 
ATOM      6  O   UNL d   1     -49.769  15.817  23.000  0.00  0.00    -0.257 OA
ENDROOT
BRANCH   3   7
ATOM      7  C   UNL d   1     -48.366  14.816  22.520  0.00  0.00     0.025 C 
BRANCH   7   8
ATOM      8  C   UNL d   1     -47.708  14.304  22.548  0.00  0.00     0.002 A 
ATOM      9  C   UNL d   1     -47.541  13.826  21.905  0.00  0.00     0.002 A 
ATOM     10  C   UNL d   1     -46.897  13.319  21.920  0.00  0.00     0.018 A 
ATOM     11  C   UNL d   1     -46.413  13.295  22.597  0.00  0.00     0.064 A 
ATOM     12  C   UNL d   1     -46.583  13.779  23.246  0.00  0.00     0.018 A 
ATOM     13  C   UNL d   1     -47.229  14.282  23.220  0.00  0.00     0.002 A 
BRANCH  11  14
ATOM     14  N   UNL d   1     -45.767  12.791  22.623  0.00  0.00    -0.301 N 
ATOM     15  C   UNL d   1     -45.095  12.951  22.178  0.00  0.00     0.100 C 
ATOM     16  C   UNL d   1     -45.792  12.117  23.102  0.00  0.00     0.100 C 
ENDBRANCH  11  14
ENDBRANCH   7   8
ENDBRANCH   3   7
BRANCH   2  17
ATOM     17  C   UNL d   1     -50.600  13.034  22.980  0.00  0.00     0.058 C 
ATOM     18  C   UNL d   1     -50.677  12.656  23.698  0.00  0.00     0.008 C 
ATOM     19  C   UNL d   1     -51.035  12.355  23.125  0.00  0.00     0.008 C 
ATOM     20  C   UNL d   1     -50.983  12.731  22.314  0.00  0.00     0.008 C 
ENDBRANCH   2  17
TORSDOF 4
ENDMDL
MODEL 4
REMARK VINA RESULT:      -6.2      9.543     10.902
REMARK  4 active torsions:
REMARK  status: ('A' for Active; 'I' for Inactive)
REMARK    1  A    between atoms: C_7  and  C_2 
REMARK    2  A    between atoms: C_6  and  C_3 
REMARK    3  A    between atoms: C_11  and  C_6 
REMARK    4  A    between atoms: N_10  and  C_9 
ROOT
ATOM      1  N   UNL d   1     -39.505  14.657  18.065  0.00  0.00    -0.220 NA
ATOM      2  C   UNL d   1     -39.400  14.255  17.346  0.00  0.00     0.161 A 
ATOM      3  C   UNL d   1     -40.234  15.044  18.028  0.00  0.00     0.146 A 
ATOM      4  O   UNL d   1     -40.066  14.400  16.876  0.00  0.00    -0.257 OA
ATOM      5  C   UNL d   1     -40.579  14.886  17.296  0.00  0.00     0.319 A 
ATOM      6  O   UNL d   1     -41.315  15.171  17.038  0.00  0.00    -0.257 OA
ENDROOT
BRANCH   3   7
ATOM      7  C   UNL d   1     -40.561  15.511  18.625  0.00  0.00     0.025 C 
BRANCH   7   8
ATOM      8  C   UNL d   1     -40.280  15.444  19.408  0.00  0.00     0.002 A 
ATOM      9  C   UNL d   1     -39.664  15.922  19.658  0.00  0.00     0.002 A 
ATOM     10  C   UNL d   1     -39.380  15.866  20.424  0.00  0.00     0.018 A 
ATOM     11  C   UNL d   1     -39.724  15.318  20.948  0.00  0.00     0.064 A 
ATOM     12  C   UNL d   1     -40.347  14.837  20.694  0.00  0.00     0.018 A 
ATOM     13  C   UNL d   1     -40.623  14.901  19.925  0.00  0.00     0.002 A 
BRANCH  11  14
ATOM     14  N   UNL d   1     -39.448  15.254  21.717  0.00  0.00    -0.301 N 
ATOM     15  C   UNL d   1     -39.179  14.533  22.006  0.00  0.00     0.100 C 
ATOM     16  C   UNL d   1     -39.439  15.922  22.206  0.00  0.00     0.100 C 
ENDBRANCH  11  14
ENDBRANCH   7   8
ENDBRANCH   3   7
BRANCH   2  17
ATOM     17  C   UNL d   1     -38.756  13.800  17.144  0.00  0.00     0.058 C 
ATOM     18  C   UNL d   1     -38.704  13.026  17.392  0.00  0.00     0.008 C 
ATOM     19  C   UNL d   1     -38.143  13.281  16.982  0.00  0.00     0.008 C 
ATOM     20  C   UNL d   1     -38.152  14.125  16.685  0.00  0.00     0.008 C 
ENDBRANCH   2  17
TORSDOF 4
ENDMDL
MODEL 5
REMARK VINA RESULT:      -5.7      9.091     10.513
REMARK  4 active torsions:
REMARK  status: ('A' for Active; 'I' for Inactive)
REMARK    1  A    between atoms: C_7  and  C_2 
REMARK    2  A    between atoms: C_6  and  C_3 
REMARK    3  A    between atoms: C_11  and  C_6 
REMARK    4  A    between atoms: N_10  and  C_9 
ROOT
ATOM      1  N   UNL d   1     -39.785  14.986  20.442  0.00  0.00    -0.220 NA
ATOM      2  C   UNL d   1     -39.898  14.896  21.259  0.00  0.00     0.161 A 
ATOM      3  C   UNL d   1     -40.446  15.381  20.142  0.00  0.00     0.146 A 
ATOM      4  O   UNL d   1     -40.627  15.236  21.452  0.00  0.00    -0.257 OA
ATOM      5  C   UNL d   1     -40.965  15.534  20.764  0.00  0.00     0.319 A 
ATOM      6  O   UNL d   1     -41.696  15.922  20.698  0.00  0.00    -0.257 OA
ENDROOT
BRANCH   3   7
ATOM      7  C   UNL d   1     -40.566  15.586  19.352  0.00  0.00     0.025 C 
BRANCH   7   8
ATOM      8  C   UNL d   1     -40.152  15.185  18.749  0.00  0.00     0.002 A 
ATOM      9  C   UNL d   1     -40.466  14.498  18.432  0.00  0.00     0.002 A 
ATOM     10  C   UNL d   1     -40.069  14.095  17.839  0.00  0.00     0.018 A 
ATOM     11  C   UNL d   1     -39.343  14.391  17.561  0.00  0.00     0.064 A 
ATOM     12  C   UNL d   1     -39.027  15.085  17.882  0.00  0.00     0.018 A 
ATOM     13  C   UNL d   1     -39.432  15.480  18.475  0.00  0.00     0.002 A 
BRANCH  11  14
ATOM     14  N   UNL d   1     -38.937  13.996  16.968  0.00  0.00    -0.301 N 
ATOM     15  C   UNL d   1     -38.796  14.359  16.244  0.00  0.00     0.100 C 
ATOM     16  C   UNL d   1     -38.667  13.225  17.100  0.00  0.00     0.100 C 
ENDBRANCH  11  14
ENDBRANCH   7   8
ENDBRANCH   3   7
BRANCH   2  17
ATOM     17  C   UNL d   1     -39.381  14.536  21.775  0.00  0.00     0.058 C 
ATOM     18  C   UNL d   1     -39.439  13.738  21.928  0.00  0.00     0.008 C 
ATOM     19  C   UNL d   1     -38.901  14.104  22.279  0.00  0.00     0.008 C 
ATOM     20  C   UNL d   1     -38.794  14.983  22.145  0.00  0.00     0.008 C 
ENDBRANCH   2  17
TORSDOF 4
ENDMDL
MODEL 6
REMARK VINA RESULT:      -5.3     10.226     11.025
REMARK  4 active torsions:
REMARK  status: ('A' for Active; 'I' for Inactive)
REMARK    1  A    between atoms: C_7  and  C_2 
REMARK    2  A    between atoms: C_6  and  C_3 
REMARK    3  A    between atoms: C_11  and  C_6 
REMARK    4  A    between atoms: N_10  and  C_9 
ROOT
ATOM      1  N   UNL d   1     -39.478  14.970  18.093  0.00  0.00    -0.220 NA
ATOM      2  C   UNL d   1     -40.019  14.837  17.478  0.00  0.00     0.161 A 
ATOM      3  C   UNL d   1     -39.090  14.256  18.241  0.00  0.00     0.146 A 
ATOM      4  O   UNL d   1     -39.956  14.042  17.254  0.00  0.00    -0.257 OA
ATOM      5  C   UNL d   1     -39.384  13.685  17.724  0.00  0.00     0.319 A 
ATOM      6  O   UNL d   1     -39.140  12.893  17.692  0.00  0.00    -0.257 OA
ENDROOT
BRANCH   3   7
ATOM      7  C   UNL d   1     -38.505  14.137  18.811  0.00  0.00     0.025 C 
BRANCH   7   8
ATOM      8  C   UNL d   1     -38.565  14.507  19.556  0.00  0.00     0.002 A 
ATOM      9  C   UNL d   1     -38.981  14.139  20.157  0.00  0.00     0.002 A 
ATOM     10  C   UNL d   1     -39.047  14.493  20.893  0.00  0.00     0.018 A 
ATOM     11  C   UNL d   1     -38.687  15.232  21.024  0.00  0.00     0.064 A 
ATOM     12  C   UNL d   1     -38.267  15.603  20.415  0.00  0.00     0.018 A 
ATOM     13  C   UNL d   1     -38.207  15.240  19.683  0.00  0.00     0.002 A 
BRANCH  11  14
ATOM     14  N   UNL d   1     -38.746  15.596  21.756  0.00  0.00    -0.301 N 
ATOM     15  C   UNL d   1     -39.460  15.918  22.006  0.00  0.00     0.100 C 
ATOM     16  C   UNL d   1     -38.082  15.638  22.248  0.00  0.00     0.100 C 
ENDBRANCH  11  14
ENDBRANCH   7   8
ENDBRANCH   3   7
BRANCH   2  17
ATOM     17  C   UNL d   1     -40.520  15.391  17.154  0.00  0.00     0.058 C 
ATOM     18  C   UNL d   1     -41.301  15.426  17.385  0.00  0.00     0.008 C 
ATOM     19  C   UNL d   1     -41.083  15.918  16.877  0.00  0.00     0.008 C 
ATOM     20  C   UNL d   1     -40.235  15.922  16.590  0.00  0.00     0.008 C 
ENDBRANCH   2  17
TORSDOF 4
ENDMDL
MODEL 7
REMARK VINA RESULT:      -5.1      9.021     11.017
REMARK  4 active torsions:
REMARK  status: ('A' for Active; 'I' for Inactive)
REMARK    1  A    between atoms: C_7  and  C_2 
REMARK    2  A    between atoms: C_6  and  C_3 
REMARK    3  A    between atoms: C_11  and  C_6 
REMARK    4  A    between atoms: N_10  and  C_9 
ROOT
ATOM      1  N   UNL d   1     -39.449  14.551  20.161  0.00  0.00    -0.220 NA
ATOM      2  C   UNL d   1     -39.894  14.670  20.852  0.00  0.00     0.161 A 
ATOM      3  C   UNL d   1     -38.821  14.050  20.354  0.00  0.00     0.146 A 
ATOM      4  O   UNL d   1     -39.536  14.241  21.461  0.00  0.00    -0.257 OA
ATOM      5  C   UNL d   1     -38.875  13.859  21.155  0.00  0.00     0.319 A 
ATOM      6  O   UNL d   1     -38.349  13.367  21.569  0.00  0.00    -0.257 OA
ENDROOT
BRANCH   3   7
ATOM      7  C   UNL d   1     -38.239  13.786  19.833  0.00  0.00     0.025 C 
BRANCH   7   8
ATOM      8  C   UNL d   1     -38.335  13.893  19.011  0.00  0.00     0.002 A 
ATOM      9  C   UNL d   1     -38.025  14.560  18.652  0.00  0.00     0.002 A 
ATOM     10  C   UNL d   1     -38.112  14.676  17.845  0.00  0.00     0.018 A 
ATOM     11  C   UNL d   1     -38.521  14.108  17.394  0.00  0.00     0.064 A 
ATOM     12  C   UNL d   1     -38.834  13.435  17.758  0.00  0.00     0.018 A 
ATOM     13  C   UNL d   1     -38.740  13.329  18.565  0.00  0.00     0.002 A 
BRANCH  11  14
ATOM     14  N   UNL d   1     -38.614  14.214  16.587  0.00  0.00    -0.301 N 
ATOM     15  C   UNL d   1     -39.107  14.806  16.297  0.00  0.00     0.100 C 
ATOM     16  C   UNL d   1     -38.209  13.722  16.059  0.00  0.00     0.100 C 
ENDBRANCH  11  14
ENDBRANCH   7   8
ENDBRANCH   3   7
BRANCH   2  17
ATOM     17  C   UNL d   1     -40.565  15.128  20.914  0.00  0.00     0.058 C 
ATOM     18  C   UNL d   1     -40.508  15.919  21.101  0.00  0.00     0.008 C 
ATOM     19  C   UNL d   1     -41.190  15.652  20.994  0.00  0.00     0.008 C 
ATOM     20  C   UNL d   1     -41.307  14.789  20.787  0.00  0.00     0.008 C 
ENDBRANCH   2  17
TORSDOF 4
ENDMDL
MODEL 8
REMARK VINA RESULT:      -4.9      1.862      3.998
REMARK  4 active torsions:
REMARK  status: ('A' for Active; 'I' for Inactive)
REMARK    1  A    between atoms: C_7  and  C_2 
REMARK    2  A    between atoms: C_6  and  C_3 
REMARK    3  A    between atoms: C_11  and  C_6 
REMARK    4  A    between atoms: N_10  and  C_9 
ROOT
ATOM      1  N   UNL d   1     -47.405  12.837  23.120  0.00  0.00    -0.220 NA
ATOM      2  C   UNL d   1     -46.605  12.642  23.017  0.00  0.00     0.161 A 
ATOM      3  C   UNL d   1     -47.794  12.158  23.387  0.00  0.00     0.146 A 
ATOM      4  O   UNL d   1     -46.510  11.845  23.221  0.00  0.00    -0.257 OA
ATOM      5  C   UNL d   1     -47.242  11.548  23.449  0.00  0.00     0.319 A 
ATOM      6  O   UNL d   1     -47.407  10.773  23.698  0.00  0.00    -0.257 OA
ENDROOT
BRANCH   3   7
ATOM      7  C   UNL d   1     -48.598  12.102  23.561  0.00  0.00     0.025 C 
BRANCH   7   8
ATOM      8  C   UNL d   1     -49.150  12.565  23.141  0.00  0.00     0.002 A 
ATOM      9  C   UNL d   1     -49.327  12.375  22.364  0.00  0.00     0.002 A 
ATOM     10  C   UNL d   1     -49.868  12.822  21.941  0.00  0.00     0.018 A 
ATOM     11  C   UNL d   1     -50.236  13.473  22.308  0.00  0.00     0.064 A 
ATOM     12  C   UNL d   1     -50.056  13.663  23.093  0.00  0.00     0.018 A 
ATOM     13  C   UNL d   1     -49.513  13.209  23.507  0.00  0.00     0.002 A 
BRANCH  11  14
ATOM     14  N   UNL d   1     -50.778  13.927  21.894  0.00  0.00    -0.301 N 
ATOM     15  C   UNL d   1     -51.065  13.675  21.166  0.00  0.00     0.100 C 
ATOM     16  C   UNL d   1     -51.039  14.645  22.213  0.00  0.00     0.100 C 
ENDBRANCH  11  14
ENDBRANCH   7   8
ENDBRANCH   3   7
BRANCH   2  17
ATOM     17  C   UNL d   1     -46.020  13.147  22.760  0.00  0.00     0.058 C 
ATOM     18  C   UNL d   1     -45.510  12.920  22.166  0.00  0.00     0.008 C 
ATOM     19  C   UNL d   1     -45.410  13.596  22.448  0.00  0.00     0.008 C 
ATOM     20  C   UNL d   1     -45.944  13.894  23.103  0.00  0.00     0.008 C 
ENDBRANCH   2  17
TORSDOF 4
ENDMDL
