MODEL 1
REMARK VINA RESULT:       0.6      0.000      0.000
REMARK  3 active torsions:
REMARK  status: ('A' for Active; 'I' for Inactive)
REMARK    1  A    between atoms: N_4  and  C_2 
REMARK    2  A    between atoms: C_12  and  C_10 
REMARK    3  A    between atoms: C_19  and  C_11 
ROOT
ATOM      1  C   UNL d   1     -41.870-122.030 -51.456  0.00  0.00     0.152 A 
ATOM      2  C   UNL d   1     -41.552-121.897 -52.184  0.00  0.00     0.174 A 
ATOM      3  C   UNL d   1     -41.954-121.402 -50.922  0.00  0.00     0.111 A 
ATOM      4  O   UNL d   1     -42.115-122.796 -51.236  0.00  0.00    -0.302 OA
ATOM      5  N   UNL d   1     -41.310-121.149 -52.404  0.00  0.00    -0.207 NA
ATOM      6  C   UNL d   1     -42.524-122.299 -49.957  0.00  0.00     0.043 A 
ATOM      7  N   UNL d   1     -41.718-120.652 -51.126  0.00  0.00    -0.225 NA
ATOM      8  C   UNL d   1     -42.441-122.920 -50.485  0.00  0.00     0.102 A 
ATOM      9  C   UNL d   1     -41.394-120.521 -51.870  0.00  0.00     0.164 A 
ATOM     10  C   UNL d   1     -42.849-122.430 -49.212  0.00  0.00     0.004 A 
ATOM     11  C   UNL d   1     -42.684-123.678 -50.268  0.00  0.00     0.025 A 
ATOM     12  C   UNL d   1     -43.092-123.184 -48.992  0.00  0.00     0.000 A 
ATOM     13  C   UNL d   1     -43.011-123.817 -49.520  0.00  0.00     0.002 A 
ENDROOT
BRANCH   2  14
ATOM     14  N   UNL d   1     -41.468-122.517 -52.712  0.00  0.00    -0.284 N 
ATOM     15  C   UNL d   1     -41.707-122.528 -53.493  0.00  0.00     0.130 A 
ATOM     16  C   UNL d   1     -41.516-123.255 -53.812  0.00  0.00     0.025 A 
ATOM     17  C   UNL d   1     -41.156-123.704 -53.228  0.00  0.00     0.021 A 
ATOM     18  C   UNL d   1     -41.124-123.249 -52.541  0.00  0.00     0.082 A 
BRANCH  15  19
ATOM     19  C   UNL d   1     -42.092-121.887 -53.907  0.00  0.00     0.228 C 
ATOM     20  O   UNL d   1     -41.631-121.343 -54.365  0.00  0.00    -0.643 OA
ATOM     21  O   UNL d   1     -42.933-121.797 -53.859  0.00  0.00    -0.643 OA
ENDBRANCH  15  19
ENDBRANCH   2  14
BRANCH   9  22
ATOM     22  C   UNL d   1     -41.141-119.734 -52.099  0.00  0.00     0.039 C 
ATOM     23  C   UNL d   1     -41.123-119.114 -51.525  0.00  0.00     0.003 C 
ENDBRANCH   9  22
TORSDOF 3
ENDMDL
