MODEL 1
REMARK VINA RESULT:      36.5      0.000      0.000
REMARK  3 active torsions:
REMARK  status: ('A' for Active; 'I' for Inactive)
REMARK    1  A    between atoms: C_5  and  C_2 
REMARK    2  A    between atoms: C_10  and  C_4 
REMARK    3  A    between atoms: O_19  and  C_16 
ROOT
ATOM      1  N   UNL d   1      13.628  11.826  -2.782  0.00  0.00    -0.245 NA
ATOM      2  C   UNL d   1      13.968  12.117  -2.102  0.00  0.00     0.088 A 
ATOM      3  S   UNL d   1      13.846  13.641  -3.126  0.00  0.00    -0.085 SA
ATOM      4  C   UNL d   1      14.145  13.588  -2.380  0.00  0.00     0.031 A 
ATOM      5  C   UNL d   1      14.202  12.894  -1.912  0.00  0.00     0.026 A 
ATOM      6  C   UNL d   1      13.435  12.256  -3.451  0.00  0.00     0.087 A 
ATOM      7  C   UNL d   1      13.532  13.059  -3.603  0.00  0.00     0.047 A 
ATOM      8  C   UNL d   1      13.100  11.782  -4.031  0.00  0.00     0.020 A 
ATOM      9  C   UNL d   1      13.294  13.394  -4.336  0.00  0.00     0.008 A 
ATOM     10  C   UNL d   1      12.862  12.080  -4.746  0.00  0.00     0.002 A 
ATOM     11  C   UNL d   1      12.959  12.883  -4.898  0.00  0.00     0.001 A 
ENDROOT
BRANCH   4  12
ATOM     12  C   UNL d   1      14.438  14.235  -1.986  0.00  0.00     0.006 A 
ATOM     13  C   UNL d   1      14.445  14.979  -2.367  0.00  0.00     0.003 A 
ATOM     14  C   UNL d   1      14.737  15.625  -1.973  0.00  0.00     0.024 A 
ATOM     15  C   UNL d   1      15.024  15.544  -1.203  0.00  0.00     0.094 A 
ATOM     16  C   UNL d   1      15.019  14.820  -0.827  0.00  0.00     0.024 A 
ATOM     17  C   UNL d   1      14.724  14.153  -1.216  0.00  0.00     0.003 A 
BRANCH  15  18
ATOM     18  O   UNL d   1      15.330  16.201  -0.780  0.00  0.00    -0.328 OA
ATOM     19  C   UNL d   1      15.396  16.948  -1.143  0.00  0.00     0.181 C 
ENDBRANCH  15  18
ENDBRANCH   4  12
BRANCH   2  20
ATOM     20  C   UNL d   1      14.269  11.987  -1.316  0.00  0.00     0.047 A 
ATOM     21  S   UNL d   1      13.757  11.891  -0.687  0.00  0.00    -0.085 SA
ATOM     22  C   UNL d   1      14.223  11.779  -0.017  0.00  0.00     0.035 A 
ATOM     23  C   UNL d   1      15.009  11.803  -0.213  0.00  0.00     0.007 A 
ATOM     24  C   UNL d   1      15.040  11.931  -1.013  0.00  0.00     0.009 A 
ENDBRANCH   2  20
TORSDOF 3
ENDMDL
