MODEL 1
REMARK VINA RESULT:      -7.5      0.000      0.000
REMARK  6 active torsions:
REMARK  status: ('A' for Active; 'I' for Inactive)
REMARK    1  A    between atoms: S_10  and  C_3 
REMARK    2  A    between atoms: C_14  and  C_7 
REMARK    3  A    between atoms: C_18  and  S_10 
REMARK       I    between atoms: N_11  and  C_12 
REMARK    4  A    between atoms: C_13  and  N_11 
REMARK    5  A    between atoms: C_12  and  C_18 
REMARK    6  A    between atoms: O_20  and  C_16 
ROOT
ATOM      1  N   UNL d   1     -48.953  12.476  23.405  0.00  0.00    -0.186 N 
ATOM      2  N   UNL d   1     -49.220  13.236  23.267  0.00  0.00    -0.162 NA
ATOM      3  C   UNL d   1     -48.190  12.152  23.412  0.00  0.00     0.217 A 
ATOM      4  C   UNL d   1     -49.481  11.867  23.575  0.00  0.00     0.187 A 
ATOM      5  N   UNL d   1     -48.262  11.355  23.585  0.00  0.00    -0.120 NA
ATOM      6  N   UNL d   1     -49.061  11.177  23.687  0.00  0.00    -0.127 NA
ATOM      7  C   UNL d   1     -50.032  13.394  23.299  0.00  0.00     0.103 A 
ATOM      8  C   UNL d   1     -50.296  12.028  23.607  0.00  0.00     0.042 A 
ATOM      9  C   UNL d   1     -50.568  12.785  23.470  0.00  0.00     0.024 A 
ENDROOT
BRANCH   3  10
ATOM     10  S   UNL d   1     -47.477  12.543  23.273  0.00  0.00    -0.041 SA
BRANCH  10  11
ATOM     11  C   UNL d   1     -46.772  12.221  23.524  0.00  0.00     0.101 C 
BRANCH  11  12
ATOM     12  C   UNL d   1     -46.074  12.419  23.151  0.00  0.00     0.286 C 
ATOM     13  N   UNL d   1     -45.523  11.839  22.942  0.00  0.00    -0.206 NA
ATOM     14  O   UNL d   1     -45.905  13.207  22.976  0.00  0.00    -0.265 OA
BRANCH  13  15
ATOM     15  C   UNL d   1     -44.815  12.039  22.564  0.00  0.00     0.107 A 
ATOM     16  C   UNL d   1     -44.116  11.652  22.754  0.00  0.00     0.112 A 
ATOM     17  C   UNL d   1     -43.410  11.859  22.370  0.00  0.00     0.026 A 
ATOM     18  C   UNL d   1     -43.420  12.450  21.804  0.00  0.00     0.002 A 
ATOM     19  C   UNL d   1     -44.111  12.844  21.605  0.00  0.00     0.002 A 
ATOM     20  C   UNL d   1     -44.817  12.636  21.989  0.00  0.00     0.021 A 
BRANCH  16  21
ATOM     21  O   UNL d   1     -44.122  11.052  23.333  0.00  0.00    -0.327 OA
ATOM     22  C   UNL d   1     -43.526  10.474  23.336  0.00  0.00     0.181 C 
ENDBRANCH  16  21
ENDBRANCH  13  15
ENDBRANCH  11  12
ENDBRANCH  10  11
ENDBRANCH   3  10
BRANCH   7  23
ATOM     23  C   UNL d   1     -50.297  14.165  23.158  0.00  0.00     0.039 A 
ATOM     24  C   UNL d   1     -50.808  14.326  22.552  0.00  0.00     0.101 A 
ATOM     25  N   UNL d   1     -51.064  15.086  22.418  0.00  0.00    -0.242 NA
ATOM     26  C   UNL d   1     -50.805  15.705  22.901  0.00  0.00     0.099 A 
ATOM     27  C   UNL d   1     -50.284  15.541  23.518  0.00  0.00     0.021 A 
ATOM     28  C   UNL d   1     -50.025  14.768  23.652  0.00  0.00     0.005 A 
ENDBRANCH   7  23
TORSDOF 6
ENDMDL
MODEL 2
REMARK VINA RESULT:      -5.8      3.184      4.852
REMARK  6 active torsions:
REMARK  status: ('A' for Active; 'I' for Inactive)
REMARK    1  A    between atoms: S_10  and  C_3 
REMARK    2  A    between atoms: C_14  and  C_7 
REMARK    3  A    between atoms: C_18  and  S_10 
REMARK       I    between atoms: N_11  and  C_12 
REMARK    4  A    between atoms: C_13  and  N_11 
REMARK    5  A    between atoms: C_12  and  C_18 
REMARK    6  A    between atoms: O_20  and  C_16 
ROOT
ATOM      1  N   UNL d   1     -44.397  12.540  22.228  0.00  0.00    -0.186 N 
ATOM      2  N   UNL d   1     -45.023  13.065  22.208  0.00  0.00    -0.162 NA
ATOM      3  C   UNL d   1     -43.641  12.569  21.889  0.00  0.00     0.217 A 
ATOM      4  C   UNL d   1     -44.454  11.830  22.643  0.00  0.00     0.187 A 
ATOM      5  N   UNL d   1     -43.249  11.882  22.098  0.00  0.00    -0.120 NA
ATOM      6  N   UNL d   1     -43.752  11.423  22.565  0.00  0.00    -0.127 NA
ATOM      7  C   UNL d   1     -45.723  12.879  22.610  0.00  0.00     0.103 A 
ATOM      8  C   UNL d   1     -45.158  11.646  23.045  0.00  0.00     0.042 A 
ATOM      9  C   UNL d   1     -45.785  12.167  23.028  0.00  0.00     0.024 A 
ENDROOT
BRANCH   3  10
ATOM     10  S   UNL d   1     -43.324  13.171  21.422  0.00  0.00    -0.041 SA
BRANCH  10  11
ATOM     11  C   UNL d   1     -42.541  13.151  21.197  0.00  0.00     0.101 C 
BRANCH  11  12
ATOM     12  C   UNL d   1     -42.153  13.840  20.996  0.00  0.00     0.286 C 
ATOM     13  N   UNL d   1     -41.438  13.822  20.580  0.00  0.00    -0.206 NA
ATOM     14  O   UNL d   1     -42.471  14.572  21.206  0.00  0.00    -0.265 OA
BRANCH  13  15
ATOM     15  C   UNL d   1     -41.046  14.520  20.376  0.00  0.00     0.107 A 
ATOM     16  C   UNL d   1     -40.706  14.607  19.633  0.00  0.00     0.112 A 
ATOM     17  C   UNL d   1     -40.314  15.311  19.436  0.00  0.00     0.026 A 
ATOM     18  C   UNL d   1     -40.270  15.913  19.988  0.00  0.00     0.002 A 
ATOM     19  C   UNL d   1     -40.604  15.840  20.733  0.00  0.00     0.002 A 
ATOM     20  C   UNL d   1     -40.997  15.135  20.930  0.00  0.00     0.021 A 
BRANCH  16  21
ATOM     21  O   UNL d   1     -40.760  13.984  19.081  0.00  0.00    -0.327 OA
ATOM     22  C   UNL d   1     -40.407  14.063  18.333  0.00  0.00     0.181 C 
ENDBRANCH  16  21
ENDBRANCH  13  15
ENDBRANCH  11  12
ENDBRANCH  10  11
ENDBRANCH   3  10
BRANCH   7  23
ATOM     23  C   UNL d   1     -46.353  13.415  22.586  0.00  0.00     0.039 A 
ATOM     24  C   UNL d   1     -46.283  14.156  22.903  0.00  0.00     0.101 A 
ATOM     25  N   UNL d   1     -46.906  14.678  22.876  0.00  0.00    -0.242 NA
ATOM     26  C   UNL d   1     -47.620  14.456  22.524  0.00  0.00     0.099 A 
ATOM     27  C   UNL d   1     -47.693  13.702  22.201  0.00  0.00     0.021 A 
ATOM     28  C   UNL d   1     -47.058  13.174  22.229  0.00  0.00     0.005 A 
ENDBRANCH   7  23
TORSDOF 6
ENDMDL
MODEL 3
REMARK VINA RESULT:      -4.5      1.539      5.825
REMARK  6 active torsions:
REMARK  status: ('A' for Active; 'I' for Inactive)
REMARK    1  A    between atoms: S_10  and  C_3 
REMARK    2  A    between atoms: C_14  and  C_7 
REMARK    3  A    between atoms: C_18  and  S_10 
REMARK       I    between atoms: N_11  and  C_12 
REMARK    4  A    between atoms: C_13  and  N_11 
REMARK    5  A    between atoms: C_12  and  C_18 
REMARK    6  A    between atoms: O_20  and  C_16 
ROOT
ATOM      1  N   UNL d   1     -45.008  12.005  22.859  0.00  0.00    -0.186 N 
ATOM      2  N   UNL d   1     -44.512  12.410  22.350  0.00  0.00    -0.162 NA
ATOM      3  C   UNL d   1     -45.782  12.157  23.112  0.00  0.00     0.217 A 
ATOM      4  C   UNL d   1     -44.759  11.311  23.226  0.00  0.00     0.187 A 
ATOM      5  N   UNL d   1     -45.996  11.557  23.626  0.00  0.00    -0.120 NA
ATOM      6  N   UNL d   1     -45.364  11.032  23.698  0.00  0.00    -0.127 NA
ATOM      7  C   UNL d   1     -43.752  12.116  22.203  0.00  0.00     0.103 A 
ATOM      8  C   UNL d   1     -43.996  11.017  23.077  0.00  0.00     0.042 A 
ATOM      9  C   UNL d   1     -43.498  11.418  22.570  0.00  0.00     0.024 A 
ENDROOT
BRANCH   3  10
ATOM     10  S   UNL d   1     -46.266  12.790  22.896  0.00  0.00    -0.041 SA
BRANCH  10  11
ATOM     11  C   UNL d   1     -46.906  12.996  23.355  0.00  0.00     0.101 C 
BRANCH  11  12
ATOM     12  C   UNL d   1     -47.462  13.523  23.072  0.00  0.00     0.286 C 
ATOM     13  N   UNL d   1     -48.264  13.434  23.253  0.00  0.00    -0.206 NA
ATOM     14  O   UNL d   1     -47.230  14.156  22.598  0.00  0.00    -0.265 OA
BRANCH  13  15
ATOM     15  C   UNL d   1     -48.827  13.967  22.966  0.00  0.00     0.107 A 
ATOM     16  C   UNL d   1     -49.578  13.708  22.755  0.00  0.00     0.112 A 
ATOM     17  C   UNL d   1     -50.138  14.249  22.468  0.00  0.00     0.026 A 
ATOM     18  C   UNL d   1     -49.933  15.038  22.398  0.00  0.00     0.002 A 
ATOM     19  C   UNL d   1     -49.187  15.310  22.605  0.00  0.00     0.002 A 
ATOM     20  C   UNL d   1     -48.628  14.768  22.892  0.00  0.00     0.021 A 
BRANCH  16  21
ATOM     21  O   UNL d   1     -49.772  12.900  22.831  0.00  0.00    -0.327 OA
ATOM     22  C   UNL d   1     -50.567  12.669  22.879  0.00  0.00     0.181 C 
ENDBRANCH  16  21
ENDBRANCH  13  15
ENDBRANCH  11  12
ENDBRANCH  10  11
ENDBRANCH   3  10
BRANCH   7  23
ATOM     23  C   UNL d   1     -43.255  12.530  21.687  0.00  0.00     0.039 A 
ATOM     24  C   UNL d   1     -43.426  12.585  20.898  0.00  0.00     0.101 A 
ATOM     25  N   UNL d   1     -42.934  12.993  20.396  0.00  0.00    -0.242 NA
ATOM     26  C   UNL d   1     -42.251  13.358  20.686  0.00  0.00     0.099 A 
ATOM     27  C   UNL d   1     -42.076  13.302  21.489  0.00  0.00     0.021 A 
ATOM     28  C   UNL d   1     -42.578  12.887  21.998  0.00  0.00     0.005 A 
ENDBRANCH   7  23
TORSDOF 6
ENDMDL
