MODEL 1
REMARK VINA RESULT:      38.8      0.000      0.000
REMARK  8 active torsions:
REMARK  status: ('A' for Active; 'I' for Inactive)
REMARK    1  A    between atoms: C_4  and  C_1 
REMARK    2  A    between atoms: C_11  and  N_3 
REMARK    3  A    between atoms: N_7  and  C_4 
REMARK    4  A    between atoms: C_9  and  C_4 
REMARK       I    between atoms: C_8  and  N_7 
REMARK    5  A    between atoms: C_12  and  C_9 
REMARK    6  A    between atoms: C_18  and  C_11 
REMARK    7  A    between atoms: C_20  and  C_18 
REMARK    8  A    between atoms: C_19  and  C_20 
ROOT
ATOM      1  C   UNL d   1      46.071 -17.268  43.853  0.00  0.00     0.166 A 
ATOM      2  N   UNL d   1      46.175 -17.731  44.532  0.00  0.00    -0.225 NA
ATOM      3  N   UNL d   1      46.171 -17.753  43.196  0.00  0.00    -0.288 N 
ATOM      4  C   UNL d   1      46.338 -18.518  43.460  0.00  0.00     0.083 A 
ATOM      5  C   UNL d   1      46.339 -18.498  44.290  0.00  0.00     0.099 A 
ATOM      6  C   UNL d   1      46.485 -19.216  43.058  0.00  0.00     0.019 A 
ATOM      7  C   UNL d   1      46.490 -19.187  44.714  0.00  0.00     0.021 A 
ATOM      8  C   UNL d   1      46.637 -19.909  43.480  0.00  0.00     0.002 A 
ATOM      9  C   UNL d   1      46.640 -19.898  44.311  0.00  0.00     0.002 A 
ENDROOT
BRANCH   1  10
ATOM     10  C   UNL d   1      45.896 -16.458  43.838  0.00  0.00     0.119 C 
BRANCH  10  11
ATOM     11  N   UNL d   1      45.128 -16.206  43.683  0.00  0.00    -0.205 NA
ATOM     12  C   UNL d   1      44.529 -16.333  44.235  0.00  0.00     0.280 C 
ATOM     13  O   UNL d   1      43.761 -16.081  44.080  0.00  0.00    -0.265 OA
ATOM     14  C   UNL d   1      44.698 -16.716  44.953  0.00  0.00     0.068 C 
ENDBRANCH  10  11
BRANCH  10  15
ATOM     15  C   UNL d   1      46.489 -15.905  43.978  0.00  0.00     0.022 C 
BRANCH  15  16
ATOM     16  C   UNL d   1      46.301 -15.113  44.076  0.00  0.00     0.002 A 
ATOM     17  C   UNL d   1      46.263 -14.781  44.828  0.00  0.00     0.000 A 
ATOM     18  C   UNL d   1      46.074 -13.984  44.925  0.00  0.00     0.000 A 
ATOM     19  C   UNL d   1      45.923 -13.516  44.266  0.00  0.00     0.000 A 
ATOM     20  C   UNL d   1      45.961 -13.850  43.506  0.00  0.00     0.000 A 
ATOM     21  C   UNL d   1      46.150 -14.645  43.417  0.00  0.00     0.000 A 
ENDBRANCH  15  16
ENDBRANCH  10  15
ENDBRANCH   1  10
BRANCH   3  22
ATOM     22  C   UNL d   1      46.115 -17.515  42.403  0.00  0.00     0.082 C 
BRANCH  22  23
ATOM     23  C   UNL d   1      45.725 -17.996  41.856  0.00  0.00     0.019 C 
BRANCH  23  24
ATOM     24  C   UNL d   1      46.108 -18.246  41.169  0.00  0.00     0.002 C 
BRANCH  24  25
ATOM     25  C   UNL d   1      45.879 -17.924  40.439  0.00  0.00     0.000 C 
ATOM     26  C   UNL d   1      45.977 -18.370  39.741  0.00  0.00     0.000 C 
ENDBRANCH  24  25
ENDBRANCH  23  24
ENDBRANCH  22  23
ENDBRANCH   3  22
TORSDOF 8
ENDMDL
