MODEL 1
REMARK VINA RESULT:       0.9      0.000      0.000
REMARK  5 active torsions:
REMARK  status: ('A' for Active; 'I' for Inactive)
REMARK    1  A    between atoms: C_5  and  C_1 
REMARK    2  A    between atoms: C_4  and  C_9 
REMARK    3  A    between atoms: N_7  and  C_5 
REMARK    4  A    between atoms: C_10  and  C_5 
REMARK    5  A    between atoms: C_12  and  N_7 
ROOT
ATOM      1  C   UNL d   1      58.942  -0.395  30.354  0.00  0.00     0.086 C 
ENDROOT
BRANCH   1   2
ATOM      2  C   UNL d   1      58.244  -0.126  30.701  0.00  0.00     0.058 A 
ATOM      3  C   UNL d   1      58.165  -0.131  31.523  0.00  0.00     0.214 A 
ATOM      4  C   UNL d   1      57.460   0.140  31.866  0.00  0.00     0.120 A 
ATOM      5  O   UNL d   1      58.765  -0.396  32.002  0.00  0.00    -0.285 OA
ATOM      6  N   UNL d   1      57.371   0.140  32.690  0.00  0.00    -0.242 NA
ATOM      7  C   UNL d   1      56.845   0.412  31.390  0.00  0.00     0.021 A 
ATOM      8  C   UNL d   1      56.674   0.408  33.035  0.00  0.00     0.082 A 
ATOM      9  C   UNL d   1      56.588   0.406  33.855  0.00  0.00     0.021 C 
ATOM     10  C   UNL d   1      56.053   0.682  32.554  0.00  0.00     0.019 A 
ATOM     11  C   UNL d   1      56.143   0.682  31.726  0.00  0.00     0.003 A 
ATOM     12  C   UNL d   1      56.924   0.416  30.564  0.00  0.00     0.002 A 
ATOM     13  C   UNL d   1      57.622   0.148  30.220  0.00  0.00     0.005 A 
ENDBRANCH   1   2
BRANCH   1  14
ATOM     14  N   UNL d   1      59.047  -1.211  30.423  0.00  0.00    -0.245 NA
BRANCH  14  15
ATOM     15  C   UNL d   1      58.971  -1.694  29.778  0.00  0.00     0.081 A 
ATOM     16  C   UNL d   1      59.535  -2.262  29.622  0.00  0.00     0.023 A 
ATOM     17  C   UNL d   1      59.460  -2.759  28.961  0.00  0.00     0.073 A 
ATOM     18  C   UNL d   1      58.804  -2.674  28.458  0.00  0.00     0.004 A 
ATOM     19  C   UNL d   1      58.238  -2.100  28.620  0.00  0.00     0.002 A 
ATOM     20  C   UNL d   1      58.326  -1.614  29.279  0.00  0.00     0.019 A 
BRANCH  17  21
ATOM     21  C   UNL d   1      60.034  -3.329  28.811  0.00  0.00     0.419 C 
ATOM     22  F   UNL d   1      60.566  -3.841  28.674  0.00  0.00    -0.166 F 
ATOM     23  F   UNL d   1      60.874  -3.218  28.690  0.00  0.00    -0.166 F 
ATOM     24  F   UNL d   1      59.954  -4.176  28.736  0.00  0.00    -0.166 F 
ENDBRANCH  17  21
ENDBRANCH  14  15
ENDBRANCH   1  14
BRANCH   1  25
ATOM     25  C   UNL d   1      59.564  -0.035  29.952  0.00  0.00     0.037 A 
ATOM     26  C   UNL d   1      60.316   0.002  30.304  0.00  0.00     0.100 A 
ATOM     27  N   UNL d   1      60.933   0.366  29.891  0.00  0.00    -0.242 NA
ATOM     28  C   UNL d   1      60.810   0.682  29.154  0.00  0.00     0.099 A 
ATOM     29  C   UNL d   1      60.068   0.644  28.806  0.00  0.00     0.021 A 
ATOM     30  C   UNL d   1      59.444   0.287  29.201  0.00  0.00     0.005 A 
ENDBRANCH   1  25
TORSDOF 5
ENDMDL
MODEL 2
REMARK VINA RESULT:       2.9      1.197      1.652
REMARK  5 active torsions:
REMARK  status: ('A' for Active; 'I' for Inactive)
REMARK    1  A    between atoms: C_5  and  C_1 
REMARK    2  A    between atoms: C_4  and  C_9 
REMARK    3  A    between atoms: N_7  and  C_5 
REMARK    4  A    between atoms: C_10  and  C_5 
REMARK    5  A    between atoms: C_12  and  N_7 
ROOT
ATOM      1  C   UNL d   1      57.897  -0.435  30.446  0.00  0.00     0.086 C 
ENDROOT
BRANCH   1   2
ATOM      2  C   UNL d   1      57.749  -0.203  31.224  0.00  0.00     0.058 A 
ATOM      3  C   UNL d   1      56.992  -0.297  31.543  0.00  0.00     0.214 A 
ATOM      4  C   UNL d   1      56.849  -0.062  32.325  0.00  0.00     0.120 A 
ATOM      5  O   UNL d   1      56.387  -0.615  31.105  0.00  0.00    -0.285 OA
ATOM      6  N   UNL d   1      56.094  -0.152  32.655  0.00  0.00    -0.242 NA
ATOM      7  C   UNL d   1      57.456   0.261  32.779  0.00  0.00     0.021 A 
ATOM      8  C   UNL d   1      55.947   0.079  33.431  0.00  0.00     0.082 A 
ATOM      9  C   UNL d   1      55.194  -0.011  33.757  0.00  0.00     0.021 C 
ATOM     10  C   UNL d   1      56.560   0.406  33.889  0.00  0.00     0.019 A 
ATOM     11  C   UNL d   1      57.319   0.496  33.557  0.00  0.00     0.003 A 
ATOM     12  C   UNL d   1      58.215   0.355  32.458  0.00  0.00     0.002 A 
ATOM     13  C   UNL d   1      58.361   0.123  31.682  0.00  0.00     0.005 A 
ENDBRANCH   1   2
BRANCH   1  14
ATOM     14  N   UNL d   1      57.689  -1.219  30.295  0.00  0.00    -0.245 NA
BRANCH  14  15
ATOM     15  C   UNL d   1      58.257  -1.776  30.140  0.00  0.00     0.081 A 
ATOM     16  C   UNL d   1      58.099  -2.392  29.630  0.00  0.00     0.023 A 
ATOM     17  C   UNL d   1      58.679  -2.964  29.469  0.00  0.00     0.073 A 
ATOM     18  C   UNL d   1      59.424  -2.905  29.833  0.00  0.00     0.004 A 
ATOM     19  C   UNL d   1      59.578  -2.281  30.347  0.00  0.00     0.002 A 
ATOM     20  C   UNL d   1      58.993  -1.721  30.497  0.00  0.00     0.019 A 
BRANCH  17  21
ATOM     21  C   UNL d   1      58.511  -3.582  28.953  0.00  0.00     0.419 C 
ATOM     22  F   UNL d   1      58.368  -4.149  28.482  0.00  0.00    -0.166 F 
ATOM     23  F   UNL d   1      59.055  -4.134  28.590  0.00  0.00    -0.166 F 
ATOM     24  F   UNL d   1      57.759  -3.843  28.641  0.00  0.00    -0.166 F 
ENDBRANCH  17  21
ENDBRANCH  14  15
ENDBRANCH   1  14
BRANCH   1  25
ATOM     25  C   UNL d   1      58.207  -0.063  29.781  0.00  0.00     0.037 A 
ATOM     26  C   UNL d   1      59.005   0.170  29.772  0.00  0.00     0.100 A 
ATOM     27  N   UNL d   1      59.305   0.543  29.099  0.00  0.00    -0.242 NA
ATOM     28  C   UNL d   1      58.832   0.682  28.455  0.00  0.00     0.099 A 
ATOM     29  C   UNL d   1      58.044   0.453  28.463  0.00  0.00     0.021 A 
ATOM     30  C   UNL d   1      57.729   0.081  29.123  0.00  0.00     0.005 A 
ENDBRANCH   1  25
TORSDOF 5
ENDMDL
