MODEL 1
REMARK VINA RESULT:      -4.8      0.000      0.000
REMARK  1 active torsions:
REMARK  status: ('A' for Active; 'I' for Inactive)
REMARK    1  A    between atoms: C_2  and  C_1 
ROOT
ATOM      1  C   UNL d   1     -41.820-122.325 -54.103  0.00  0.00     0.104 A 
ATOM      2  C   UNL d   1     -41.492-123.095 -54.177  0.00  0.00     0.202 A 
ATOM      3  C   UNL d   1     -41.791-121.940 -53.344  0.00  0.00     0.021 A 
ATOM      4  C   UNL d   1     -41.153-123.455 -53.518  0.00  0.00     0.043 A 
ATOM      5  C   UNL d   1     -41.442-122.336 -52.710  0.00  0.00     0.058 A 
ATOM      6  C   UNL d   1     -41.123-123.091 -52.790  0.00  0.00     0.015 A 
ATOM      7  O   UNL d   1     -41.517-123.484 -54.926  0.00  0.00    -0.286 OA
ATOM      8 CL   UNL d   1     -41.418-121.947 -51.963  0.00  0.00    -0.082 Cl
ENDROOT
BRANCH   1   9
ATOM      9  C   UNL d   1     -42.163-121.951 -54.754  0.00  0.00     0.214 C 
ATOM     10  O   UNL d   1     -41.699-121.567 -55.332  0.00  0.00    -0.644 OA
ATOM     11  O   UNL d   1     -42.998-121.939 -54.866  0.00  0.00    -0.644 OA
ENDBRANCH   1   9
TORSDOF 1
ENDMDL
MODEL 2
REMARK VINA RESULT:      -4.6      1.820      2.159
REMARK  1 active torsions:
REMARK  status: ('A' for Active; 'I' for Inactive)
REMARK    1  A    between atoms: C_2  and  C_1 
ROOT
ATOM      1  C   UNL d   1     -41.689-122.399 -53.396  0.00  0.00     0.104 A 
ATOM      2  C   UNL d   1     -41.420-123.184 -53.524  0.00  0.00     0.202 A 
ATOM      3  C   UNL d   1     -41.964-121.947 -54.063  0.00  0.00     0.021 A 
ATOM      4  C   UNL d   1     -41.428-123.495 -54.288  0.00  0.00     0.043 A 
ATOM      5  C   UNL d   1     -41.956-122.296 -54.810  0.00  0.00     0.058 A 
ATOM      6  C   UNL d   1     -41.690-123.066 -54.929  0.00  0.00     0.015 A 
ATOM      7  O   UNL d   1     -41.145-123.639 -52.869  0.00  0.00    -0.286 OA
ATOM      8 CL   UNL d   1     -42.230-121.840 -55.465  0.00  0.00    -0.082 Cl
ENDROOT
BRANCH   1   9
ATOM      9  C   UNL d   1     -41.686-122.074 -52.637  0.00  0.00     0.214 C 
ATOM     10  O   UNL d   1     -41.123-121.501 -52.409  0.00  0.00    -0.644 OA
ATOM     11  O   UNL d   1     -42.251-122.304 -52.057  0.00  0.00    -0.644 OA
ENDBRANCH   1   9
TORSDOF 1
ENDMDL
MODEL 3
REMARK VINA RESULT:      -3.8      1.709      2.360
REMARK  1 active torsions:
REMARK  status: ('A' for Active; 'I' for Inactive)
REMARK    1  A    between atoms: C_2  and  C_1 
ROOT
ATOM      1  C   UNL d   1     -41.745-122.164 -53.635  0.00  0.00     0.104 A 
ATOM      2  C   UNL d   1     -42.181-121.698 -54.179  0.00  0.00     0.202 A 
ATOM      3  C   UNL d   1     -41.387-122.886 -53.910  0.00  0.00     0.021 A 
ATOM      4  C   UNL d   1     -42.251-121.948 -54.961  0.00  0.00     0.043 A 
ATOM      5  C   UNL d   1     -41.482-123.101 -54.701  0.00  0.00     0.058 A 
ATOM      6  C   UNL d   1     -41.911-122.638 -55.230  0.00  0.00     0.015 A 
ATOM      7  O   UNL d   1     -42.539-120.980 -53.915  0.00  0.00    -0.286 OA
ATOM      8 CL   UNL d   1     -41.124-123.817 -54.964  0.00  0.00    -0.082 Cl
ENDROOT
BRANCH   1   9
ATOM      9  C   UNL d   1     -41.665-121.926 -52.848  0.00  0.00     0.214 C 
ATOM     10  O   UNL d   1     -41.127-121.328 -52.625  0.00  0.00    -0.644 OA
ATOM     11  O   UNL d   1     -42.123-122.276 -52.234  0.00  0.00    -0.644 OA
ENDBRANCH   1   9
TORSDOF 1
ENDMDL
MODEL 4
REMARK VINA RESULT:      -3.7      3.752      4.369
REMARK  1 active torsions:
REMARK  status: ('A' for Active; 'I' for Inactive)
REMARK    1  A    between atoms: C_2  and  C_1 
ROOT
ATOM      1  C   UNL d   1     -42.009-122.867 -50.037  0.00  0.00     0.104 A 
ATOM      2  C   UNL d   1     -42.784-122.692 -49.766  0.00  0.00     0.202 A 
ATOM      3  C   UNL d   1     -41.465-123.245 -49.502  0.00  0.00     0.021 A 
ATOM      4  C   UNL d   1     -42.997-122.889 -48.994  0.00  0.00     0.043 A 
ATOM      5  C   UNL d   1     -41.719-123.425 -48.738  0.00  0.00     0.058 A 
ATOM      6  C   UNL d   1     -42.481-123.250 -48.478  0.00  0.00     0.015 A 
ATOM      7  O   UNL d   1     -43.331-122.318 -50.290  0.00  0.00    -0.286 OA
ATOM      8 CL   UNL d   1     -41.173-123.799 -48.215  0.00  0.00    -0.082 Cl
ENDROOT
BRANCH   1   9
ATOM      9  C   UNL d   1     -41.781-122.677 -50.807  0.00  0.00     0.214 C 
ATOM     10  O   UNL d   1     -41.448-121.934 -50.993  0.00  0.00    -0.644 OA
ATOM     11  O   UNL d   1     -41.873-123.222 -51.442  0.00  0.00    -0.644 OA
ENDBRANCH   1   9
TORSDOF 1
ENDMDL
MODEL 5
REMARK VINA RESULT:      -3.5      2.935      3.373
REMARK  1 active torsions:
REMARK  status: ('A' for Active; 'I' for Inactive)
REMARK    1  A    between atoms: C_2  and  C_1 
ROOT
ATOM      1  C   UNL d   1     -41.858-122.470 -50.840  0.00  0.00     0.104 A 
ATOM      2  C   UNL d   1     -41.602-123.266 -50.906  0.00  0.00     0.202 A 
ATOM      3  C   UNL d   1     -42.340-122.250 -50.173  0.00  0.00     0.021 A 
ATOM      4  C   UNL d   1     -41.821-123.812 -50.328  0.00  0.00     0.043 A 
ATOM      5  C   UNL d   1     -42.537-122.827 -49.617  0.00  0.00     0.058 A 
ATOM      6  C   UNL d   1     -42.282-123.607 -49.689  0.00  0.00     0.015 A 
ATOM      7  O   UNL d   1     -41.123-123.494 -51.564  0.00  0.00    -0.286 OA
ATOM      8 CL   UNL d   1     -43.015-122.600 -48.961  0.00  0.00    -0.082 Cl
ENDROOT
BRANCH   1   9
ATOM      9  C   UNL d   1     -41.646-121.912 -51.410  0.00  0.00     0.214 C 
ATOM     10  O   UNL d   1     -41.124-121.285 -51.235  0.00  0.00    -0.644 OA
ATOM     11  O   UNL d   1     -41.946-121.950 -52.196  0.00  0.00    -0.644 OA
ENDBRANCH   1   9
TORSDOF 1
ENDMDL
MODEL 6
REMARK VINA RESULT:      -3.1      3.673      4.239
REMARK  1 active torsions:
REMARK  status: ('A' for Active; 'I' for Inactive)
REMARK    1  A    between atoms: C_2  and  C_1 
ROOT
ATOM      1  C   UNL d   1     -42.388-122.741 -49.994  0.00  0.00     0.104 A 
ATOM      2  C   UNL d   1     -41.771-123.300 -49.891  0.00  0.00     0.202 A 
ATOM      3  C   UNL d   1     -42.362-122.224 -50.670  0.00  0.00     0.021 A 
ATOM      4  C   UNL d   1     -41.160-123.336 -50.444  0.00  0.00     0.043 A 
ATOM      5  C   UNL d   1     -41.734-122.293 -51.199  0.00  0.00     0.058 A 
ATOM      6  C   UNL d   1     -41.131-122.844 -51.093  0.00  0.00     0.015 A 
ATOM      7  O   UNL d   1     -41.787-123.817 -49.223  0.00  0.00    -0.286 OA
ATOM      8 CL   UNL d   1     -41.717-121.777 -51.866  0.00  0.00    -0.082 Cl
ENDROOT
BRANCH   1   9
ATOM      9  C   UNL d   1     -43.006-122.693 -49.448  0.00  0.00     0.214 C 
ATOM     10  O   UNL d   1     -43.759-123.013 -49.613  0.00  0.00    -0.644 OA
ATOM     11  O   UNL d   1     -42.906-122.320 -48.700  0.00  0.00    -0.644 OA
ENDBRANCH   1   9
TORSDOF 1
ENDMDL
