MODEL 1
REMARK VINA RESULT:      93.9      0.000      0.000
REMARK  7 active torsions:
REMARK  status: ('A' for Active; 'I' for Inactive)
REMARK    1  A    between atoms: O_8  and  C_1 
REMARK    2  A    between atoms: C_10  and  C_5 
REMARK    3  A    between atoms: C_12  and  O_8 
REMARK    4  A    between atoms: N_9  and  C_10 
REMARK    5  A    between atoms: C_25  and  N_14 
REMARK    6  A    between atoms: O_24  and  C_17 
REMARK    7  A    between atoms: C_29  and  C_25 
ROOT
ATOM      1  C   UNL d   1     -55.867-101.803 -42.886  0.00  0.00     0.161 A 
ATOM      2  C   UNL d   1     -55.680-100.426 -43.805  0.00  0.00     0.108 A 
ATOM      3  C   UNL d   1     -55.289-101.135 -44.019  0.00  0.00     0.064 A 
ATOM      4  C   UNL d   1     -55.380-101.816 -43.566  0.00  0.00     0.222 A 
ATOM      5  C   UNL d   1     -55.582 -99.748 -44.266  0.00  0.00     0.079 A 
ATOM      6  O   UNL d   1     -56.162-100.408 -43.134  0.00  0.00    -0.305 OA
ATOM      7  C   UNL d   1     -56.256-101.099 -42.671  0.00  0.00     0.126 A 
ATOM      8  C   UNL d   1     -54.805-101.144 -44.699  0.00  0.00     0.009 A 
ATOM      9  C   UNL d   1     -55.106 -99.757 -44.934  0.00  0.00     0.199 A 
ATOM     10  O   UNL d   1     -54.997-102.516 -43.775  0.00  0.00    -0.284 OA
ATOM     11  C   UNL d   1     -54.713-100.463 -45.153  0.00  0.00     0.042 A 
ATOM     12  O   UNL d   1     -55.009 -99.087 -45.391  0.00  0.00    -0.286 OA
ATOM     13  C   UNL d   1     -56.735-101.083 -42.002  0.00  0.00     0.029 C 
ENDROOT
BRANCH   5  14
ATOM     14  C   UNL d   1     -55.967 -99.057 -44.052  0.00  0.00     0.086 C 
BRANCH  14  15
ATOM     15  N   UNL d   1     -56.781 -98.981 -44.179  0.00  0.00    -0.300 N 
ATOM     16  C   UNL d   1     -57.065 -98.851 -44.942  0.00  0.00     0.100 A 
ATOM     17  C   UNL d   1     -57.874 -98.775 -45.070  0.00  0.00     0.100 A 
ATOM     18  N   UNL d   1     -58.401 -98.830 -44.434  0.00  0.00    -0.297 N 
ATOM     19  C   UNL d   1     -58.113 -98.961 -43.672  0.00  0.00     0.100 A 
ATOM     20  C   UNL d   1     -57.296 -99.038 -43.538  0.00  0.00     0.100 A 
BRANCH  18  21
ATOM     21  C   UNL d   1     -59.211 -98.755 -44.562  0.00  0.00     0.126 C 
BRANCH  21  22
ATOM     22  C   UNL d   1     -59.745 -99.081 -44.024  0.00  0.00     0.253 C 
ATOM     23  O   UNL d   1     -59.797 -98.774 -43.255  0.00  0.00    -0.281 OA
ENDBRANCH  21  22
ENDBRANCH  18  21
ENDBRANCH  14  15
ENDBRANCH   5  14
BRANCH   1  24
ATOM     24  O   UNL d   1     -55.959-102.484 -42.432  0.00  0.00    -0.300 OA
BRANCH  24  25
ATOM     25  C   UNL d   1     -55.741-102.477 -41.644  0.00  0.00     0.122 A 
ATOM     26  C   UNL d   1     -56.313-102.510 -41.062  0.00  0.00     0.117 A 
ATOM     27  C   UNL d   1     -56.095-102.503 -40.270  0.00  0.00     0.026 A 
ATOM     28  C   UNL d   1     -55.294-102.463 -40.068  0.00  0.00     0.002 A 
ATOM     29  C   UNL d   1     -54.722-102.430 -40.651  0.00  0.00     0.002 A 
ATOM     30  C   UNL d   1     -54.943-102.437 -41.446  0.00  0.00     0.027 A 
BRANCH  26  31
ATOM     31  O   UNL d   1     -57.107-102.550 -41.275  0.00  0.00    -0.326 OA
ATOM     32  C   UNL d   1     -57.659-102.876 -40.755  0.00  0.00     0.181 C 
ENDBRANCH  26  31
ENDBRANCH  24  25
ENDBRANCH   1  24
TORSDOF 7
ENDMDL
