MODEL 1
REMARK VINA RESULT:      -2.5      0.000      0.000
REMARK  9 active torsions:
REMARK  status: ('A' for Active; 'I' for Inactive)
REMARK    1  A    between atoms: C_2  and  N_1 
REMARK    2  A    between atoms: C_4  and  C_2 
REMARK    3  A    between atoms: C_6  and  C_2 
REMARK    4  A    between atoms: C_8  and  N_3 
REMARK       I    between atoms: C_5  and  N_7 
REMARK    5  A    between atoms: O_17  and  C_5 
REMARK    6  A    between atoms: N_7  and  C_6 
REMARK    7  A    between atoms: C_22  and  O_17 
REMARK    8  A    between atoms: O_26  and  C_21 
REMARK    9  A    between atoms: C_25  and  C_22 
ROOT
ATOM      1  C   UNL d   1      33.187  20.697 -22.896  0.00  0.00     0.107 C 
ENDROOT
BRANCH   1   2
ATOM      2  N   UNL d   1      33.120  21.132 -22.189  0.00  0.00    -0.298 N 
ATOM      3  C   UNL d   1      33.017  21.943 -22.215  0.00  0.00     0.100 A 
ATOM      4  C   UNL d   1      32.950  22.378 -21.508  0.00  0.00     0.100 A 
ATOM      5  N   UNL d   1      32.989  21.987 -20.783  0.00  0.00    -0.301 N 
ATOM      6  C   UNL d   1      33.095  21.163 -20.769  0.00  0.00     0.100 A 
ATOM      7  C   UNL d   1      33.160  20.741 -21.464  0.00  0.00     0.100 A 
BRANCH   5   8
ATOM      8  C   UNL d   1      32.926  22.401 -20.092  0.00  0.00     0.064 A 
ATOM      9  C   UNL d   1      32.756  22.010 -19.386  0.00  0.00     0.020 A 
ATOM     10  C   UNL d   1      32.692  22.437 -18.683  0.00  0.00     0.026 A 
ATOM     11  C   UNL d   1      32.798  23.256 -18.686  0.00  0.00     0.094 A 
ATOM     12  C   UNL d   1      32.968  23.647 -19.392  0.00  0.00     0.026 A 
ATOM     13  C   UNL d   1      33.031  23.218 -20.092  0.00  0.00     0.020 A 
BRANCH  11  14
ATOM     14  O   UNL d   1      32.732  23.687 -17.970  0.00  0.00    -0.328 OA
ATOM     15  C   UNL d   1      32.669  23.274 -17.262  0.00  0.00     0.181 C 
ENDBRANCH  11  14
ENDBRANCH   5   8
ENDBRANCH   1   2
BRANCH   1  16
ATOM     16  C   UNL d   1      33.199  21.107 -23.628  0.00  0.00     0.118 A 
ATOM     17  O   UNL d   1      33.180  21.914 -23.814  0.00  0.00    -0.304 OA
ATOM     18  C   UNL d   1      33.206  21.975 -24.642  0.00  0.00     0.123 A 
ATOM     19  C   UNL d   1      33.241  21.225 -24.958  0.00  0.00     0.029 A 
ATOM     20  C   UNL d   1      33.236  20.683 -24.330  0.00  0.00     0.028 A 
ENDBRANCH   1  16
BRANCH   1  21
ATOM     21  C   UNL d   1      33.241  19.876 -22.891  0.00  0.00     0.124 C 
BRANCH  21  22
ATOM     22  N   UNL d   1      32.608  19.417 -23.197  0.00  0.00    -0.183 NA
ATOM     23  C   UNL d   1      32.601  18.610 -23.100  0.00  0.00     0.392 C 
ATOM     24  O   UNL d   1      33.220  18.236 -22.697  0.00  0.00    -0.236 OA
BRANCH  23  25
ATOM     25  O   UNL d   1      31.975  18.167 -23.404  0.00  0.00    -0.256 OA
BRANCH  25  26
ATOM     26  C   UNL d   1      32.116  17.418 -23.722  0.00  0.00     0.128 C 
BRANCH  26  27
ATOM     27  C   UNL d   1      31.494  16.884 -23.811  0.00  0.00     0.025 A 
ATOM     28  C   UNL d   1      31.526  16.149 -23.438  0.00  0.00     0.002 A 
ATOM     29  C   UNL d   1      30.904  15.614 -23.526  0.00  0.00     0.000 A 
ATOM     30  C   UNL d   1      30.249  15.815 -23.987  0.00  0.00     0.000 A 
ATOM     31  C   UNL d   1      30.220  16.548 -24.357  0.00  0.00     0.000 A 
ATOM     32  C   UNL d   1      30.839  17.086 -24.271  0.00  0.00     0.002 A 
ENDBRANCH  26  27
ENDBRANCH  25  26
ENDBRANCH  23  25
ENDBRANCH  21  22
ENDBRANCH   1  21
TORSDOF 9
ENDMDL
