MODEL 1
REMARK VINA RESULT:     -10.1      0.000      0.000
REMARK  1 active torsions:
REMARK  status: ('A' for Active; 'I' for Inactive)
REMARK    1  A    between atoms: C_11  and  N_5 
ROOT
ATOM      1  C   UNL d   1      53.213  32.544  54.012  0.00  0.00     0.130 A 
ATOM      2  C   UNL d   1      52.787  32.699  53.322  0.00  0.00     0.157 A 
ATOM      3  N   UNL d   1      52.541  32.083  52.843  0.00  0.00    -0.210 NA
ATOM      4  C   UNL d   1      53.392  31.767  54.223  0.00  0.00     0.272 A 
ATOM      5  N   UNL d   1      53.146  31.147  53.744  0.00  0.00    -0.259 N 
ATOM      6  C   UNL d   1      53.459  33.168  54.492  0.00  0.00     0.204 A 
ATOM      7  N   UNL d   1      52.612  33.474  53.117  0.00  0.00    -0.289 N 
ATOM      8  C   UNL d   1      52.720  31.299  53.053  0.00  0.00     0.152 A 
ATOM      9  C   UNL d   1      53.284  33.934  54.286  0.00  0.00     0.055 A 
ATOM     10  C   UNL d   1      52.861  34.094  53.600  0.00  0.00     0.069 A 
ATOM     11  O   UNL d   1      53.815  31.616  54.911  0.00  0.00    -0.266 OA
ATOM     12  O   UNL d   1      53.882  33.009  55.178  0.00  0.00    -0.286 OA
ATOM     13  C   UNL d   1      52.189  33.633  52.431  0.00  0.00     0.101 C 
ATOM     14  C   UNL d   1      52.472  30.679  52.571  0.00  0.00     0.041 C 
ATOM     15  C   UNL d   1      53.532  34.558  54.769  0.00  0.00     0.005 A 
ATOM     16  C   UNL d   1      52.682  34.878  53.391  0.00  0.00     0.018 A 
ATOM     17  C   UNL d   1      53.353  35.333  54.558  0.00  0.00     0.000 A 
ATOM     18  C   UNL d   1      52.931  35.493  53.872  0.00  0.00     0.002 A 
ENDROOT
BRANCH   5  19
ATOM     19  C   UNL d   1      53.327  30.370  53.959  0.00  0.00     0.068 A 
ATOM     20  C   UNL d   1      52.862  29.967  54.516  0.00  0.00     0.020 A 
ATOM     21  C   UNL d   1      53.044  29.190  54.730  0.00  0.00     0.031 A 
ATOM     22  C   UNL d   1      53.690  28.805  54.393  0.00  0.00     0.140 A 
ATOM     23  C   UNL d   1      54.162  29.204  53.832  0.00  0.00     0.031 A 
ATOM     24  F   UNL d   1      53.874  28.026  54.607  0.00  0.00    -0.204 F 
ATOM     25  C   UNL d   1      53.975  29.987  53.618  0.00  0.00     0.020 A 
ENDBRANCH   5  19
TORSDOF 1
ENDMDL
MODEL 2
REMARK VINA RESULT:      -9.7      2.559      4.068
REMARK  1 active torsions:
REMARK  status: ('A' for Active; 'I' for Inactive)
REMARK    1  A    between atoms: C_11  and  N_5 
ROOT
ATOM      1  C   UNL d   1      52.693  33.957  53.829  0.00  0.00     0.130 A 
ATOM      2  C   UNL d   1      52.815  33.141  53.860  0.00  0.00     0.157 A 
ATOM      3  N   UNL d   1      52.283  32.632  53.506  0.00  0.00    -0.210 NA
ATOM      4  C   UNL d   1      52.034  34.264  53.441  0.00  0.00     0.272 A 
ATOM      5  N   UNL d   1      51.497  33.754  53.084  0.00  0.00    -0.259 N 
ATOM      6  C   UNL d   1      53.233  34.467  54.189  0.00  0.00     0.204 A 
ATOM      7  N   UNL d   1      53.474  32.843  54.249  0.00  0.00    -0.289 N 
ATOM      8  C   UNL d   1      51.617  32.937  53.113  0.00  0.00     0.152 A 
ATOM      9  C   UNL d   1      53.884  34.167  54.572  0.00  0.00     0.055 A 
ATOM     10  C   UNL d   1      54.009  33.357  54.606  0.00  0.00     0.069 A 
ATOM     11  O   UNL d   1      51.915  35.075  53.411  0.00  0.00    -0.266 OA
ATOM     12  O   UNL d   1      53.108  35.279  54.155  0.00  0.00    -0.286 OA
ATOM     13  C   UNL d   1      53.599  32.031  54.282  0.00  0.00     0.101 C 
ATOM     14  C   UNL d   1      51.081  32.424  52.756  0.00  0.00     0.041 C 
ATOM     15  C   UNL d   1      54.423  34.682  54.931  0.00  0.00     0.005 A 
ATOM     16  C   UNL d   1      54.676  33.052  54.999  0.00  0.00     0.018 A 
ATOM     17  C   UNL d   1      55.082  34.375  55.319  0.00  0.00     0.000 A 
ATOM     18  C   UNL d   1      55.207  33.565  55.353  0.00  0.00     0.002 A 
ENDROOT
BRANCH   5  19
ATOM     19  C   UNL d   1      50.838  34.064  52.695  0.00  0.00     0.068 A 
ATOM     20  C   UNL d   1      50.171  34.307  53.125  0.00  0.00     0.020 A 
ATOM     21  C   UNL d   1      49.512  34.618  52.736  0.00  0.00     0.031 A 
ATOM     22  C   UNL d   1      49.508  34.690  51.915  0.00  0.00     0.140 A 
ATOM     23  C   UNL d   1      50.175  34.448  51.476  0.00  0.00     0.031 A 
ATOM     24  F   UNL d   1      48.847  35.001  51.523  0.00  0.00    -0.204 F 
ATOM     25  C   UNL d   1      50.838  34.135  51.872  0.00  0.00     0.020 A 
ENDBRANCH   5  19
TORSDOF 1
ENDMDL
MODEL 3
REMARK VINA RESULT:      -9.2      2.458      4.560
REMARK  1 active torsions:
REMARK  status: ('A' for Active; 'I' for Inactive)
REMARK    1  A    between atoms: C_11  and  N_5 
ROOT
ATOM      1  C   UNL d   1      52.195  32.347  53.171  0.00  0.00     0.130 A 
ATOM      2  C   UNL d   1      52.929  32.718  53.246  0.00  0.00     0.157 A 
ATOM      3  N   UNL d   1      52.985  33.532  53.201  0.00  0.00    -0.210 NA
ATOM      4  C   UNL d   1      51.514  32.796  53.049  0.00  0.00     0.272 A 
ATOM      5  N   UNL d   1      51.568  33.614  53.004  0.00  0.00    -0.259 N 
ATOM      6  C   UNL d   1      52.143  31.525  53.217  0.00  0.00     0.204 A 
ATOM      7  N   UNL d   1      53.602  32.265  53.367  0.00  0.00    -0.289 N 
ATOM      8  C   UNL d   1      52.301  33.988  53.079  0.00  0.00     0.152 A 
ATOM      9  C   UNL d   1      52.813  31.080  53.336  0.00  0.00     0.055 A 
ATOM     10  C   UNL d   1      53.545  31.445  53.412  0.00  0.00     0.069 A 
ATOM     11  O   UNL d   1      50.785  32.424  52.974  0.00  0.00    -0.266 OA
ATOM     12  O   UNL d   1      51.410  31.160  53.141  0.00  0.00    -0.286 OA
ATOM     13  C   UNL d   1      54.335  32.630  53.443  0.00  0.00     0.101 C 
ATOM     14  C   UNL d   1      52.357  34.808  53.034  0.00  0.00     0.041 C 
ATOM     15  C   UNL d   1      52.757  30.256  53.382  0.00  0.00     0.005 A 
ATOM     16  C   UNL d   1      54.229  30.988  53.534  0.00  0.00     0.018 A 
ATOM     17  C   UNL d   1      53.438  29.808  53.503  0.00  0.00     0.000 A 
ATOM     18  C   UNL d   1      54.169  30.172  53.579  0.00  0.00     0.002 A 
ENDROOT
BRANCH   5  19
ATOM     19  C   UNL d   1      50.884  34.061  52.882  0.00  0.00     0.068 A 
ATOM     20  C   UNL d   1      50.489  34.411  53.523  0.00  0.00     0.020 A 
ATOM     21  C   UNL d   1      49.804  34.857  53.401  0.00  0.00     0.031 A 
ATOM     22  C   UNL d   1      49.505  34.961  52.639  0.00  0.00     0.140 A 
ATOM     23  C   UNL d   1      49.896  34.612  51.991  0.00  0.00     0.031 A 
ATOM     24  F   UNL d   1      48.818  35.408  52.515  0.00  0.00    -0.204 F 
ATOM     25  C   UNL d   1      50.586  34.162  52.118  0.00  0.00     0.020 A 
ENDBRANCH   5  19
TORSDOF 1
ENDMDL
MODEL 4
REMARK VINA RESULT:      -8.0      1.866      4.258
REMARK  1 active torsions:
REMARK  status: ('A' for Active; 'I' for Inactive)
REMARK    1  A    between atoms: C_11  and  N_5 
ROOT
ATOM      1  C   UNL d   1      53.143  32.182  53.848  0.00  0.00     0.130 A 
ATOM      2  C   UNL d   1      52.711  32.009  53.165  0.00  0.00     0.157 A 
ATOM      3  N   UNL d   1      52.367  32.611  52.733  0.00  0.00    -0.210 NA
ATOM      4  C   UNL d   1      53.229  32.963  54.097  0.00  0.00     0.272 A 
ATOM      5  N   UNL d   1      52.884  33.570  53.664  0.00  0.00    -0.259 N 
ATOM      6  C   UNL d   1      53.489  31.571  54.280  0.00  0.00     0.204 A 
ATOM      7  N   UNL d   1      52.630  31.230  52.922  0.00  0.00    -0.289 N 
ATOM      8  C   UNL d   1      52.451  33.400  52.981  0.00  0.00     0.152 A 
ATOM      9  C   UNL d   1      53.405  30.800  54.036  0.00  0.00     0.055 A 
ATOM     10  C   UNL d   1      52.977  30.624  53.358  0.00  0.00     0.069 A 
ATOM     11  O   UNL d   1      53.659  33.132  54.776  0.00  0.00    -0.266 OA
ATOM     12  O   UNL d   1      53.917  31.748  54.959  0.00  0.00    -0.286 OA
ATOM     13  C   UNL d   1      52.201  31.053  52.243  0.00  0.00     0.101 C 
ATOM     14  C   UNL d   1      52.104  34.007  52.546  0.00  0.00     0.041 C 
ATOM     15  C   UNL d   1      53.753  30.190  54.473  0.00  0.00     0.005 A 
ATOM     16  C   UNL d   1      52.893  29.835  53.110  0.00  0.00     0.018 A 
ATOM     17  C   UNL d   1      53.667  29.410  54.223  0.00  0.00     0.000 A 
ATOM     18  C   UNL d   1      53.239  29.233  53.545  0.00  0.00     0.002 A 
ENDROOT
BRANCH   5  19
ATOM     19  C   UNL d   1      52.972  34.351  53.917  0.00  0.00     0.068 A 
ATOM     20  C   UNL d   1      52.450  34.675  54.476  0.00  0.00     0.020 A 
ATOM     21  C   UNL d   1      52.539  35.457  54.729  0.00  0.00     0.031 A 
ATOM     22  C   UNL d   1      53.148  35.925  54.429  0.00  0.00     0.140 A 
ATOM     23  C   UNL d   1      53.676  35.607  53.867  0.00  0.00     0.031 A 
ATOM     24  F   UNL d   1      53.238  36.709  54.682  0.00  0.00    -0.204 F 
ATOM     25  C   UNL d   1      53.583  34.818  53.615  0.00  0.00     0.020 A 
ENDBRANCH   5  19
TORSDOF 1
ENDMDL
MODEL 5
REMARK VINA RESULT:      -7.3      2.096      4.512
REMARK  1 active torsions:
REMARK  status: ('A' for Active; 'I' for Inactive)
REMARK    1  A    between atoms: C_11  and  N_5 
ROOT
ATOM      1  C   UNL d   1      53.183  32.142  53.744  0.00  0.00     0.130 A 
ATOM      2  C   UNL d   1      53.597  31.760  54.348  0.00  0.00     0.157 A 
ATOM      3  N   UNL d   1      53.941  32.193  54.949  0.00  0.00    -0.210 NA
ATOM      4  C   UNL d   1      53.115  32.964  53.744  0.00  0.00     0.272 A 
ATOM      5  N   UNL d   1      53.461  33.402  54.347  0.00  0.00    -0.259 N 
ATOM      6  C   UNL d   1      52.837  31.700  53.140  0.00  0.00     0.204 A 
ATOM      7  N   UNL d   1      53.661  30.942  54.342  0.00  0.00    -0.289 N 
ATOM      8  C   UNL d   1      53.875  33.022  54.952  0.00  0.00     0.152 A 
ATOM      9  C   UNL d   1      52.903  30.890  53.138  0.00  0.00     0.055 A 
ATOM     10  C   UNL d   1      53.313  30.505  53.736  0.00  0.00     0.069 A 
ATOM     11  O   UNL d   1      52.703  33.341  53.142  0.00  0.00    -0.266 OA
ATOM     12  O   UNL d   1      52.426  32.085  52.541  0.00  0.00    -0.286 OA
ATOM     13  C   UNL d   1      54.072  30.557  54.941  0.00  0.00     0.101 C 
ATOM     14  C   UNL d   1      54.222  33.459  55.558  0.00  0.00     0.041 C 
ATOM     15  C   UNL d   1      52.554  30.450  52.530  0.00  0.00     0.005 A 
ATOM     16  C   UNL d   1      53.380  29.677  53.733  0.00  0.00     0.018 A 
ATOM     17  C   UNL d   1      52.623  29.629  52.531  0.00  0.00     0.000 A 
ATOM     18  C   UNL d   1      53.033  29.245  53.129  0.00  0.00     0.002 A 
ENDROOT
BRANCH   5  19
ATOM     19  C   UNL d   1      53.390  34.224  54.343  0.00  0.00     0.068 A 
ATOM     20  C   UNL d   1      52.799  34.599  54.788  0.00  0.00     0.020 A 
ATOM     21  C   UNL d   1      52.729  35.423  54.785  0.00  0.00     0.031 A 
ATOM     22  C   UNL d   1      53.247  35.883  54.338  0.00  0.00     0.140 A 
ATOM     23  C   UNL d   1      53.844  35.513  53.888  0.00  0.00     0.031 A 
ATOM     24  F   UNL d   1      53.178  36.709  54.333  0.00  0.00    -0.204 F 
ATOM     25  C   UNL d   1      53.911  34.683  53.894  0.00  0.00     0.020 A 
ENDBRANCH   5  19
TORSDOF 1
ENDMDL
