MODEL 1
REMARK VINA RESULT:      32.0      0.000      0.000
REMARK  3 active torsions:
REMARK  status: ('A' for Active; 'I' for Inactive)
REMARK    1  A    between atoms: C_6  and  N_1 
REMARK    2  A    between atoms: C_8  and  C_6 
REMARK    3  A    between atoms: O_15  and  C_9 
ROOT
ATOM      1  N   UNL d   1      58.297  49.678  50.410  0.00  0.00    -0.268 N 
ATOM      2  C   UNL d   1      58.082  49.675  51.207  0.00  0.00     0.296 A 
ATOM      3  S   UNL d   1      57.249  49.641  51.245  0.00  0.00    -0.025 SA
ATOM      4  C   UNL d   1      57.603  49.646  49.957  0.00  0.00     0.073 A 
ATOM      5  C   UNL d   1      56.965  49.624  50.465  0.00  0.00     0.050 A 
ATOM      6  O   UNL d   1      58.600  49.700  51.844  0.00  0.00    -0.259 OA
ATOM      7  C   UNL d   1      57.482  49.635  49.141  0.00  0.00     0.018 A 
ATOM      8  C   UNL d   1      56.190  49.590  50.170  0.00  0.00     0.008 A 
ATOM      9  C   UNL d   1      56.714  49.602  48.839  0.00  0.00     0.002 A 
ATOM     10  C   UNL d   1      56.064  49.579  49.357  0.00  0.00     0.001 A 
ENDROOT
BRANCH   1  11
ATOM     11  C   UNL d   1      59.066  49.707  50.113  0.00  0.00     0.084 C 
BRANCH  11  12
ATOM     12  C   UNL d   1      59.694  49.434  50.567  0.00  0.00     0.018 A 
ATOM     13  C   UNL d   1      59.612  49.388  51.388  0.00  0.00     0.004 A 
ATOM     14  C   UNL d   1      60.237  49.115  51.846  0.00  0.00     0.024 A 
ATOM     15  C   UNL d   1      60.948  48.887  51.490  0.00  0.00     0.094 A 
ATOM     16  C   UNL d   1      61.025  48.935  50.664  0.00  0.00     0.024 A 
ATOM     17  C   UNL d   1      60.397  49.209  50.209  0.00  0.00     0.004 A 
BRANCH  15  18
ATOM     18  O   UNL d   1      61.594  48.610  51.914  0.00  0.00    -0.328 OA
ATOM     19  C   UNL d   1      62.133  49.139  52.237  0.00  0.00     0.181 C 
ENDBRANCH  15  18
ENDBRANCH  11  12
ENDBRANCH   1  11
TORSDOF 3
ENDMDL
MODEL 2
REMARK VINA RESULT:      34.8      1.517      4.066
REMARK  3 active torsions:
REMARK  status: ('A' for Active; 'I' for Inactive)
REMARK    1  A    between atoms: C_6  and  N_1 
REMARK    2  A    between atoms: C_8  and  C_6 
REMARK    3  A    between atoms: O_15  and  C_9 
ROOT
ATOM      1  N   UNL d   1      59.206  49.540  51.194  0.00  0.00    -0.268 N 
ATOM      2  C   UNL d   1      59.440  49.621  50.406  0.00  0.00     0.296 A 
ATOM      3  S   UNL d   1      60.271  49.698  50.395  0.00  0.00    -0.025 SA
ATOM      4  C   UNL d   1      59.887  49.566  51.667  0.00  0.00     0.073 A 
ATOM      5  C   UNL d   1      60.535  49.662  51.181  0.00  0.00     0.050 A 
ATOM      6  O   UNL d   1      58.940  49.625  49.755  0.00  0.00    -0.259 OA
ATOM      7  C   UNL d   1      59.988  49.513  52.484  0.00  0.00     0.018 A 
ATOM      8  C   UNL d   1      61.300  49.708  51.499  0.00  0.00     0.008 A 
ATOM      9  C   UNL d   1      60.746  49.557  52.809  0.00  0.00     0.002 A 
ATOM     10  C   UNL d   1      61.406  49.655  52.314  0.00  0.00     0.001 A 
ENDROOT
BRANCH   1  11
ATOM     11  C   UNL d   1      58.433  49.448  51.466  0.00  0.00     0.084 C 
BRANCH  11  12
ATOM     12  C   UNL d   1      57.842  49.202  50.950  0.00  0.00     0.018 A 
ATOM     13  C   UNL d   1      57.873  48.442  50.630  0.00  0.00     0.004 A 
ATOM     14  C   UNL d   1      57.284  48.191  50.115  0.00  0.00     0.024 A 
ATOM     15  C   UNL d   1      56.660  48.697  49.915  0.00  0.00     0.094 A 
ATOM     16  C   UNL d   1      56.635  49.461  50.241  0.00  0.00     0.024 A 
ATOM     17  C   UNL d   1      57.226  49.708  50.756  0.00  0.00     0.004 A 
BRANCH  15  18
ATOM     18  O   UNL d   1      56.055  48.483  49.404  0.00  0.00    -0.328 OA
ATOM     19  C   UNL d   1      56.180  47.903  48.837  0.00  0.00     0.181 C 
ENDBRANCH  15  18
ENDBRANCH  11  12
ENDBRANCH   1  11
TORSDOF 3
ENDMDL
