MODEL 1
REMARK VINA RESULT:      45.0      0.000      0.000
REMARK  3 active torsions:
REMARK  status: ('A' for Active; 'I' for Inactive)
REMARK    1  A    between atoms: S_12  and  C_7 
REMARK    2  A    between atoms: C_10  and  C_13 
REMARK    3  A    between atoms: C_13  and  S_12 
ROOT
ATOM      1  N   UNL d   1      14.881  15.850  -1.898  0.00  0.00    -0.224 N 
ATOM      2  N   UNL d   1      15.311  15.094  -0.756  0.00  0.00    -0.241 N 
ATOM      3  C   UNL d   1      15.244  15.815  -1.150  0.00  0.00     0.343 A 
ATOM      4  C   UNL d   1      15.013  14.402  -1.113  0.00  0.00     0.160 A 
ATOM      5  C   UNL d   1      14.588  15.164  -2.247  0.00  0.00     0.273 A 
ATOM      6  C   UNL d   1      14.653  14.436  -1.854  0.00  0.00     0.115 A 
ATOM      7  C   UNL d   1      14.362  13.758  -2.203  0.00  0.00     0.120 A 
ATOM      8  N   UNL d   1      15.080  13.677  -0.719  0.00  0.00    -0.209 NA
ATOM      9  N   UNL d   1      14.425  13.030  -1.814  0.00  0.00    -0.220 NA
ATOM     10  C   UNL d   1      14.787  12.991  -1.068  0.00  0.00     0.165 A 
ATOM     11  O   UNL d   1      15.537  16.501  -0.801  0.00  0.00    -0.245 OA
ATOM     12  O   UNL d   1      14.228  15.199  -2.988  0.00  0.00    -0.266 OA
ATOM     13  C   UNL d   1      14.817  16.570  -2.284  0.00  0.00     0.107 C 
ATOM     14  C   UNL d   1      15.670  15.052  -0.015  0.00  0.00     0.105 C 
ATOM     15  C   UNL d   1      14.851  12.271  -0.679  0.00  0.00     0.042 C 
ENDROOT
BRANCH   7  16
ATOM     16  S   UNL d   1      14.002  13.792  -2.944  0.00  0.00    -0.067 SA
BRANCH  16  17
ATOM     17  C   UNL d   1      13.308  13.370  -3.091  0.00  0.00     0.040 C 
BRANCH  17  18
ATOM     18  C   UNL d   1      13.201  12.982  -3.811  0.00  0.00     0.045 A 
ATOM     19  C   UNL d   1      12.985  12.182  -3.815  0.00  0.00     0.060 A 
ATOM     20 CL   UNL d   1      12.879  11.780  -3.100  0.00  0.00    -0.082 Cl
ATOM     21  C   UNL d   1      12.875  11.780  -4.528  0.00  0.00     0.012 A 
ATOM     22  C   UNL d   1      12.982  12.185  -5.238  0.00  0.00     0.003 A 
ATOM     23  C   UNL d   1      13.197  12.980  -5.251  0.00  0.00     0.030 A 
ATOM     24  C   UNL d   1      13.306  13.378  -4.537  0.00  0.00     0.141 A 
ATOM     25  F   UNL d   1      13.520  14.167  -4.536  0.00  0.00    -0.204 F 
ENDBRANCH  17  18
ENDBRANCH  16  17
ENDBRANCH   7  16
TORSDOF 3
ENDMDL
