MODEL 1
REMARK VINA RESULT:      23.7      0.000      0.000
REMARK  1 active torsions:
REMARK  status: ('A' for Active; 'I' for Inactive)
REMARK    1  A    between atoms: C_7  and  C_2 
ROOT
ATOM      1  C   UNL d   1     -51.852  25.242  33.592  0.00  0.00     0.070 A 
ATOM      2  C   UNL d   1     -52.574  24.888  33.569  0.00  0.00     0.170 A 
ATOM      3  C   UNL d   1     -51.935  26.054  33.451  0.00  0.00     0.108 A 
ATOM      4  N   UNL d   1     -53.148  25.484  33.408  0.00  0.00    -0.142 NA
ATOM      5  N   UNL d   1     -52.738  26.201  33.338  0.00  0.00    -0.148 NA
ATOM      6  C   UNL d   1     -51.262  26.537  33.448  0.00  0.00     0.042 A 
ATOM      7  C   UNL d   1     -51.106  24.918  33.728  0.00  0.00     0.126 A 
ATOM      8  O   UNL d   1     -50.433  25.400  33.725  0.00  0.00    -0.305 OA
ATOM      9  C   UNL d   1     -50.516  26.212  33.584  0.00  0.00     0.102 A 
ATOM     10  C   UNL d   1     -51.345  27.349  33.307  0.00  0.00     0.004 A 
ATOM     11  C   UNL d   1     -49.843  26.695  33.581  0.00  0.00     0.025 A 
ATOM     12  C   UNL d   1     -50.677  27.822  33.306  0.00  0.00     0.000 A 
ATOM     13  C   UNL d   1     -49.931  27.497  33.442  0.00  0.00     0.002 A 
ENDROOT
BRANCH   2  14
ATOM     14  C   UNL d   1     -52.687  24.090  33.685  0.00  0.00     0.231 C 
ATOM     15  O   UNL d   1     -52.195  23.548  33.321  0.00  0.00    -0.643 OA
ATOM     16  O   UNL d   1     -53.299  23.826  34.173  0.00  0.00    -0.643 OA
ENDBRANCH   2  14
TORSDOF 1
ENDMDL
