MODEL 1
REMARK VINA RESULT:      -4.7      0.000      0.000
REMARK  3 active torsions:
REMARK  status: ('A' for Active; 'I' for Inactive)
REMARK    1  A    between atoms: N_2  and  C_1 
REMARK    2  A    between atoms: C_5  and  C_4 
REMARK       I    between atoms: N_6  and  C_5 
REMARK    3  A    between atoms: C_9  and  N_6 
ROOT
ATOM      1  C   UNL d   1      59.289  -9.161  35.814  0.00  0.00     0.285 C 
ATOM      2  N   UNL d   1      59.241  -8.500  36.308  0.00  0.00    -0.205 NA
ATOM      3  O   UNL d   1      58.777  -9.782  35.892  0.00  0.00    -0.265 OA
ENDROOT
BRANCH   1   4
ATOM      4  C   UNL d   1      59.862  -9.202  35.229  0.00  0.00     0.089 A 
ATOM      5  S   UNL d   1      59.712  -9.130  34.446  0.00  0.00    -0.059 SA
ATOM      6  C   UNL d   1      60.396  -9.197  34.017  0.00  0.00     0.156 A 
ATOM      7  C   UNL d   1      61.021  -9.321  34.570  0.00  0.00     0.031 A 
ATOM      8  C   UNL d   1      60.684  -9.324  35.329  0.00  0.00     0.014 A 
BRANCH   6   9
ATOM      9  N   UNL d   1      60.451  -9.151  33.214  0.00  0.00    -0.107 N 
ATOM     10  O   UNL d   1      59.949  -9.518  32.667  0.00  0.00    -0.531 OA
ATOM     11  O   UNL d   1      61.016  -8.734  32.836  0.00  0.00    -0.531 OA
ENDBRANCH   6   9
ENDBRANCH   1   4
BRANCH   2  12
ATOM     12  C   UNL d   1      59.766  -7.886  36.213  0.00  0.00     0.112 A 
ATOM     13  C   UNL d   1      59.487  -7.139  36.001  0.00  0.00     0.158 A 
ATOM     14  F   UNL d   1      58.674  -7.008  35.882  0.00  0.00    -0.203 F 
ATOM     15  C   UNL d   1      60.012  -6.524  35.906  0.00  0.00     0.031 A 
ATOM     16  C   UNL d   1      60.819  -6.651  36.022  0.00  0.00     0.002 A 
ATOM     17  C   UNL d   1      61.102  -7.380  36.231  0.00  0.00     0.002 A 
ATOM     18  C   UNL d   1      60.573  -8.012  36.330  0.00  0.00     0.021 A 
ENDBRANCH   2  12
TORSDOF 3
ENDMDL
MODEL 2
REMARK VINA RESULT:      -3.6      2.071      3.150
REMARK  3 active torsions:
REMARK  status: ('A' for Active; 'I' for Inactive)
REMARK    1  A    between atoms: N_2  and  C_1 
REMARK    2  A    between atoms: C_5  and  C_4 
REMARK       I    between atoms: N_6  and  C_5 
REMARK    3  A    between atoms: C_9  and  N_6 
ROOT
ATOM      1  C   UNL d   1      60.605  -8.982  35.715  0.00  0.00     0.285 C 
ATOM      2  N   UNL d   1      60.592  -9.529  35.096  0.00  0.00    -0.205 NA
ATOM      3  O   UNL d   1      61.129  -9.053  36.327  0.00  0.00    -0.265 OA
ENDROOT
BRANCH   1   4
ATOM      4  C   UNL d   1      60.082  -8.350  35.724  0.00  0.00     0.089 A 
ATOM      5  S   UNL d   1      60.294  -7.588  35.610  0.00  0.00    -0.059 SA
ATOM      6  C   UNL d   1      59.649  -7.101  35.653  0.00  0.00     0.156 A 
ATOM      7  C   UNL d   1      58.981  -7.594  35.805  0.00  0.00     0.031 A 
ATOM      8  C   UNL d   1      59.255  -8.377  35.849  0.00  0.00     0.014 A 
BRANCH   6   9
ATOM      9  N   UNL d   1      59.659  -6.300  35.565  0.00  0.00    -0.107 N 
ATOM     10  O   UNL d   1      60.333  -5.820  35.527  0.00  0.00    -0.531 OA
ATOM     11  O   UNL d   1      58.999  -5.857  35.501  0.00  0.00    -0.531 OA
ENDBRANCH   6   9
ENDBRANCH   1   4
BRANCH   2  12
ATOM     12  C   UNL d   1      60.057  -9.440  34.490  0.00  0.00     0.112 A 
ATOM     13  C   UNL d   1      60.323  -9.239  33.735  0.00  0.00     0.158 A 
ATOM     14  F   UNL d   1      61.133  -9.126  33.587  0.00  0.00    -0.203 F 
ATOM     15  C   UNL d   1      59.787  -9.150  33.129  0.00  0.00     0.031 A 
ATOM     16  C   UNL d   1      58.982  -9.261  33.271  0.00  0.00     0.002 A 
ATOM     17  C   UNL d   1      58.711  -9.459  34.009  0.00  0.00     0.002 A 
ATOM     18  C   UNL d   1      59.252  -9.551  34.633  0.00  0.00     0.021 A 
ENDBRANCH   2  12
TORSDOF 3
ENDMDL
MODEL 3
REMARK VINA RESULT:      -2.6      9.022      9.953
REMARK  3 active torsions:
REMARK  status: ('A' for Active; 'I' for Inactive)
REMARK    1  A    between atoms: N_2  and  C_1 
REMARK    2  A    between atoms: C_5  and  C_4 
REMARK       I    between atoms: N_6  and  C_5 
REMARK    3  A    between atoms: C_9  and  N_6 
ROOT
ATOM      1  C   UNL d   1      60.026   0.074  29.005  0.00  0.00     0.285 C 
ATOM      2  N   UNL d   1      59.807   0.682  29.520  0.00  0.00    -0.205 NA
ATOM      3  O   UNL d   1      60.722   0.102  28.594  0.00  0.00    -0.265 OA
ENDROOT
BRANCH   1   4
ATOM      4  C   UNL d   1      59.539  -0.577  28.899  0.00  0.00     0.089 A 
ATOM      5  S   UNL d   1      59.675  -1.299  29.215  0.00  0.00    -0.059 SA
ATOM      6  C   UNL d   1      59.091  -1.819  29.004  0.00  0.00     0.156 A 
ATOM      7  C   UNL d   1      58.547  -1.393  28.520  0.00  0.00     0.031 A 
ATOM      8  C   UNL d   1      58.830  -0.615  28.455  0.00  0.00     0.014 A 
BRANCH   6   9
ATOM      9  N   UNL d   1      59.052  -2.593  29.224  0.00  0.00    -0.107 N 
ATOM     10  O   UNL d   1      58.405  -2.970  29.579  0.00  0.00    -0.531 OA
ATOM     11  O   UNL d   1      59.652  -3.109  29.123  0.00  0.00    -0.531 OA
ENDBRANCH   6   9
ENDBRANCH   1   4
BRANCH   2  12
ATOM     12  C   UNL d   1      59.102   0.635  29.924  0.00  0.00     0.112 A 
ATOM     13  C   UNL d   1      59.107   0.549  30.745  0.00  0.00     0.158 A 
ATOM     14  F   UNL d   1      59.824   0.510  31.163  0.00  0.00    -0.203 F 
ATOM     15  C   UNL d   1      58.402   0.502  31.149  0.00  0.00     0.031 A 
ATOM     16  C   UNL d   1      57.688   0.540  30.738  0.00  0.00     0.002 A 
ATOM     17  C   UNL d   1      57.673   0.625  29.932  0.00  0.00     0.002 A 
ATOM     18  C   UNL d   1      58.389   0.673  29.512  0.00  0.00     0.021 A 
ENDBRANCH   2  12
TORSDOF 3
ENDMDL
MODEL 4
REMARK VINA RESULT:      -2.5      8.979      9.771
REMARK  3 active torsions:
REMARK  status: ('A' for Active; 'I' for Inactive)
REMARK    1  A    between atoms: N_2  and  C_1 
REMARK    2  A    between atoms: C_5  and  C_4 
REMARK       I    between atoms: N_6  and  C_5 
REMARK    3  A    between atoms: C_9  and  N_6 
ROOT
ATOM      1  C   UNL d   1      58.289  -0.314  30.046  0.00  0.00     0.285 C 
ATOM      2  N   UNL d   1      58.725   0.382  30.136  0.00  0.00    -0.205 NA
ATOM      3  O   UNL d   1      57.598  -0.433  30.449  0.00  0.00    -0.265 OA
ENDROOT
BRANCH   1   4
ATOM      4  C   UNL d   1      58.550  -0.906  29.541  0.00  0.00     0.089 A 
ATOM      5  S   UNL d   1      58.854  -1.604  29.784  0.00  0.00    -0.059 SA
ATOM      6  C   UNL d   1      59.058  -2.064  29.150  0.00  0.00     0.156 A 
ATOM      7  C   UNL d   1      58.867  -1.623  28.456  0.00  0.00     0.031 A 
ATOM      8  C   UNL d   1      58.548  -0.897  28.704  0.00  0.00     0.014 A 
BRANCH   6   9
ATOM      9  N   UNL d   1      59.380  -2.802  29.190  0.00  0.00    -0.107 N 
ATOM     10  O   UNL d   1      59.061  -3.495  28.868  0.00  0.00    -0.531 OA
ATOM     11  O   UNL d   1      60.070  -2.959  29.558  0.00  0.00    -0.531 OA
ENDBRANCH   6   9
ENDBRANCH   1   4
BRANCH   2  12
ATOM     12  C   UNL d   1      59.418   0.482  29.722  0.00  0.00     0.112 A 
ATOM     13  C   UNL d   1      60.139   0.484  30.123  0.00  0.00     0.158 A 
ATOM     14  F   UNL d   1      60.164   0.385  30.949  0.00  0.00    -0.203 F 
ATOM     15  C   UNL d   1      60.832   0.584  29.709  0.00  0.00     0.031 A 
ATOM     16  C   UNL d   1      60.811   0.682  28.890  0.00  0.00     0.002 A 
ATOM     17  C   UNL d   1      60.108   0.682  28.486  0.00  0.00     0.002 A 
ATOM     18  C   UNL d   1      59.397   0.580  28.903  0.00  0.00     0.021 A 
ENDBRANCH   2  12
TORSDOF 3
ENDMDL
MODEL 5
REMARK VINA RESULT:      -2.3      9.504     10.192
REMARK  3 active torsions:
REMARK  status: ('A' for Active; 'I' for Inactive)
REMARK    1  A    between atoms: N_2  and  C_1 
REMARK    2  A    between atoms: C_5  and  C_4 
REMARK       I    between atoms: N_6  and  C_5 
REMARK    3  A    between atoms: C_9  and  N_6 
ROOT
ATOM      1  C   UNL d   1      58.864  -1.315  28.834  0.00  0.00     0.285 C 
ATOM      2  N   UNL d   1      59.675  -1.306  28.674  0.00  0.00    -0.205 NA
ATOM      3  O   UNL d   1      58.392  -1.917  28.572  0.00  0.00    -0.265 OA
ENDROOT
BRANCH   1   4
ATOM      4  C   UNL d   1      58.518  -0.710  29.264  0.00  0.00     0.089 A 
ATOM      5  S   UNL d   1      58.269  -0.780  30.021  0.00  0.00    -0.059 SA
ATOM      6  C   UNL d   1      57.953  -0.082  30.285  0.00  0.00     0.156 A 
ATOM      7  C   UNL d   1      58.007   0.467  29.647  0.00  0.00     0.031 A 
ATOM      8  C   UNL d   1      58.361   0.072  29.008  0.00  0.00     0.014 A 
BRANCH   6   9
ATOM      9  N   UNL d   1      57.650   0.046  31.020  0.00  0.00    -0.107 N 
ATOM     10  O   UNL d   1      57.866   0.653  31.541  0.00  0.00    -0.531 OA
ATOM     11  O   UNL d   1      57.084  -0.412  31.347  0.00  0.00    -0.531 OA
ENDBRANCH   6   9
ENDBRANCH   1   4
BRANCH   2  12
ATOM     12  C   UNL d   1      60.134  -0.692  28.947  0.00  0.00     0.112 A 
ATOM     13  C   UNL d   1      60.675  -0.824  29.556  0.00  0.00     0.158 A 
ATOM     14  F   UNL d   1      60.757  -1.579  29.894  0.00  0.00    -0.203 F 
ATOM     15  C   UNL d   1      61.133  -0.209  29.829  0.00  0.00     0.031 A 
ATOM     16  C   UNL d   1      61.055   0.542  29.496  0.00  0.00     0.002 A 
ATOM     17  C   UNL d   1      60.527   0.682  28.898  0.00  0.00     0.002 A 
ATOM     18  C   UNL d   1      60.055   0.059  28.614  0.00  0.00     0.021 A 
ENDBRANCH   2  12
TORSDOF 3
ENDMDL
MODEL 6
REMARK VINA RESULT:      -2.1      8.772      9.447
REMARK  3 active torsions:
REMARK  status: ('A' for Active; 'I' for Inactive)
REMARK    1  A    between atoms: N_2  and  C_1 
REMARK    2  A    between atoms: C_5  and  C_4 
REMARK       I    between atoms: N_6  and  C_5 
REMARK    3  A    between atoms: C_9  and  N_6 
ROOT
ATOM      1  C   UNL d   1      56.265  -1.265  32.177  0.00  0.00     0.285 C 
ATOM      2  N   UNL d   1      55.890  -1.289  32.913  0.00  0.00    -0.205 NA
ATOM      3  O   UNL d   1      56.255  -1.903  31.680  0.00  0.00    -0.265 OA
ENDROOT
BRANCH   1   4
ATOM      4  C   UNL d   1      56.657  -0.589  31.932  0.00  0.00     0.089 A 
ATOM      5  S   UNL d   1      57.379  -0.587  31.587  0.00  0.00    -0.059 SA
ATOM      6  C   UNL d   1      57.611   0.169  31.411  0.00  0.00     0.156 A 
ATOM      7  C   UNL d   1      56.989   0.680  31.665  0.00  0.00     0.031 A 
ATOM      8  C   UNL d   1      56.392   0.203  31.991  0.00  0.00     0.014 A 
BRANCH   6   9
ATOM      9  N   UNL d   1      58.306   0.377  31.061  0.00  0.00    -0.107 N 
ATOM     10  O   UNL d   1      58.488   0.311  30.256  0.00  0.00    -0.531 OA
ATOM     11  O   UNL d   1      58.925   0.682  31.461  0.00  0.00    -0.531 OA
ENDBRANCH   6   9
ENDBRANCH   1   4
BRANCH   2  12
ATOM     12  C   UNL d   1      55.911  -0.636  33.399  0.00  0.00     0.112 A 
ATOM     13  C   UNL d   1      55.212  -0.236  33.577  0.00  0.00     0.158 A 
ATOM     14  F   UNL d   1      54.485  -0.493  33.265  0.00  0.00    -0.203 F 
ATOM     15  C   UNL d   1      55.233   0.417  34.062  0.00  0.00     0.031 A 
ATOM     16  C   UNL d   1      55.952   0.675  34.373  0.00  0.00     0.002 A 
ATOM     17  C   UNL d   1      56.644   0.290  34.204  0.00  0.00     0.002 A 
ATOM     18  C   UNL d   1      56.630  -0.378  33.710  0.00  0.00     0.021 A 
ENDBRANCH   2  12
TORSDOF 3
ENDMDL
MODEL 7
REMARK VINA RESULT:      -2.1      9.187     10.181
REMARK  3 active torsions:
REMARK  status: ('A' for Active; 'I' for Inactive)
REMARK    1  A    between atoms: N_2  and  C_1 
REMARK    2  A    between atoms: C_5  and  C_4 
REMARK       I    between atoms: N_6  and  C_5 
REMARK    3  A    between atoms: C_9  and  N_6 
ROOT
ATOM      1  C   UNL d   1      60.176   0.041  29.238  0.00  0.00     0.285 C 
ATOM      2  N   UNL d   1      60.443  -0.698  28.980  0.00  0.00    -0.205 NA
ATOM      3  O   UNL d   1      60.668   0.682  29.256  0.00  0.00    -0.265 OA
ENDROOT
BRANCH   1   4
ATOM      4  C   UNL d   1      59.400   0.141  29.483  0.00  0.00     0.089 A 
ATOM      5  S   UNL d   1      59.175   0.224  30.245  0.00  0.00    -0.059 SA
ATOM      6  C   UNL d   1      58.372   0.313  30.300  0.00  0.00     0.156 A 
ATOM      7  C   UNL d   1      58.069   0.282  29.513  0.00  0.00     0.031 A 
ATOM      8  C   UNL d   1      58.715   0.174  29.002  0.00  0.00     0.014 A 
BRANCH   6   9
ATOM      9  N   UNL d   1      57.957   0.410  30.983  0.00  0.00    -0.107 N 
ATOM     10  O   UNL d   1      58.275   0.537  31.737  0.00  0.00    -0.531 OA
ATOM     11  O   UNL d   1      57.160   0.394  31.018  0.00  0.00    -0.531 OA
ENDBRANCH   6   9
ENDBRANCH   1   4
BRANCH   2  12
ATOM     12  C   UNL d   1      59.932  -1.331  28.969  0.00  0.00     0.112 A 
ATOM     13  C   UNL d   1      60.066  -1.974  29.468  0.00  0.00     0.158 A 
ATOM     14  F   UNL d   1      60.720  -1.982  29.981  0.00  0.00    -0.203 F 
ATOM     15  C   UNL d   1      59.555  -2.607  29.457  0.00  0.00     0.031 A 
ATOM     16  C   UNL d   1      58.905  -2.603  28.948  0.00  0.00     0.002 A 
ATOM     17  C   UNL d   1      58.764  -1.976  28.455  0.00  0.00     0.002 A 
ATOM     18  C   UNL d   1      59.282  -1.326  28.460  0.00  0.00     0.021 A 
ENDBRANCH   2  12
TORSDOF 3
ENDMDL
