MODEL 1
REMARK VINA RESULT:      34.6      0.000      0.000
REMARK  6 active torsions:
REMARK  status: ('A' for Active; 'I' for Inactive)
REMARK    1  A    between atoms: C_2  and  S_1 
REMARK    2  A    between atoms: N_8  and  S_1 
REMARK    3  A    between atoms: C_13  and  N_8 
REMARK    4  A    between atoms: N_9  and  C_14 
REMARK    5  A    between atoms: O_15  and  C_10 
REMARK    6  A    between atoms: C_14  and  C_13 
ROOT
ATOM      1  C   UNL d   1     -57.243 -98.773 -45.388  0.00  0.00     0.105 A 
ATOM      2  C   UNL d   1     -57.806 -98.769 -44.796  0.00  0.00     0.014 A 
ATOM      3  C   UNL d   1     -58.609 -98.772 -44.984  0.00  0.00     0.023 A 
ATOM      4  C   UNL d   1     -57.480 -98.779 -46.182  0.00  0.00     0.015 A 
ATOM      5  C   UNL d   1     -58.849 -98.778 -45.765  0.00  0.00     0.094 A 
ATOM      6  C   UNL d   1     -58.283 -98.782 -46.371  0.00  0.00     0.025 A 
ATOM      7  C   UNL d   1     -57.568 -98.763 -44.007  0.00  0.00     0.001 A 
ATOM      8  C   UNL d   1     -59.173 -98.768 -44.384  0.00  0.00     0.002 A 
ATOM      9  C   UNL d   1     -58.132 -98.759 -43.405  0.00  0.00     0.000 A 
ATOM     10  C   UNL d   1     -58.935 -98.761 -43.593  0.00  0.00     0.000 A 
ENDROOT
BRANCH   1  11
ATOM     11  S   UNL d   1     -56.440 -98.770 -45.199  0.00  0.00     0.285 S 
ATOM     12  O   UNL d   1     -56.630 -98.776 -44.389  0.00  0.00    -0.198 OA
ATOM     13  O   UNL d   1     -56.254 -98.765 -45.993  0.00  0.00    -0.198 OA
BRANCH  11  14
ATOM     14  N   UNL d   1     -55.637 -98.768 -45.011  0.00  0.00    -0.155 NA
BRANCH  14  15
ATOM     15  C   UNL d   1     -55.352 -99.246 -44.413  0.00  0.00     0.131 C 
BRANCH  15  16
ATOM     16  C   UNL d   1     -54.734 -99.773 -44.559  0.00  0.00     0.102 C 
BRANCH  16  17
ATOM     17  N   UNL d   1     -54.791-100.555 -44.304  0.00  0.00    -0.298 N 
ATOM     18  C   UNL d   1     -54.748-100.731 -43.499  0.00  0.00     0.107 A 
ATOM     19  C   UNL d   1     -54.804-101.516 -43.239  0.00  0.00     0.142 A 
ATOM     20  O   UNL d   1     -54.904-102.123 -43.788  0.00  0.00    -0.300 OA
ATOM     21  C   UNL d   1     -54.947-101.945 -44.597  0.00  0.00     0.142 A 
ATOM     22  C   UNL d   1     -54.891-101.162 -44.853  0.00  0.00     0.107 A 
ENDBRANCH  16  17
ENDBRANCH  15  16
ENDBRANCH  14  15
ENDBRANCH  11  14
ENDBRANCH   1  11
BRANCH   5  23
ATOM     23  O   UNL d   1     -59.651 -98.781 -45.961  0.00  0.00    -0.328 OA
ATOM     24  C   UNL d   1     -59.940 -99.296 -46.533  0.00  0.00     0.181 C 
ENDBRANCH   5  23
TORSDOF 6
ENDMDL
