MODEL 1
REMARK VINA RESULT:      65.5      0.000      0.000
REMARK  4 active torsions:
REMARK  status: ('A' for Active; 'I' for Inactive)
REMARK    1  A    between atoms: N_9  and  C_3 
REMARK    2  A    between atoms: C_11  and  C_5 
REMARK    3  A    between atoms: C_15  and  C_10 
REMARK    4  A    between atoms: C_18  and  C_15 
ROOT
ATOM      1  N   UNL d   1     -50.608  25.654  33.737  0.00  0.00    -0.196 N 
ATOM      2  C   UNL d   1     -51.389  25.365  33.673  0.00  0.00     0.167 A 
ATOM      3  C   UNL d   1     -50.499  26.451  33.879  0.00  0.00     0.152 A 
ATOM      4  N   UNL d   1     -50.104  24.345  33.514  0.00  0.00    -0.163 NA
ATOM      5  C   UNL d   1     -51.519  24.577  33.532  0.00  0.00     0.055 A 
ATOM      6  C   UNL d   1     -50.886  24.056  33.450  0.00  0.00     0.104 A 
ATOM      7  N   UNL d   1     -52.022  25.886  33.755  0.00  0.00    -0.227 NA
ATOM      8  C   UNL d   1     -51.113  26.971  33.961  0.00  0.00     0.057 A 
ATOM      9  C   UNL d   1     -51.895  26.681  33.897  0.00  0.00     0.086 A 
ATOM     10  C   UNL d   1     -51.009  23.262  33.308  0.00  0.00     0.023 C 
ENDROOT
BRANCH   5  11
ATOM     11  C   UNL d   1     -52.290  24.292  33.469  0.00  0.00     0.004 A 
ATOM     12  C   UNL d   1     -52.912  24.822  33.383  0.00  0.00     0.000 A 
ATOM     13  C   UNL d   1     -53.681  24.537  33.321  0.00  0.00     0.000 A 
ATOM     14  C   UNL d   1     -53.829  23.722  33.344  0.00  0.00     0.000 A 
ATOM     15  C   UNL d   1     -53.205  23.189  33.430  0.00  0.00     0.000 A 
ATOM     16  C   UNL d   1     -52.424  23.479  33.494  0.00  0.00     0.000 A 
ENDBRANCH   5  11
BRANCH   3  17
ATOM     17  N   UNL d   1     -49.693  26.749  33.944  0.00  0.00    -0.289 N 
ATOM     18  C   UNL d   1     -49.260  26.548  34.525  0.00  0.00     0.082 A 
ATOM     19  C   UNL d   1     -48.564  26.806  34.581  0.00  0.00     0.021 A 
ATOM     20  C   UNL d   1     -48.720  27.469  33.481  0.00  0.00     0.021 A 
ATOM     21  C   UNL d   1     -49.429  27.207  33.424  0.00  0.00     0.082 A 
ENDBRANCH   3  17
BRANCH   9  22
ATOM     22  C   UNL d   1     -52.558  27.220  33.982  0.00  0.00     0.019 C 
BRANCH  22  23
ATOM     23  C   UNL d   1     -52.544  28.001  33.607  0.00  0.00     0.002 C 
ATOM     24  C   UNL d   1     -53.261  28.348  33.308  0.00  0.00     0.000 C 
ENDBRANCH  22  23
ENDBRANCH   9  22
TORSDOF 4
ENDMDL
