MODEL 1
REMARK VINA RESULT:      57.1      0.000      0.000
REMARK  5 active torsions:
REMARK  status: ('A' for Active; 'I' for Inactive)
REMARK    1  A    between atoms: O_8  and  C_2 
REMARK    2  A    between atoms: C_9  and  C_5 
REMARK    3  A    between atoms: C_14  and  O_8 
REMARK    4  A    between atoms: N_11  and  C_9 
REMARK    5  A    between atoms: O_20  and  C_17 
ROOT
ATOM      1  C   UNL d   1     -51.409  25.288  33.423  0.00  0.00     0.108 A 
ATOM      2  C   UNL d   1     -50.479  26.668  33.370  0.00  0.00     0.161 A 
ATOM      3  C   UNL d   1     -50.574  25.231  33.378  0.00  0.00     0.064 A 
ATOM      4  C   UNL d   1     -50.113  25.920  33.352  0.00  0.00     0.222 A 
ATOM      5  C   UNL d   1     -51.867  24.612  33.449  0.00  0.00     0.079 A 
ATOM      6  O   UNL d   1     -51.772  26.037  33.441  0.00  0.00    -0.305 OA
ATOM      7  C   UNL d   1     -51.307  26.726  33.415  0.00  0.00     0.126 A 
ATOM      8  C   UNL d   1     -50.228  24.484  33.361  0.00  0.00     0.009 A 
ATOM      9  C   UNL d   1     -51.516  23.869  33.432  0.00  0.00     0.199 A 
ATOM     10  O   UNL d   1     -49.289  25.862  33.307  0.00  0.00    -0.284 OA
ATOM     11  C   UNL d   1     -50.693  23.808  33.387  0.00  0.00     0.042 A 
ATOM     12  O   UNL d   1     -51.981  23.188  33.458  0.00  0.00    -0.286 OA
ATOM     13  C   UNL d   1     -51.673  27.469  33.433  0.00  0.00     0.029 C 
ENDROOT
BRANCH   2  14
ATOM     14  O   UNL d   1     -50.014  27.349  33.343  0.00  0.00    -0.302 OA
BRANCH  14  15
ATOM     15  C   UNL d   1     -49.691  27.666  34.035  0.00  0.00     0.102 A 
ATOM     16  C   UNL d   1     -48.909  27.907  34.046  0.00  0.00     0.049 A 
ATOM     17  C   UNL d   1     -48.589  28.225  34.740  0.00  0.00     0.096 A 
ATOM     18  C   UNL d   1     -49.057  28.298  35.421  0.00  0.00     0.024 A 
ATOM     19  C   UNL d   1     -49.848  28.051  35.400  0.00  0.00     0.004 A 
ATOM     20  C   UNL d   1     -50.162  27.736  34.708  0.00  0.00     0.025 A 
BRANCH  17  21
ATOM     21  O   UNL d   1     -47.807  28.466  34.752  0.00  0.00    -0.328 OA
ATOM     22  C   UNL d   1     -47.523  28.933  35.373  0.00  0.00     0.181 C 
ENDBRANCH  17  21
ENDBRANCH  14  15
ENDBRANCH   2  14
BRANCH   5  23
ATOM     23  C   UNL d   1     -52.677  24.673  33.493  0.00  0.00     0.085 C 
BRANCH  23  24
ATOM     24  N   UNL d   1     -53.193  24.093  33.742  0.00  0.00    -0.302 N 
ATOM     25  C   UNL d   1     -53.809  23.781  33.311  0.00  0.00     0.080 A 
ATOM     26  C   UNL d   1     -54.173  23.226  33.765  0.00  0.00     0.021 A 
ATOM     27  C   UNL d   1     -53.798  23.188  34.467  0.00  0.00     0.021 A 
ATOM     28  C   UNL d   1     -53.181  23.730  34.458  0.00  0.00     0.080 A 
ENDBRANCH  23  24
ENDBRANCH   5  23
TORSDOF 5
ENDMDL
