MODEL 1
REMARK VINA RESULT:      -3.8      0.000      0.000
REMARK  2 active torsions:
REMARK  status: ('A' for Active; 'I' for Inactive)
REMARK    1  A    between atoms: C_8  and  C_1 
REMARK    2  A    between atoms: C_7  and  C_2 
ROOT
ATOM      1  C   UNL d   1      58.628  -0.599  30.070  0.00  0.00     0.066 A 
ATOM      2  C   UNL d   1      58.252  -1.328  29.993  0.00  0.00     0.174 A 
ATOM      3  C   UNL d   1      58.387  -0.054  30.648  0.00  0.00     0.199 A 
ATOM      4  O   UNL d   1      57.623  -1.522  30.500  0.00  0.00    -0.303 OA
ATOM      5  C   UNL d   1      57.756  -0.265  31.147  0.00  0.00     0.062 A 
ATOM      6  C   UNL d   1      57.384  -0.982  31.073  0.00  0.00     0.106 A 
ATOM      7  C   UNL d   1      56.754  -1.190  31.572  0.00  0.00     0.067 A 
ATOM      8  C   UNL d   1      57.504   0.277  31.734  0.00  0.00     0.009 A 
ATOM      9  O   UNL d   1      58.778   0.682  30.715  0.00  0.00    -0.286 OA
ATOM     10  C   UNL d   1      56.510  -0.649  32.151  0.00  0.00     0.198 A 
ATOM     11  C   UNL d   1      56.890   0.087  32.230  0.00  0.00     0.042 A 
ATOM     12  O   UNL d   1      55.897  -0.852  32.637  0.00  0.00    -0.286 OA
ENDROOT
BRANCH   1  13
ATOM     13  C   UNL d   1      59.242  -0.390  29.587  0.00  0.00     0.005 A 
ATOM     14  C   UNL d   1      59.139   0.098  28.946  0.00  0.00     0.000 A 
ATOM     15  C   UNL d   1      58.412   0.413  28.741  0.00  0.00     0.000 C 
ATOM     16  C   UNL d   1      59.776   0.308  28.455  0.00  0.00     0.000 A 
ATOM     17  C   UNL d   1      60.521   0.009  28.631  0.00  0.00     0.000 A 
ATOM     18  C   UNL d   1      60.640  -0.487  29.278  0.00  0.00     0.000 A 
ATOM     19  C   UNL d   1      60.007  -0.685  29.752  0.00  0.00     0.000 A 
ENDBRANCH   1  13
BRANCH   2  20
ATOM     20  C   UNL d   1      58.499  -1.864  29.413  0.00  0.00     0.440 C 
ATOM     21  F   UNL d   1      59.056  -2.360  29.617  0.00  0.00    -0.164 F 
ATOM     22  F   UNL d   1      58.784  -2.419  28.877  0.00  0.00    -0.164 F 
ATOM     23  F   UNL d   1      58.132  -1.854  28.605  0.00  0.00    -0.164 F 
ENDBRANCH   2  20
TORSDOF 2
ENDMDL
MODEL 2
REMARK VINA RESULT:      -2.9      2.118      3.734
REMARK  2 active torsions:
REMARK  status: ('A' for Active; 'I' for Inactive)
REMARK    1  A    between atoms: C_8  and  C_1 
REMARK    2  A    between atoms: C_7  and  C_2 
ROOT
ATOM      1  C   UNL d   1      59.321  -1.203  29.072  0.00  0.00     0.066 A 
ATOM      2  C   UNL d   1      60.131  -1.089  29.170  0.00  0.00     0.174 A 
ATOM      3  C   UNL d   1      59.012  -1.959  28.921  0.00  0.00     0.199 A 
ATOM      4  O   UNL d   1      60.647  -1.738  29.117  0.00  0.00    -0.303 OA
ATOM      5  C   UNL d   1      59.543  -2.597  28.871  0.00  0.00     0.062 A 
ATOM      6  C   UNL d   1      60.341  -2.487  28.967  0.00  0.00     0.106 A 
ATOM      7  C   UNL d   1      60.870  -3.126  28.917  0.00  0.00     0.067 A 
ATOM      8  C   UNL d   1      59.244  -3.364  28.719  0.00  0.00     0.009 A 
ATOM      9  O   UNL d   1      58.188  -2.060  28.823  0.00  0.00    -0.286 OA
ATOM     10  C   UNL d   1      60.566  -3.882  28.766  0.00  0.00     0.198 A 
ATOM     11  C   UNL d   1      59.748  -3.998  28.667  0.00  0.00     0.042 A 
ATOM     12  O   UNL d   1      61.080  -4.504  28.718  0.00  0.00    -0.286 OA
ENDROOT
BRANCH   1  13
ATOM     13  C   UNL d   1      58.801  -0.586  29.119  0.00  0.00     0.005 A 
ATOM     14  C   UNL d   1      58.373  -0.434  29.792  0.00  0.00     0.000 A 
ATOM     15  C   UNL d   1      58.434  -0.891  30.469  0.00  0.00     0.000 C 
ATOM     16  C   UNL d   1      57.840   0.202  29.832  0.00  0.00     0.000 A 
ATOM     17  C   UNL d   1      57.753   0.682  29.171  0.00  0.00     0.000 A 
ATOM     18  C   UNL d   1      58.181   0.540  28.481  0.00  0.00     0.000 A 
ATOM     19  C   UNL d   1      58.700  -0.088  28.455  0.00  0.00     0.000 A 
ENDBRANCH   1  13
BRANCH   2  20
ATOM     20  C   UNL d   1      60.428  -0.332  29.320  0.00  0.00     0.440 C 
ATOM     21  F   UNL d   1      60.623   0.091  28.703  0.00  0.00    -0.164 F 
ATOM     22  F   UNL d   1      60.730   0.428  29.410  0.00  0.00    -0.164 F 
ATOM     23  F   UNL d   1      60.512  -0.039  30.154  0.00  0.00    -0.164 F 
ENDBRANCH   2  20
TORSDOF 2
ENDMDL
MODEL 3
REMARK VINA RESULT:      -2.2      2.096      3.329
REMARK  2 active torsions:
REMARK  status: ('A' for Active; 'I' for Inactive)
REMARK    1  A    between atoms: C_8  and  C_1 
REMARK    2  A    between atoms: C_7  and  C_2 
ROOT
ATOM      1  C   UNL d   1      59.695  -1.378  28.999  0.00  0.00     0.066 A 
ATOM      2  C   UNL d   1      58.887  -1.364  29.162  0.00  0.00     0.174 A 
ATOM      3  C   UNL d   1      60.073  -2.084  28.779  0.00  0.00     0.199 A 
ATOM      4  O   UNL d   1      58.444  -2.065  29.108  0.00  0.00    -0.303 OA
ATOM      5  C   UNL d   1      59.614  -2.775  28.729  0.00  0.00     0.062 A 
ATOM      6  C   UNL d   1      58.819  -2.764  28.890  0.00  0.00     0.106 A 
ATOM      7  C   UNL d   1      58.363  -3.457  28.840  0.00  0.00     0.067 A 
ATOM      8  C   UNL d   1      59.985  -3.493  28.509  0.00  0.00     0.009 A 
ATOM      9  O   UNL d   1      60.893  -2.083  28.615  0.00  0.00    -0.286 OA
ATOM     10  C   UNL d   1      58.737  -4.163  28.621  0.00  0.00     0.198 A 
ATOM     11  C   UNL d   1      59.552  -4.178  28.455  0.00  0.00     0.042 A 
ATOM     12  O   UNL d   1      58.293  -4.837  28.572  0.00  0.00    -0.286 OA
ENDROOT
BRANCH   1  13
ATOM     13  C   UNL d   1      60.145  -0.708  29.046  0.00  0.00     0.005 A 
ATOM     14  C   UNL d   1      60.674  -0.586  29.649  0.00  0.00     0.000 A 
ATOM     15  C   UNL d   1      60.792  -1.128  30.252  0.00  0.00     0.000 C 
ATOM     16  C   UNL d   1      61.132   0.106  29.690  0.00  0.00     0.000 A 
ATOM     17  C   UNL d   1      61.040   0.672  29.102  0.00  0.00     0.000 A 
ATOM     18  C   UNL d   1      60.507   0.562  28.483  0.00  0.00     0.000 A 
ATOM     19  C   UNL d   1      60.063  -0.122  28.455  0.00  0.00     0.000 A 
ENDBRANCH   1  13
BRANCH   2  20
ATOM     20  C   UNL d   1      58.520  -0.656  29.380  0.00  0.00     0.440 C 
ATOM     21  F   UNL d   1      58.247  -0.217  28.806  0.00  0.00    -0.164 F 
ATOM     22  F   UNL d   1      58.145   0.059  29.539  0.00  0.00    -0.164 F 
ATOM     23  F   UNL d   1      58.453  -0.429  30.236  0.00  0.00    -0.164 F 
ENDBRANCH   2  20
TORSDOF 2
ENDMDL
MODEL 4
REMARK VINA RESULT:      -1.8      1.304      1.887
REMARK  2 active torsions:
REMARK  status: ('A' for Active; 'I' for Inactive)
REMARK    1  A    between atoms: C_8  and  C_1 
REMARK    2  A    between atoms: C_7  and  C_2 
ROOT
ATOM      1  C   UNL d   1      58.654  -0.850  29.945  0.00  0.00     0.066 A 
ATOM      2  C   UNL d   1      58.692  -0.029  29.881  0.00  0.00     0.174 A 
ATOM      3  C   UNL d   1      58.125  -1.213  30.471  0.00  0.00     0.199 A 
ATOM      4  O   UNL d   1      58.194   0.443  30.350  0.00  0.00    -0.303 OA
ATOM      5  C   UNL d   1      57.635  -0.725  30.933  0.00  0.00     0.062 A 
ATOM      6  C   UNL d   1      57.670   0.083  30.872  0.00  0.00     0.106 A 
ATOM      7  C   UNL d   1      57.178   0.568  31.334  0.00  0.00     0.067 A 
ATOM      8  C   UNL d   1      57.097  -1.080  31.468  0.00  0.00     0.009 A 
ATOM      9  O   UNL d   1      58.098  -2.047  30.525  0.00  0.00    -0.286 OA
ATOM     10  C   UNL d   1      56.649   0.210  31.861  0.00  0.00     0.198 A 
ATOM     11  C   UNL d   1      56.610  -0.619  31.926  0.00  0.00     0.042 A 
ATOM     12  O   UNL d   1      56.171   0.682  32.311  0.00  0.00    -0.286 OA
ENDROOT
BRANCH   1  13
ATOM     13  C   UNL d   1      59.129  -1.328  29.498  0.00  0.00     0.005 A 
ATOM     14  C   UNL d   1      58.832  -1.803  28.910  0.00  0.00     0.000 A 
ATOM     15  C   UNL d   1      58.035  -1.833  28.725  0.00  0.00     0.000 C 
ATOM     16  C   UNL d   1      59.327  -2.291  28.455  0.00  0.00     0.000 A 
ATOM     17  C   UNL d   1      60.133  -2.286  28.613  0.00  0.00     0.000 A 
ATOM     18  C   UNL d   1      60.450  -1.809  29.207  0.00  0.00     0.000 A 
ATOM     19  C   UNL d   1      59.952  -1.335  29.645  0.00  0.00     0.000 A 
ENDBRANCH   1  13
BRANCH   2  20
ATOM     20  C   UNL d   1      59.222   0.322  29.353  0.00  0.00     0.440 C 
ATOM     21  F   UNL d   1      59.944   0.427  29.608  0.00  0.00    -0.164 F 
ATOM     22  F   UNL d   1      59.792   0.668  28.870  0.00  0.00    -0.164 F 
ATOM     23  F   UNL d   1      58.957   0.561  28.540  0.00  0.00    -0.164 F 
ENDBRANCH   2  20
TORSDOF 2
ENDMDL
MODEL 5
REMARK VINA RESULT:      -1.6      2.268      4.347
REMARK  2 active torsions:
REMARK  status: ('A' for Active; 'I' for Inactive)
REMARK    1  A    between atoms: C_8  and  C_1 
REMARK    2  A    between atoms: C_7  and  C_2 
ROOT
ATOM      1  C   UNL d   1      57.058   0.134  32.135  0.00  0.00     0.066 A 
ATOM      2  C   UNL d   1      57.785   0.143  32.524  0.00  0.00     0.174 A 
ATOM      3  C   UNL d   1      57.014   0.237  31.313  0.00  0.00     0.199 A 
ATOM      4  O   UNL d   1      58.483   0.255  32.088  0.00  0.00    -0.303 OA
ATOM      5  C   UNL d   1      57.723   0.349  30.893  0.00  0.00     0.062 A 
ATOM      6  C   UNL d   1      58.440   0.357  31.274  0.00  0.00     0.106 A 
ATOM      7  C   UNL d   1      59.147   0.469  30.852  0.00  0.00     0.067 A 
ATOM      8  C   UNL d   1      57.691   0.454  30.063  0.00  0.00     0.009 A 
ATOM      9  O   UNL d   1      56.270   0.227  30.931  0.00  0.00    -0.286 OA
ATOM     10  C   UNL d   1      59.106   0.572  30.030  0.00  0.00     0.198 A 
ATOM     11  C   UNL d   1      58.374   0.564  29.637  0.00  0.00     0.042 A 
ATOM     12  O   UNL d   1      59.794   0.681  29.620  0.00  0.00    -0.286 OA
ENDROOT
BRANCH   1  13
ATOM     13  C   UNL d   1      56.367   0.026  32.540  0.00  0.00     0.005 A 
ATOM     14  C   UNL d   1      56.006  -0.699  32.589  0.00  0.00     0.000 A 
ATOM     15  C   UNL d   1      56.311  -1.372  32.236  0.00  0.00     0.000 C 
ATOM     16  C   UNL d   1      55.295  -0.802  33.007  0.00  0.00     0.000 A 
ATOM     17  C   UNL d   1      54.959  -0.148  33.374  0.00  0.00     0.000 A 
ATOM     18  C   UNL d   1      55.314   0.595  33.332  0.00  0.00     0.000 A 
ATOM     19  C   UNL d   1      56.011   0.681  32.919  0.00  0.00     0.000 A 
ENDBRANCH   1  13
BRANCH   2  20
ATOM     20  C   UNL d   1      57.818   0.039  33.344  0.00  0.00     0.440 C 
ATOM     21  F   UNL d   1      57.826   0.682  33.773  0.00  0.00    -0.164 F 
ATOM     22  F   UNL d   1      57.851  -0.005  34.165  0.00  0.00    -0.164 F 
ATOM     23  F   UNL d   1      57.843  -0.777  33.694  0.00  0.00    -0.164 F 
ENDBRANCH   2  20
TORSDOF 2
ENDMDL
