MODEL 1
REMARK VINA RESULT:      -2.1      0.000      0.000
REMARK  8 active torsions:
REMARK  status: ('A' for Active; 'I' for Inactive)
REMARK    1  A    between atoms: C_10  and  C_3 
REMARK       I    between atoms: N_14  and  C_10 
REMARK    2  A    between atoms: C_12  and  C_13 
REMARK       I    between atoms: N_21  and  C_12 
REMARK    3  A    between atoms: C_29  and  N_14 
REMARK    4  A    between atoms: C_28  and  N_21 
REMARK    5  A    between atoms: O_30  and  C_22 
REMARK    6  A    between atoms: C_23  and  C_31 
REMARK    7  A    between atoms: C_31  and  C_28 
REMARK    8  A    between atoms: C_32  and  O_30 
ROOT
ATOM      1  N   UNL d   1      32.755  19.298 -23.486  0.00  0.00    -0.277 N 
ATOM      2  C   UNL d   1      32.750  18.574 -23.074  0.00  0.00     0.163 A 
ATOM      3  C   UNL d   1      32.575  17.977 -23.619  0.00  0.00     0.124 A 
ATOM      4  C   UNL d   1      32.584  19.139 -24.280  0.00  0.00     0.152 A 
ATOM      5  N   UNL d   1      32.903  18.558 -22.265  0.00  0.00    -0.190 NA
ATOM      6  S   UNL d   1      32.473  18.320 -24.356  0.00  0.00    -0.051 SA
ATOM      7  C   UNL d   1      32.914  19.999 -23.086  0.00  0.00     0.071 A 
ATOM      8  C   UNL d   1      33.068  19.984 -22.277  0.00  0.00     0.074 A 
ATOM      9  C   UNL d   1      33.062  19.260 -21.865  0.00  0.00     0.282 A 
ATOM     10  C   UNL d   1      32.920  20.720 -23.496  0.00  0.00     0.023 A 
ATOM     11  C   UNL d   1      33.079  21.421 -23.095  0.00  0.00     0.059 A 
ATOM     12  S   UNL d   1      32.535  19.703 -24.882  0.00  0.00    -0.052 SA
ATOM     13  C   UNL d   1      33.228  20.688 -21.873  0.00  0.00     0.006 A 
ATOM     14  O   UNL d   1      33.219  19.246 -21.043  0.00  0.00    -0.265 OA
ATOM     15  C   UNL d   1      33.234  21.408 -22.283  0.00  0.00     0.005 A 
ENDROOT
BRANCH  11  16
ATOM     16  C   UNL d   1      33.085  22.138 -23.503  0.00  0.00     0.279 C 
ATOM     17  O   UNL d   1      33.167  22.146 -24.323  0.00  0.00    -0.265 OA
ATOM     18  N   UNL d   1      33.009  22.847 -23.093  0.00  0.00    -0.206 NA
BRANCH  18  19
ATOM     19  C   UNL d   1      32.926  22.839 -22.273  0.00  0.00     0.102 C 
BRANCH  19  20
ATOM     20  C   UNL d   1      32.685  23.517 -21.878  0.00  0.00     0.021 C 
BRANCH  20  21
ATOM     21  C   UNL d   1      32.573  23.494 -21.058  0.00  0.00     0.002 A 
ATOM     22  C   UNL d   1      31.843  23.263 -20.757  0.00  0.00     0.002 A 
ATOM     23  C   UNL d   1      31.725  23.237 -19.942  0.00  0.00     0.025 A 
ATOM     24  C   UNL d   1      32.337  23.443 -19.429  0.00  0.00     0.100 A 
ATOM     25  C   UNL d   1      33.068  23.675 -19.730  0.00  0.00     0.025 A 
ATOM     26  C   UNL d   1      33.185  23.700 -20.545  0.00  0.00     0.002 A 
BRANCH  24  27
ATOM     27  O   UNL d   1      32.216  23.417 -18.611  0.00  0.00    -0.305 OA
BRANCH  27  28
ATOM     28  C   UNL d   1      32.858  23.322 -18.104  0.00  0.00     0.123 C 
ATOM     29  C   UNL d   1      32.734  23.119 -17.308  0.00  0.00     0.029 C 
ENDBRANCH  27  28
ENDBRANCH  24  27
ENDBRANCH  20  21
ENDBRANCH  19  20
ENDBRANCH  18  19
ENDBRANCH  11  16
BRANCH   3  30
ATOM     30  C   UNL d   1      32.515  17.172 -23.441  0.00  0.00     0.288 C 
ATOM     31  N   UNL d   1      31.841  16.750 -23.668  0.00  0.00    -0.207 NA
ATOM     32  O   UNL d   1      33.121  16.787 -23.040  0.00  0.00    -0.265 OA
BRANCH  31  33
ATOM     33  C   UNL d   1      31.777  15.945 -23.492  0.00  0.00     0.085 C 
ATOM     34  C   UNL d   1      32.434  15.458 -23.542  0.00  0.00     0.021 C 
ATOM     35  C   UNL d   1      31.048  15.628 -23.265  0.00  0.00     0.021 C 
ENDBRANCH  31  33
ENDBRANCH   3  30
TORSDOF 8
ENDMDL
