MODEL 1
REMARK VINA RESULT:      23.2      0.000      0.000
REMARK  3 active torsions:
REMARK  status: ('A' for Active; 'I' for Inactive)
REMARK    1  A    between atoms: N_3  and  C_1 
REMARK       I    between atoms: C_5  and  N_3 
REMARK    2  A    between atoms: C_10  and  C_4 
REMARK       I    between atoms: N_8  and  C_5 
REMARK    3  A    between atoms: C_11  and  N_8 
ROOT
ATOM      1  C   UNL d   1      13.901  12.645  -1.968  0.00  0.00     0.199 A 
ATOM      2  N   UNL d   1      13.972  12.850  -2.764  0.00  0.00    -0.221 NA
ATOM      3  C   UNL d   1      13.458  12.338  -3.216  0.00  0.00     0.090 A 
ATOM      4  S   UNL d   1      13.365  12.024  -1.879  0.00  0.00    -0.046 SA
ATOM      5  C   UNL d   1      13.079  11.822  -2.663  0.00  0.00     0.058 A 
ENDROOT
BRANCH   1   6
ATOM      6  N   UNL d   1      14.318  13.019  -1.333  0.00  0.00    -0.166 NA
ATOM      7  C   UNL d   1      14.500  12.563  -0.649  0.00  0.00     0.370 C 
ATOM      8  N   UNL d   1      14.916  12.936  -0.015  0.00  0.00    -0.191 NA
ATOM      9  O   UNL d   1      14.286  11.783  -0.585  0.00  0.00    -0.242 OA
BRANCH   8  10
ATOM     10  C   UNL d   1      15.130  13.723  -0.082  0.00  0.00     0.086 A 
ATOM     11  C   UNL d   1      14.590  14.337  -0.026  0.00  0.00     0.019 A 
ATOM     12  C   UNL d   1      14.824  15.128  -0.096  0.00  0.00     0.002 A 
ATOM     13  C   UNL d   1      15.619  15.304  -0.226  0.00  0.00     0.000 A 
ATOM     14  C   UNL d   1      16.171  14.700  -0.285  0.00  0.00     0.002 A 
ATOM     15  C   UNL d   1      15.914  13.917  -0.211  0.00  0.00     0.019 A 
ENDBRANCH   8  10
ENDBRANCH   1   6
BRANCH   3  16
ATOM     16  C   UNL d   1      13.360  12.354  -4.035  0.00  0.00     0.018 A 
ATOM     17  C   UNL d   1      13.718  12.955  -4.503  0.00  0.00     0.002 A 
ATOM     18  C   UNL d   1      13.623  12.973  -5.303  0.00  0.00     0.000 A 
ATOM     19  C   UNL d   1      13.158  12.381  -5.686  0.00  0.00     0.000 A 
ATOM     20  C   UNL d   1      12.807  11.791  -5.225  0.00  0.00     0.000 A 
ATOM     21  C   UNL d   1      12.911  11.783  -4.409  0.00  0.00     0.002 A 
ENDBRANCH   3  16
TORSDOF 3
ENDMDL
