MODEL 1
REMARK VINA RESULT:      94.2      0.000      0.000
REMARK  3 active torsions:
REMARK  status: ('A' for Active; 'I' for Inactive)
REMARK    1  A    between atoms: C_8  and  C_2 
REMARK    2  A    between atoms: N_9  and  C_8 
REMARK    3  A    between atoms: C_20  and  C_13 
ROOT
ATOM      1  C   UNL d   1      61.250  47.584  50.430  0.00  0.00     0.108 A 
ATOM      2  C   UNL d   1      61.213  48.408  50.485  0.00  0.00     0.079 A 
ATOM      3  O   UNL d   1      60.967  47.114  51.028  0.00  0.00    -0.273 OA
ATOM      4  C   UNL d   1      61.003  46.286  50.975  0.00  0.00     0.300 A 
ATOM      5  C   UNL d   1      61.627  46.423  49.683  0.00  0.00     0.007 A 
ATOM      6  C   UNL d   1      61.580  47.239  49.757  0.00  0.00     0.023 A 
ATOM      7  C   UNL d   1      61.336  45.938  50.296  0.00  0.00     0.064 A 
ATOM      8  C   UNL d   1      61.871  47.709  49.143  0.00  0.00     0.005 A 
ATOM      9  C   UNL d   1      61.497  48.885  49.884  0.00  0.00     0.199 A 
ATOM     10  O   UNL d   1      60.717  45.800  51.579  0.00  0.00    -0.259 OA
ATOM     11  C   UNL d   1      61.827  48.540  49.211  0.00  0.00     0.042 A 
ATOM     12  C   UNL d   1      61.920  45.939  49.089  0.00  0.00     0.000 A 
ATOM     13  C   UNL d   1      61.456  45.150  50.068  0.00  0.00     0.005 A 
ATOM     14  O   UNL d   1      61.460  49.706  49.940  0.00  0.00    -0.286 OA
ATOM     15  C   UNL d   1      61.814  45.142  49.328  0.00  0.00     0.000 A 
ENDROOT
BRANCH   2  16
ATOM     16  C   UNL d   1      60.878  48.748  51.167  0.00  0.00     0.085 C 
BRANCH  16  17
ATOM     17  N   UNL d   1      60.113  49.051  51.155  0.00  0.00    -0.304 N 
ATOM     18  C   UNL d   1      59.818  49.402  51.815  0.00  0.00     0.064 A 
ATOM     19  C   UNL d   1      59.053  49.705  51.802  0.00  0.00     0.018 A 
ATOM     20  C   UNL d   1      58.597  49.647  51.114  0.00  0.00     0.003 A 
ATOM     21  C   UNL d   1      58.902  49.294  50.459  0.00  0.00     0.019 A 
ATOM     22  C   UNL d   1      59.668  48.991  50.473  0.00  0.00     0.080 A 
BRANCH  18  23
ATOM     23  C   UNL d   1      60.267  49.462  52.499  0.00  0.00     0.018 C 
ATOM     24  C   UNL d   1      59.929  49.702  53.207  0.00  0.00     0.002 C 
ENDBRANCH  18  23
ENDBRANCH  16  17
ENDBRANCH   2  16
TORSDOF 3
ENDMDL
