MODEL 1
REMARK VINA RESULT:      -4.7      0.000      0.000
REMARK  5 active torsions:
REMARK  status: ('A' for Active; 'I' for Inactive)
REMARK    1  A    between atoms: N_3  and  C_1 
REMARK       I    between atoms: C_6  and  N_3 
REMARK    2  A    between atoms: C_9  and  C_6 
REMARK    3  A    between atoms: C_12  and  C_7 
REMARK    4  A    between atoms: S_8  and  C_9 
REMARK    5  A    between atoms: C_11  and  S_8 
ROOT
ATOM      1  N   UNL d   1      57.907   0.149  30.524  0.00  0.00    -0.181 NA
ATOM      2  C   UNL d   1      57.441  -0.359  30.976  0.00  0.00     0.287 C 
ATOM      3  O   UNL d   1      57.446  -1.165  30.815  0.00  0.00    -0.265 OA
ENDROOT
BRANCH   2   4
ATOM      4  C   UNL d   1      56.974  -0.057  31.584  0.00  0.00     0.087 C 
ATOM      5  C   UNL d   1      56.616   0.676  31.501  0.00  0.00     0.012 C 
BRANCH   4   6
ATOM      6  S   UNL d   1      56.871  -0.501  32.275  0.00  0.00    -0.082 SA
BRANCH   6   7
ATOM      7  C   UNL d   1      56.371  -0.238  32.859  0.00  0.00     0.030 A 
ATOM      8  C   UNL d   1      55.608  -0.547  32.915  0.00  0.00     0.006 A 
ATOM      9  C   UNL d   1      55.097  -0.278  33.511  0.00  0.00     0.001 A 
ATOM     10  C   UNL d   1      55.362   0.298  34.043  0.00  0.00     0.000 A 
ATOM     11  C   UNL d   1      56.120   0.601  33.984  0.00  0.00     0.001 A 
ATOM     12  C   UNL d   1      56.635   0.338  33.392  0.00  0.00     0.006 A 
ENDBRANCH   6   7
ENDBRANCH   4   6
ENDBRANCH   2   4
BRANCH   1  13
ATOM     13  C   UNL d   1      58.375  -0.145  29.917  0.00  0.00     0.219 A 
ATOM     14  S   UNL d   1      59.190  -0.058  29.843  0.00  0.00    -0.026 SA
ATOM     15  C   UNL d   1      59.430  -0.440  29.151  0.00  0.00     0.135 A 
ATOM     16  N   UNL d   1      58.755  -0.764  28.797  0.00  0.00    -0.139 NA
ATOM     17  N   UNL d   1      58.105  -0.582  29.269  0.00  0.00    -0.121 NA
BRANCH  15  18
ATOM     18  C   UNL d   1      60.200  -0.492  28.860  0.00  0.00     0.028 C 
ATOM     19  C   UNL d   1      60.733  -1.014  29.219  0.00  0.00     0.002 C 
ENDBRANCH  15  18
ENDBRANCH   1  13
TORSDOF 5
ENDMDL
MODEL 2
REMARK VINA RESULT:      -2.5      1.218      4.761
REMARK  5 active torsions:
REMARK  status: ('A' for Active; 'I' for Inactive)
REMARK    1  A    between atoms: N_3  and  C_1 
REMARK       I    between atoms: C_6  and  N_3 
REMARK    2  A    between atoms: C_9  and  C_6 
REMARK    3  A    between atoms: C_12  and  C_7 
REMARK    4  A    between atoms: S_8  and  C_9 
REMARK    5  A    between atoms: C_11  and  S_8 
ROOT
ATOM      1  N   UNL d   1      58.520   0.144  30.366  0.00  0.00    -0.181 NA
ATOM      2  C   UNL d   1      58.474  -0.310  29.680  0.00  0.00     0.287 C 
ATOM      3  O   UNL d   1      57.741  -0.573  29.417  0.00  0.00    -0.265 OA
ENDROOT
BRANCH   2   4
ATOM      4  C   UNL d   1      59.159  -0.498  29.265  0.00  0.00     0.087 C 
ATOM      5  C   UNL d   1      59.834  -0.041  29.358  0.00  0.00     0.012 C 
BRANCH   4   6
ATOM      6  S   UNL d   1      59.159  -1.151  28.754  0.00  0.00    -0.082 SA
BRANCH   6   7
ATOM      7  C   UNL d   1      59.743  -1.713  28.809  0.00  0.00     0.030 A 
ATOM      8  C   UNL d   1      59.587  -2.430  29.184  0.00  0.00     0.006 A 
ATOM      9  C   UNL d   1      60.183  -3.004  29.240  0.00  0.00     0.001 A 
ATOM     10  C   UNL d   1      60.929  -2.848  28.917  0.00  0.00     0.000 A 
ATOM     11  C   UNL d   1      61.079  -2.134  28.545  0.00  0.00     0.001 A 
ATOM     12  C   UNL d   1      60.490  -1.556  28.485  0.00  0.00     0.006 A 
ENDBRANCH   6   7
ENDBRANCH   4   6
ENDBRANCH   2   4
BRANCH   1  13
ATOM     13  C   UNL d   1      57.840   0.336  30.786  0.00  0.00     0.219 A 
ATOM     14  S   UNL d   1      57.766   0.369  31.605  0.00  0.00    -0.026 SA
ATOM     15  C   UNL d   1      56.990   0.583  31.786  0.00  0.00     0.135 A 
ATOM     16  N   UNL d   1      56.584   0.682  31.072  0.00  0.00    -0.139 NA
ATOM     17  N   UNL d   1      57.109   0.530  30.455  0.00  0.00    -0.121 NA
BRANCH  15  18
ATOM     18  C   UNL d   1      56.670   0.682  32.540  0.00  0.00     0.028 C 
ATOM     19  C   UNL d   1      56.843   0.126  33.129  0.00  0.00     0.002 C 
ENDBRANCH  15  18
ENDBRANCH   1  13
TORSDOF 5
ENDMDL
MODEL 3
REMARK VINA RESULT:      -2.2      9.365      9.661
REMARK  5 active torsions:
REMARK  status: ('A' for Active; 'I' for Inactive)
REMARK    1  A    between atoms: N_3  and  C_1 
REMARK       I    between atoms: C_6  and  N_3 
REMARK    2  A    between atoms: C_9  and  C_6 
REMARK    3  A    between atoms: C_12  and  C_7 
REMARK    4  A    between atoms: S_8  and  C_9 
REMARK    5  A    between atoms: C_11  and  S_8 
ROOT
ATOM      1  N   UNL d   1      59.191  -9.346  32.787  0.00  0.00    -0.181 NA
ATOM      2  C   UNL d   1      59.127  -9.504  33.594  0.00  0.00     0.287 C 
ATOM      3  O   UNL d   1      58.427  -9.814  33.892  0.00  0.00    -0.265 OA
ENDROOT
BRANCH   2   4
ATOM      4  C   UNL d   1      59.763  -9.351  34.094  0.00  0.00     0.087 C 
ATOM      5  C   UNL d   1      60.513  -9.239  33.783  0.00  0.00     0.012 C 
BRANCH   4   6
ATOM      6  S   UNL d   1      59.636  -9.311  34.912  0.00  0.00    -0.082 SA
BRANCH   6   7
ATOM      7  C   UNL d   1      59.918  -8.681  35.339  0.00  0.00     0.030 A 
ATOM      8  C   UNL d   1      60.720  -8.638  35.526  0.00  0.00     0.006 A 
ATOM      9  C   UNL d   1      61.009  -7.994  35.962  0.00  0.00     0.001 A 
ATOM     10  C   UNL d   1      60.484  -7.401  36.205  0.00  0.00     0.000 A 
ATOM     11  C   UNL d   1      59.689  -7.448  36.018  0.00  0.00     0.001 A 
ATOM     12  C   UNL d   1      59.394  -8.087  35.583  0.00  0.00     0.006 A 
ENDBRANCH   6   7
ENDBRANCH   4   6
ENDBRANCH   2   4
BRANCH   1  13
ATOM     13  C   UNL d   1      58.562  -9.496  32.282  0.00  0.00     0.219 A 
ATOM     14  S   UNL d   1      58.599  -9.560  31.463  0.00  0.00    -0.026 SA
ATOM     15  C   UNL d   1      57.838  -9.713  31.180  0.00  0.00     0.135 A 
ATOM     16  N   UNL d   1      57.330  -9.744  31.832  0.00  0.00    -0.139 NA
ATOM     17  N   UNL d   1      57.777  -9.610  32.512  0.00  0.00    -0.121 NA
BRANCH  15  18
ATOM     18  C   UNL d   1      57.618  -9.818  30.392  0.00  0.00     0.028 C 
ATOM     19  C   UNL d   1      58.197  -9.775  29.801  0.00  0.00     0.002 C 
ENDBRANCH  15  18
ENDBRANCH   1  13
TORSDOF 5
ENDMDL
