MODEL 1
REMARK VINA RESULT:      21.2      0.000      0.000
REMARK  0 active torsions:
REMARK  status: ('A' for Active; 'I' for Inactive)
ROOT
ATOM      1  C   UNL d   1     -54.716-102.240 -37.786  0.00  0.00     0.150 A 
ATOM      2  N   UNL d   1     -54.714-101.521 -38.202  0.00  0.00    -0.275 N 
ATOM      3  N   UNL d   1     -54.717-102.856 -38.317  0.00  0.00    -0.227 NA
ATOM      4  C   UNL d   1     -54.713-100.789 -37.856  0.00  0.00     0.149 A 
ATOM      5  N   UNL d   1     -54.712-100.747 -37.035  0.00  0.00    -0.228 NA
ATOM      6  C   UNL d   1     -54.715-102.179 -36.961  0.00  0.00     0.052 A 
ATOM      7  C   UNL d   1     -54.715-101.745 -39.008  0.00  0.00     0.084 A 
ATOM      8  C   UNL d   1     -54.713-101.423 -36.582  0.00  0.00     0.086 A 
ATOM      9  C   UNL d   1     -54.717-102.525 -39.081  0.00  0.00     0.099 A 
ATOM     10  C   UNL d   1     -54.711-100.087 -38.285  0.00  0.00     0.041 C 
ATOM     11  C   UNL d   1     -54.716-102.880 -36.508  0.00  0.00     0.004 A 
ATOM     12  C   UNL d   1     -54.715-101.264 -39.701  0.00  0.00     0.019 A 
ATOM     13  C   UNL d   1     -54.712-101.390 -35.762  0.00  0.00     0.019 A 
ATOM     14  C   UNL d   1     -54.718-102.874 -39.833  0.00  0.00     0.021 A 
ATOM     15  C   UNL d   1     -54.715-102.819 -35.684  0.00  0.00     0.000 A 
ATOM     16  C   UNL d   1     -54.716-101.637 -40.456  0.00  0.00     0.002 A 
ATOM     17  C   UNL d   1     -54.718-102.400 -40.506  0.00  0.00     0.002 A 
ATOM     18  C   UNL d   1     -54.714-102.085 -35.318  0.00  0.00     0.002 A 
ENDROOT
TORSDOF 0
ENDMDL
