MODEL 1
REMARK VINA RESULT:      -9.0      0.000      0.000
REMARK  6 active torsions:
REMARK  status: ('A' for Active; 'I' for Inactive)
REMARK       I    between atoms: N_3  and  C_1 
REMARK    1  A    between atoms: O_5  and  C_1 
REMARK    2  A    between atoms: C_6  and  C_2 
REMARK    3  A    between atoms: C_4  and  O_5 
REMARK    4  A    between atoms: C_7  and  C_6 
REMARK    5  A    between atoms: C_9  and  C_7 
REMARK    6  A    between atoms: C_8  and  C_9 
ROOT
ATOM      1  C   UNL d   1      54.089  33.024  54.108  0.00  0.00     0.063 A 
ATOM      2  C   UNL d   1      53.478  33.593  54.102  0.00  0.00     0.108 A 
ATOM      3  C   UNL d   1      54.714  33.106  54.639  0.00  0.00     0.017 A 
ATOM      4  C   UNL d   1      53.509  34.226  54.623  0.00  0.00     0.026 A 
ATOM      5  C   UNL d   1      54.738  33.743  55.157  0.00  0.00     0.058 A 
ATOM      6  C   UNL d   1      54.133  34.307  55.151  0.00  0.00     0.013 A 
ATOM      7 CL   UNL d   1      55.366  33.823  55.688  0.00  0.00    -0.082 Cl
ENDROOT
BRANCH   1   8
ATOM      8  C   UNL d   1      54.063  32.385  53.587  0.00  0.00     0.198 C 
ATOM      9  O   UNL d   1      54.373  32.465  52.824  0.00  0.00    -0.286 OA
BRANCH   8  10
ATOM     10  C   UNL d   1      53.730  31.671  53.824  0.00  0.00     0.043 C 
BRANCH  10  11
ATOM     11  C   UNL d   1      53.859  30.987  53.381  0.00  0.00     0.010 C 
BRANCH  11  12
ATOM     12  C   UNL d   1      53.462  30.282  53.576  0.00  0.00     0.030 A 
ATOM     13  S   UNL d   1      52.797  29.981  53.184  0.00  0.00    -0.086 SA
ATOM     14  C   UNL d   1      52.591  29.269  53.568  0.00  0.00     0.035 A 
ATOM     15  C   UNL d   1      53.125  29.144  54.183  0.00  0.00     0.007 A 
ATOM     16  C   UNL d   1      53.660  29.771  54.184  0.00  0.00     0.007 A 
ENDBRANCH  11  12
ENDBRANCH  10  11
ENDBRANCH   8  10
ENDBRANCH   1   8
BRANCH   2  17
ATOM     17  O   UNL d   1      52.854  33.512  53.574  0.00  0.00    -0.259 OA
BRANCH  17  18
ATOM     18  C   UNL d   1      52.412  34.178  53.361  0.00  0.00     0.378 C 
ATOM     19  N   UNL d   1      51.608  34.102  53.192  0.00  0.00    -0.247 N 
ATOM     20  C   UNL d   1      51.167  34.764  52.980  0.00  0.00     0.112 A 
ATOM     21  C   UNL d   1      51.242  33.355  53.237  0.00  0.00     0.112 A 
ATOM     22  C   UNL d   1      50.354  34.682  52.810  0.00  0.00     0.142 A 
ATOM     23  O   UNL d   1      49.996  33.934  52.857  0.00  0.00    -0.300 OA
ATOM     24  C   UNL d   1      50.442  33.273  53.071  0.00  0.00     0.142 A 
ATOM     25  O   UNL d   1      52.769  34.925  53.313  0.00  0.00    -0.237 OA
ENDBRANCH  17  18
ENDBRANCH   2  17
TORSDOF 6
ENDMDL
MODEL 2
REMARK VINA RESULT:      -7.6      1.801      4.032
REMARK  6 active torsions:
REMARK  status: ('A' for Active; 'I' for Inactive)
REMARK       I    between atoms: N_3  and  C_1 
REMARK    1  A    between atoms: O_5  and  C_1 
REMARK    2  A    between atoms: C_6  and  C_2 
REMARK    3  A    between atoms: C_4  and  O_5 
REMARK    4  A    between atoms: C_7  and  C_6 
REMARK    5  A    between atoms: C_9  and  C_7 
REMARK    6  A    between atoms: C_8  and  C_9 
ROOT
ATOM      1  C   UNL d   1      52.615  33.996  53.440  0.00  0.00     0.063 A 
ATOM      2  C   UNL d   1      52.995  33.322  53.756  0.00  0.00     0.108 A 
ATOM      3  C   UNL d   1      52.714  34.726  53.808  0.00  0.00     0.017 A 
ATOM      4  C   UNL d   1      53.461  33.398  54.427  0.00  0.00     0.026 A 
ATOM      5  C   UNL d   1      53.182  34.793  54.480  0.00  0.00     0.058 A 
ATOM      6  C   UNL d   1      53.559  34.127  54.793  0.00  0.00     0.013 A 
ATOM      7 CL   UNL d   1      53.280  35.528  54.846  0.00  0.00    -0.082 Cl
ENDROOT
BRANCH   1   8
ATOM      8  C   UNL d   1      52.145  33.926  52.766  0.00  0.00     0.198 C 
ATOM      9  O   UNL d   1      52.490  33.711  52.046  0.00  0.00    -0.286 OA
BRANCH   8  10
ATOM     10  C   UNL d   1      51.336  34.071  52.809  0.00  0.00     0.043 C 
BRANCH  10  11
ATOM     11  C   UNL d   1      50.888  34.127  52.119  0.00  0.00     0.010 C 
BRANCH  11  12
ATOM     12  C   UNL d   1      50.105  34.405  52.151  0.00  0.00     0.030 A 
ATOM     13  S   UNL d   1      49.568  34.403  51.520  0.00  0.00    -0.086 SA
ATOM     14  C   UNL d   1      48.856  34.732  51.805  0.00  0.00     0.035 A 
ATOM     15  C   UNL d   1      48.963  34.929  52.598  0.00  0.00     0.007 A 
ATOM     16  C   UNL d   1      49.735  34.726  52.807  0.00  0.00     0.007 A 
ENDBRANCH  11  12
ENDBRANCH  10  11
ENDBRANCH   8  10
ENDBRANCH   1   8
BRANCH   2  17
ATOM     17  O   UNL d   1      52.897  32.594  53.391  0.00  0.00    -0.259 OA
BRANCH  17  18
ATOM     18  C   UNL d   1      53.433  31.983  53.548  0.00  0.00     0.378 C 
ATOM     19  N   UNL d   1      53.193  31.197  53.484  0.00  0.00    -0.247 N 
ATOM     20  C   UNL d   1      53.726  30.590  53.641  0.00  0.00     0.112 A 
ATOM     21  C   UNL d   1      52.410  31.017  53.261  0.00  0.00     0.112 A 
ATOM     22  C   UNL d   1      53.478  29.795  53.574  0.00  0.00     0.142 A 
ATOM     23  O   UNL d   1      52.697  29.624  53.351  0.00  0.00    -0.300 OA
ATOM     24  C   UNL d   1      52.165  30.236  53.195  0.00  0.00     0.142 A 
ATOM     25  O   UNL d   1      54.213  32.154  53.771  0.00  0.00    -0.237 OA
ENDBRANCH  17  18
ENDBRANCH   2  17
TORSDOF 6
ENDMDL
MODEL 3
REMARK VINA RESULT:      -7.0      2.089      4.199
REMARK  6 active torsions:
REMARK  status: ('A' for Active; 'I' for Inactive)
REMARK       I    between atoms: N_3  and  C_1 
REMARK    1  A    between atoms: O_5  and  C_1 
REMARK    2  A    between atoms: C_6  and  C_2 
REMARK    3  A    between atoms: C_4  and  O_5 
REMARK    4  A    between atoms: C_7  and  C_6 
REMARK    5  A    between atoms: C_9  and  C_7 
REMARK    6  A    between atoms: C_8  and  C_9 
ROOT
ATOM      1  C   UNL d   1      52.928  31.724  53.060  0.00  0.00     0.063 A 
ATOM      2  C   UNL d   1      53.479  31.713  53.687  0.00  0.00     0.108 A 
ATOM      3  C   UNL d   1      52.581  31.019  52.813  0.00  0.00     0.017 A 
ATOM      4  C   UNL d   1      53.667  31.001  54.049  0.00  0.00     0.026 A 
ATOM      5  C   UNL d   1      52.774  30.310  53.180  0.00  0.00     0.058 A 
ATOM      6  C   UNL d   1      53.320  30.299  53.802  0.00  0.00     0.013 A 
ATOM      7 CL   UNL d   1      52.424  29.604  52.931  0.00  0.00    -0.082 Cl
ENDROOT
BRANCH   1   8
ATOM      8  C   UNL d   1      52.735  32.437  52.692  0.00  0.00     0.198 C 
ATOM      9  O   UNL d   1      53.266  32.781  52.159  0.00  0.00    -0.286 OA
BRANCH   8  10
ATOM     10  C   UNL d   1      52.018  32.806  52.856  0.00  0.00     0.043 C 
BRANCH  10  11
ATOM     11  C   UNL d   1      51.798  33.485  52.443  0.00  0.00     0.010 C 
BRANCH  11  12
ATOM     12  C   UNL d   1      51.097  33.886  52.642  0.00  0.00     0.030 A 
ATOM     13  S   UNL d   1      50.501  34.106  52.110  0.00  0.00    -0.086 SA
ATOM     14  C   UNL d   1      49.909  34.492  52.553  0.00  0.00     0.035 A 
ATOM     15  C   UNL d   1      50.146  34.505  53.342  0.00  0.00     0.007 A 
ATOM     16  C   UNL d   1      50.879  34.130  53.393  0.00  0.00     0.007 A 
ENDBRANCH  11  12
ENDBRANCH  10  11
ENDBRANCH   8  10
ENDBRANCH   1   8
BRANCH   2  17
ATOM     17  O   UNL d   1      53.826  32.415  53.935  0.00  0.00    -0.259 OA
BRANCH  17  18
ATOM     18  C   UNL d   1      53.984  32.531  54.738  0.00  0.00     0.378 C 
ATOM     19  N   UNL d   1      54.518  33.114  54.974  0.00  0.00    -0.247 N 
ATOM     20  C   UNL d   1      54.675  33.230  55.773  0.00  0.00     0.112 A 
ATOM     21  C   UNL d   1      54.897  33.587  54.401  0.00  0.00     0.112 A 
ATOM     22  C   UNL d   1      55.216  33.822  56.006  0.00  0.00     0.142 A 
ATOM     23  O   UNL d   1      55.590  34.289  55.430  0.00  0.00    -0.300 OA
ATOM     24  C   UNL d   1      55.429  34.169  54.629  0.00  0.00     0.142 A 
ATOM     25  O   UNL d   1      53.611  32.065  55.313  0.00  0.00    -0.237 OA
ENDBRANCH  17  18
ENDBRANCH   2  17
TORSDOF 6
ENDMDL
MODEL 4
REMARK VINA RESULT:      -6.6      1.731      3.131
REMARK  6 active torsions:
REMARK  status: ('A' for Active; 'I' for Inactive)
REMARK       I    between atoms: N_3  and  C_1 
REMARK    1  A    between atoms: O_5  and  C_1 
REMARK    2  A    between atoms: C_6  and  C_2 
REMARK    3  A    between atoms: C_4  and  O_5 
REMARK    4  A    between atoms: C_7  and  C_6 
REMARK    5  A    between atoms: C_9  and  C_7 
REMARK    6  A    between atoms: C_8  and  C_9 
ROOT
ATOM      1  C   UNL d   1      51.922  33.224  52.920  0.00  0.00     0.063 A 
ATOM      2  C   UNL d   1      52.202  33.782  53.476  0.00  0.00     0.108 A 
ATOM      3  C   UNL d   1      51.161  33.306  52.613  0.00  0.00     0.017 A 
ATOM      4  C   UNL d   1      51.716  34.401  53.708  0.00  0.00     0.026 A 
ATOM      5  C   UNL d   1      50.682  33.929  52.851  0.00  0.00     0.058 A 
ATOM      6  C   UNL d   1      50.959  34.481  53.401  0.00  0.00     0.013 A 
ATOM      7 CL   UNL d   1      49.920  34.007  52.541  0.00  0.00    -0.082 Cl
ENDROOT
BRANCH   1   8
ATOM      8  C   UNL d   1      52.405  32.599  52.683  0.00  0.00     0.198 C 
ATOM      9  O   UNL d   1      52.958  32.714  52.080  0.00  0.00    -0.286 OA
BRANCH   8  10
ATOM     10  C   UNL d   1      52.337  31.864  53.046  0.00  0.00     0.043 C 
BRANCH  10  11
ATOM     11  C   UNL d   1      52.698  31.202  52.712  0.00  0.00     0.010 C 
BRANCH  11  12
ATOM     12  C   UNL d   1      52.781  30.502  53.154  0.00  0.00     0.030 A 
ATOM     13  S   UNL d   1      53.476  30.247  53.524  0.00  0.00    -0.086 SA
ATOM     14  C   UNL d   1      53.300  29.524  53.900  0.00  0.00     0.035 A 
ATOM     15  C   UNL d   1      52.509  29.345  53.758  0.00  0.00     0.007 A 
ATOM     16  C   UNL d   1      52.192  29.952  53.297  0.00  0.00     0.007 A 
ENDBRANCH  11  12
ENDBRANCH  10  11
ENDBRANCH   8  10
ENDBRANCH   1   8
BRANCH   2  17
ATOM     17  O   UNL d   1      52.959  33.702  53.783  0.00  0.00    -0.259 OA
BRANCH  17  18
ATOM     18  C   UNL d   1      53.301  34.334  54.192  0.00  0.00     0.378 C 
ATOM     19  N   UNL d   1      53.961  34.207  54.670  0.00  0.00    -0.247 N 
ATOM     20  C   UNL d   1      54.302  34.836  55.077  0.00  0.00     0.112 A 
ATOM     21  C   UNL d   1      54.283  33.441  54.741  0.00  0.00     0.112 A 
ATOM     22  C   UNL d   1      54.971  34.702  55.560  0.00  0.00     0.142 A 
ATOM     23  O   UNL d   1      55.285  33.936  55.625  0.00  0.00    -0.300 OA
ATOM     24  C   UNL d   1      54.940  33.308  55.215  0.00  0.00     0.142 A 
ATOM     25  O   UNL d   1      52.987  35.099  54.127  0.00  0.00    -0.237 OA
ENDBRANCH  17  18
ENDBRANCH   2  17
TORSDOF 6
ENDMDL
MODEL 5
REMARK VINA RESULT:      -6.4      1.769      3.215
REMARK  6 active torsions:
REMARK  status: ('A' for Active; 'I' for Inactive)
REMARK       I    between atoms: N_3  and  C_1 
REMARK    1  A    between atoms: O_5  and  C_1 
REMARK    2  A    between atoms: C_6  and  C_2 
REMARK    3  A    between atoms: C_4  and  O_5 
REMARK    4  A    between atoms: C_7  and  C_6 
REMARK    5  A    between atoms: C_9  and  C_7 
REMARK    6  A    between atoms: C_8  and  C_9 
ROOT
ATOM      1  C   UNL d   1      53.341  31.312  53.333  0.00  0.00     0.063 A 
ATOM      2  C   UNL d   1      52.540  31.465  53.151  0.00  0.00     0.108 A 
ATOM      3  C   UNL d   1      53.575  30.541  53.510  0.00  0.00     0.017 A 
ATOM      4  C   UNL d   1      51.999  30.849  53.153  0.00  0.00     0.026 A 
ATOM      5  C   UNL d   1      53.026  29.930  53.510  0.00  0.00     0.058 A 
ATOM      6  C   UNL d   1      52.234  30.082  53.330  0.00  0.00     0.013 A 
ATOM      7 CL   UNL d   1      53.264  29.159  53.689  0.00  0.00    -0.082 Cl
ENDROOT
BRANCH   1   8
ATOM      8  C   UNL d   1      53.890  31.927  53.333  0.00  0.00     0.198 C 
ATOM      9  O   UNL d   1      54.227  32.177  52.620  0.00  0.00    -0.286 OA
BRANCH   8  10
ATOM     10  C   UNL d   1      54.102  32.291  54.039  0.00  0.00     0.043 C 
BRANCH  10  11
ATOM     11  C   UNL d   1      54.748  32.804  54.063  0.00  0.00     0.010 C 
BRANCH  11  12
ATOM     12  C   UNL d   1      54.870  33.291  54.726  0.00  0.00     0.030 A 
ATOM     13  S   UNL d   1      55.347  33.968  54.743  0.00  0.00    -0.086 SA
ATOM     14  C   UNL d   1      55.304  34.277  55.517  0.00  0.00     0.035 A 
ATOM     15  C   UNL d   1      54.807  33.792  55.960  0.00  0.00     0.007 A 
ATOM     16  C   UNL d   1      54.542  33.185  55.468  0.00  0.00     0.007 A 
ENDBRANCH  11  12
ENDBRANCH  10  11
ENDBRANCH   8  10
ENDBRANCH   1   8
BRANCH   2  17
ATOM     17  O   UNL d   1      52.305  32.232  52.974  0.00  0.00    -0.259 OA
BRANCH  17  18
ATOM     18  C   UNL d   1      51.525  32.464  53.122  0.00  0.00     0.378 C 
ATOM     19  N   UNL d   1      51.267  33.213  52.894  0.00  0.00    -0.247 N 
ATOM     20  C   UNL d   1      50.491  33.444  53.041  0.00  0.00     0.112 A 
ATOM     21  C   UNL d   1      51.794  33.737  52.515  0.00  0.00     0.112 A 
ATOM     22  C   UNL d   1      50.235  34.205  52.808  0.00  0.00     0.142 A 
ATOM     23  O   UNL d   1      50.765  34.721  52.431  0.00  0.00    -0.300 OA
ATOM     24  C   UNL d   1      51.543  34.485  52.286  0.00  0.00     0.142 A 
ATOM     25  O   UNL d   1      50.996  31.948  53.498  0.00  0.00    -0.237 OA
ENDBRANCH  17  18
ENDBRANCH   2  17
TORSDOF 6
ENDMDL
