MODEL 1
REMARK VINA RESULT:      -5.3      0.000      0.000
REMARK  2 active torsions:
REMARK  status: ('A' for Active; 'I' for Inactive)
REMARK    1  A    between atoms: N_9  and  C_2 
REMARK    2  A    between atoms: C_11  and  N_9 
ROOT
ATOM      1  C   UNL d   1      56.740  -0.002  31.850  0.00  0.00     0.154 A 
ATOM      2  C   UNL d   1      56.215  -0.029  32.481  0.00  0.00     0.185 A 
ATOM      3  C   UNL d   1      57.012  -0.702  31.508  0.00  0.00     0.186 A 
ATOM      4  N   UNL d   1      57.085   0.630  31.449  0.00  0.00    -0.218 NA
ATOM      5  N   UNL d   1      57.525  -0.500  30.896  0.00  0.00    -0.203 NA
ATOM      6  N   UNL d   1      55.959  -0.757  32.773  0.00  0.00    -0.203 NA
ATOM      7  N   UNL d   1      56.759  -1.428  31.797  0.00  0.00    -0.203 NA
ATOM      8  C   UNL d   1      57.571   0.314  30.859  0.00  0.00     0.201 A 
ATOM      9  C   UNL d   1      56.231  -1.457  32.431  0.00  0.00     0.202 A 
ENDROOT
BRANCH   2  10
ATOM     10  N   UNL d   1      55.943   0.671  32.823  0.00  0.00    -0.225 NA
BRANCH  10  11
ATOM     11  C   UNL d   1      55.671   0.673  33.598  0.00  0.00     0.083 A 
ATOM     12  C   UNL d   1      56.207   0.673  34.225  0.00  0.00     0.021 A 
ATOM     13  C   UNL d   1      55.938   0.675  34.997  0.00  0.00     0.031 A 
ATOM     14  C   UNL d   1      55.120   0.678  35.154  0.00  0.00     0.140 A 
ATOM     15  C   UNL d   1      54.584   0.678  34.527  0.00  0.00     0.031 A 
ATOM     16  F   UNL d   1      54.840   0.680  35.935  0.00  0.00    -0.204 F 
ATOM     17  C   UNL d   1      54.860   0.676  33.749  0.00  0.00     0.021 A 
ENDBRANCH  10  11
ENDBRANCH   2  10
TORSDOF 2
ENDMDL
MODEL 2
REMARK VINA RESULT:      -5.0      1.553      2.562
REMARK  2 active torsions:
REMARK  status: ('A' for Active; 'I' for Inactive)
REMARK    1  A    between atoms: N_9  and  C_2 
REMARK    2  A    between atoms: C_11  and  N_9 
ROOT
ATOM      1  C   UNL d   1      58.217   0.392  30.360  0.00  0.00     0.154 A 
ATOM      2  C   UNL d   1      57.804   0.391  31.070  0.00  0.00     0.185 A 
ATOM      3  C   UNL d   1      59.029   0.537  30.354  0.00  0.00     0.186 A 
ATOM      4  N   UNL d   1      57.974   0.267  29.582  0.00  0.00    -0.218 NA
ATOM      5  N   UNL d   1      59.286   0.502  29.572  0.00  0.00    -0.203 NA
ATOM      6  N   UNL d   1      58.202   0.537  31.778  0.00  0.00    -0.203 NA
ATOM      7  N   UNL d   1      59.428   0.682  31.057  0.00  0.00    -0.203 NA
ATOM      8  C   UNL d   1      58.641   0.336  29.099  0.00  0.00     0.201 A 
ATOM      9  C   UNL d   1      59.014   0.682  31.772  0.00  0.00     0.202 A 
ENDROOT
BRANCH   2  10
ATOM     10  N   UNL d   1      56.992   0.246  31.076  0.00  0.00    -0.225 NA
BRANCH  10  11
ATOM     11  C   UNL d   1      56.628  -0.035  31.756  0.00  0.00     0.083 A 
ATOM     12  C   UNL d   1      56.621  -0.843  31.919  0.00  0.00     0.021 A 
ATOM     13  C   UNL d   1      56.259  -1.124  32.596  0.00  0.00     0.031 A 
ATOM     14  C   UNL d   1      55.894  -0.594  33.126  0.00  0.00     0.140 A 
ATOM     15  C   UNL d   1      55.901   0.215  32.962  0.00  0.00     0.031 A 
ATOM     16  F   UNL d   1      55.525  -0.872  33.814  0.00  0.00    -0.204 F 
ATOM     17  C   UNL d   1      56.268   0.495  32.278  0.00  0.00     0.021 A 
ENDBRANCH  10  11
ENDBRANCH   2  10
TORSDOF 2
ENDMDL
MODEL 3
REMARK VINA RESULT:      -4.5      1.997      3.681
REMARK  2 active torsions:
REMARK  status: ('A' for Active; 'I' for Inactive)
REMARK    1  A    between atoms: N_9  and  C_2 
REMARK    2  A    between atoms: C_11  and  N_9 
ROOT
ATOM      1  C   UNL d   1      55.959   0.029  32.905  0.00  0.00     0.154 A 
ATOM      2  C   UNL d   1      56.432  -0.032  32.237  0.00  0.00     0.185 A 
ATOM      3  C   UNL d   1      55.645  -0.649  33.254  0.00  0.00     0.186 A 
ATOM      4  N   UNL d   1      55.706   0.682  33.341  0.00  0.00    -0.218 NA
ATOM      5  N   UNL d   1      55.199  -0.414  33.905  0.00  0.00    -0.203 NA
ATOM      6  N   UNL d   1      56.595  -0.775  31.915  0.00  0.00    -0.203 NA
ATOM      7  N   UNL d   1      55.805  -1.389  32.936  0.00  0.00    -0.203 NA
ATOM      8  C   UNL d   1      55.235   0.400  33.960  0.00  0.00     0.201 A 
ATOM      9  C   UNL d   1      56.281  -1.453  32.264  0.00  0.00     0.202 A 
ENDROOT
BRANCH   2  10
ATOM     10  N   UNL d   1      56.746   0.646  31.888  0.00  0.00    -0.225 NA
BRANCH  10  11
ATOM     11  C   UNL d   1      57.436   0.601  31.445  0.00  0.00     0.083 A 
ATOM     12  C   UNL d   1      57.398   0.475  30.630  0.00  0.00     0.021 A 
ATOM     13  C   UNL d   1      58.084   0.430  30.188  0.00  0.00     0.031 A 
ATOM     14  C   UNL d   1      58.826   0.511  30.558  0.00  0.00     0.140 A 
ATOM     15  C   UNL d   1      58.864   0.637  31.373  0.00  0.00     0.031 A 
ATOM     16  F   UNL d   1      59.526   0.467  30.115  0.00  0.00    -0.204 F 
ATOM     17  C   UNL d   1      58.169   0.682  31.816  0.00  0.00     0.021 A 
ENDBRANCH  10  11
ENDBRANCH   2  10
TORSDOF 2
ENDMDL
MODEL 4
REMARK VINA RESULT:      -4.3      1.574      2.494
REMARK  2 active torsions:
REMARK  status: ('A' for Active; 'I' for Inactive)
REMARK    1  A    between atoms: N_9  and  C_2 
REMARK    2  A    between atoms: C_11  and  N_9 
ROOT
ATOM      1  C   UNL d   1      58.536   0.484  30.800  0.00  0.00     0.154 A 
ATOM      2  C   UNL d   1      57.799   0.401  31.152  0.00  0.00     0.185 A 
ATOM      3  C   UNL d   1      58.595   0.624  29.989  0.00  0.00     0.186 A 
ATOM      4  N   UNL d   1      59.300   0.455  31.110  0.00  0.00    -0.218 NA
ATOM      5  N   UNL d   1      59.394   0.681  29.800  0.00  0.00    -0.203 NA
ATOM      6  N   UNL d   1      57.116   0.458  30.694  0.00  0.00    -0.203 NA
ATOM      7  N   UNL d   1      57.916   0.681  29.530  0.00  0.00    -0.203 NA
ATOM      8  C   UNL d   1      59.827   0.578  30.485  0.00  0.00     0.201 A 
ATOM      9  C   UNL d   1      57.174   0.598  29.883  0.00  0.00     0.202 A 
ENDROOT
BRANCH   2  10
ATOM     10  N   UNL d   1      57.741   0.261  31.963  0.00  0.00    -0.225 NA
BRANCH  10  11
ATOM     11  C   UNL d   1      57.015   0.076  32.299  0.00  0.00     0.083 A 
ATOM     12  C   UNL d   1      56.746  -0.704  32.301  0.00  0.00     0.021 A 
ATOM     13  C   UNL d   1      56.023  -0.890  32.635  0.00  0.00     0.031 A 
ATOM     14  C   UNL d   1      55.555  -0.292  32.976  0.00  0.00     0.140 A 
ATOM     15  C   UNL d   1      55.824   0.488  32.974  0.00  0.00     0.031 A 
ATOM     16  F   UNL d   1      54.820  -0.473  33.316  0.00  0.00    -0.204 F 
ATOM     17  C   UNL d   1      56.554   0.672  32.636  0.00  0.00     0.021 A 
ENDBRANCH  10  11
ENDBRANCH   2  10
TORSDOF 2
ENDMDL
MODEL 5
REMARK VINA RESULT:      -3.8      2.301      3.620
REMARK  2 active torsions:
REMARK  status: ('A' for Active; 'I' for Inactive)
REMARK    1  A    between atoms: N_9  and  C_2 
REMARK    2  A    between atoms: C_11  and  N_9 
ROOT
ATOM      1  C   UNL d   1      59.006  -0.414  29.423  0.00  0.00     0.154 A 
ATOM      2  C   UNL d   1      58.582   0.033  29.966  0.00  0.00     0.185 A 
ATOM      3  C   UNL d   1      59.822  -0.317  29.355  0.00  0.00     0.186 A 
ATOM      4  N   UNL d   1      58.770  -0.992  28.884  0.00  0.00    -0.218 NA
ATOM      5  N   UNL d   1      60.089  -0.835  28.773  0.00  0.00    -0.203 NA
ATOM      6  N   UNL d   1      58.973   0.580  30.443  0.00  0.00    -0.203 NA
ATOM      7  N   UNL d   1      60.215   0.227  29.828  0.00  0.00    -0.203 NA
ATOM      8  C   UNL d   1      59.447  -1.249  28.483  0.00  0.00     0.201 A 
ATOM      9  C   UNL d   1      59.790   0.678  30.374  0.00  0.00     0.202 A 
ENDROOT
BRANCH   2  10
ATOM     10  N   UNL d   1      57.766  -0.064  30.034  0.00  0.00    -0.225 NA
BRANCH  10  11
ATOM     11  C   UNL d   1      57.409  -0.051  30.774  0.00  0.00     0.083 A 
ATOM     12  C   UNL d   1      57.192   0.667  31.117  0.00  0.00     0.021 A 
ATOM     13  C   UNL d   1      56.837   0.682  31.853  0.00  0.00     0.031 A 
ATOM     14  C   UNL d   1      56.692  -0.030  32.261  0.00  0.00     0.140 A 
ATOM     15  C   UNL d   1      56.909  -0.748  31.919  0.00  0.00     0.031 A 
ATOM     16  F   UNL d   1      56.333  -0.022  33.009  0.00  0.00    -0.204 F 
ATOM     17  C   UNL d   1      57.268  -0.759  31.175  0.00  0.00     0.021 A 
ENDBRANCH  10  11
ENDBRANCH   2  10
TORSDOF 2
ENDMDL
MODEL 6
REMARK VINA RESULT:      -3.0      9.696     10.234
REMARK  2 active torsions:
REMARK  status: ('A' for Active; 'I' for Inactive)
REMARK    1  A    between atoms: N_9  and  C_2 
REMARK    2  A    between atoms: C_11  and  N_9 
ROOT
ATOM      1  C   UNL d   1      58.695  -9.718  32.773  0.00  0.00     0.154 A 
ATOM      2  C   UNL d   1      59.271  -9.717  33.357  0.00  0.00     0.185 A 
ATOM      3  C   UNL d   1      58.911  -9.769  31.978  0.00  0.00     0.186 A 
ATOM      4  N   UNL d   1      57.872  -9.676  32.812  0.00  0.00    -0.218 NA
ATOM      5  N   UNL d   1      58.222  -9.758  31.528  0.00  0.00    -0.203 NA
ATOM      6  N   UNL d   1      60.069  -9.766  33.150  0.00  0.00    -0.203 NA
ATOM      7  N   UNL d   1      59.704  -9.818  31.768  0.00  0.00    -0.203 NA
ATOM      8  C   UNL d   1      57.585  -9.701  32.037  0.00  0.00     0.201 A 
ATOM      9  C   UNL d   1      60.285  -9.817  32.355  0.00  0.00     0.202 A 
ENDROOT
BRANCH   2  10
ATOM     10  N   UNL d   1      59.055  -9.667  34.152  0.00  0.00    -0.225 NA
BRANCH  10  11
ATOM     11  C   UNL d   1      59.556  -9.306  34.694  0.00  0.00     0.083 A 
ATOM     12  C   UNL d   1      60.040  -9.764  35.180  0.00  0.00     0.021 A 
ATOM     13  C   UNL d   1      60.539  -9.407  35.720  0.00  0.00     0.031 A 
ATOM     14  C   UNL d   1      60.560  -8.576  35.782  0.00  0.00     0.140 A 
ATOM     15  C   UNL d   1      60.076  -8.118  35.297  0.00  0.00     0.031 A 
ATOM     16  F   UNL d   1      61.064  -8.207  36.328  0.00  0.00    -0.204 F 
ATOM     17  C   UNL d   1      59.573  -8.483  34.752  0.00  0.00     0.021 A 
ENDBRANCH  10  11
ENDBRANCH   2  10
TORSDOF 2
ENDMDL
MODEL 7
REMARK VINA RESULT:      -2.4      9.652     10.559
REMARK  2 active torsions:
REMARK  status: ('A' for Active; 'I' for Inactive)
REMARK    1  A    between atoms: N_9  and  C_2 
REMARK    2  A    between atoms: C_11  and  N_9 
ROOT
ATOM      1  C   UNL d   1      59.627  -8.669  35.277  0.00  0.00     0.154 A 
ATOM      2  C   UNL d   1      60.085  -8.900  34.636  0.00  0.00     0.185 A 
ATOM      3  C   UNL d   1      59.848  -8.017  35.730  0.00  0.00     0.186 A 
ATOM      4  N   UNL d   1      58.930  -8.976  35.593  0.00  0.00    -0.218 NA
ATOM      5  N   UNL d   1      59.288  -7.922  36.326  0.00  0.00    -0.203 NA
ATOM      6  N   UNL d   1      60.768  -8.479  34.445  0.00  0.00    -0.203 NA
ATOM      7  N   UNL d   1      60.528  -7.595  35.543  0.00  0.00    -0.203 NA
ATOM      8  C   UNL d   1      58.725  -8.508  36.244  0.00  0.00     0.201 A 
ATOM      9  C   UNL d   1      60.990  -7.827  34.899  0.00  0.00     0.202 A 
ENDROOT
BRANCH   2  10
ATOM     10  N   UNL d   1      59.863  -9.553  34.182  0.00  0.00    -0.225 NA
BRANCH  10  11
ATOM     11  C   UNL d   1      60.059  -9.587  33.385  0.00  0.00     0.083 A 
ATOM     12  C   UNL d   1      60.837  -9.734  33.156  0.00  0.00     0.021 A 
ATOM     13  C   UNL d   1      61.033  -9.769  32.363  0.00  0.00     0.031 A 
ATOM     14  C   UNL d   1      60.447  -9.656  31.782  0.00  0.00     0.140 A 
ATOM     15  C   UNL d   1      59.668  -9.509  32.012  0.00  0.00     0.031 A 
ATOM     16  F   UNL d   1      60.639  -9.690  30.976  0.00  0.00    -0.204 F 
ATOM     17  C   UNL d   1      59.474  -9.475  32.814  0.00  0.00     0.021 A 
ENDBRANCH  10  11
ENDBRANCH   2  10
TORSDOF 2
ENDMDL
