MODEL 1
REMARK VINA RESULT:      81.1      0.000      0.000
REMARK  6 active torsions:
REMARK  status: ('A' for Active; 'I' for Inactive)
REMARK    1  A    between atoms: C_2  and  C_1 
REMARK       I    between atoms: N_3  and  C_2 
REMARK    2  A    between atoms: C_24  and  N_3 
REMARK    3  A    between atoms: C_4  and  C_10 
REMARK    4  A    between atoms: C_9  and  C_4 
REMARK    5  A    between atoms: C_8  and  C_9 
REMARK    6  A    between atoms: C_10  and  C_15 
ROOT
ATOM      1  C   UNL d   1      59.721  48.899  50.670  0.00  0.00     0.039 A 
ATOM      2  C   UNL d   1      58.193  49.422  51.046  0.00  0.00     0.084 A 
ATOM      3  C   UNL d   1      59.318  48.592  51.367  0.00  0.00     0.005 A 
ATOM      4  C   UNL d   1      59.346  49.446  50.202  0.00  0.00     0.005 A 
ATOM      5  C   UNL d   1      58.575  48.854  51.538  0.00  0.00     0.019 A 
ATOM      6  C   UNL d   1      58.603  49.705  50.377  0.00  0.00     0.019 A 
ENDROOT
BRANCH   2   7
ATOM      7  N   UNL d   1      57.450  49.685  51.216  0.00  0.00    -0.212 NA
ATOM      8  C   UNL d   1      56.807  49.437  50.791  0.00  0.00     0.259 C 
ATOM      9  O   UNL d   1      56.035  49.702  50.958  0.00  0.00    -0.270 OA
BRANCH   8  10
ATOM     10  C   UNL d   1      56.907  48.904  50.169  0.00  0.00     0.092 A 
ATOM     11  C   UNL d   1      57.075  48.776  49.372  0.00  0.00     0.017 A 
ATOM     12  C   UNL d   1      57.081  48.035  49.110  0.00  0.00     0.023 A 
ATOM     13  C   UNL d   1      57.171  48.817  48.953  0.00  0.00    -0.027 A 
ATOM     14  C   UNL d   1      56.922  47.404  49.621  0.00  0.00     0.009 A 
ATOM     15  C   UNL d   1      57.003  48.943  49.751  0.00  0.00    -0.012 A 
ATOM     16  C   UNL d   1      56.994  49.702  50.035  0.00  0.00    -0.018 A 
ATOM     17  C   UNL d   1      56.848  48.296  50.240  0.00  0.00    -0.027 A 
ATOM     18  C   UNL d   1      56.771  47.546  50.346  0.00  0.00     0.023 A 
ATOM     19  C   UNL d   1      56.752  48.257  50.658  0.00  0.00     0.017 A 
ENDBRANCH   8  10
ENDBRANCH   2   7
BRANCH   1  20
ATOM     20  C   UNL d   1      60.486  48.624  50.501  0.00  0.00     0.196 C 
ATOM     21  O   UNL d   1      61.107  49.117  50.632  0.00  0.00    -0.287 OA
BRANCH  20  22
ATOM     22  C   UNL d   1      60.598  47.864  50.206  0.00  0.00     0.044 C 
BRANCH  22  23
ATOM     23  C   UNL d   1      61.218  47.393  50.490  0.00  0.00     0.028 C 
BRANCH  23  24
ATOM     24  C   UNL d   1      61.372  46.661  50.140  0.00  0.00     0.100 A 
ATOM     25  O   UNL d   1      61.011  45.950  50.294  0.00  0.00    -0.305 OA
ATOM     26  C   UNL d   1      61.330  45.376  49.829  0.00  0.00     0.123 A 
ATOM     27  C   UNL d   1      61.913  45.725  49.361  0.00  0.00     0.029 A 
ATOM     28  C   UNL d   1      61.946  46.539  49.551  0.00  0.00     0.027 A 
ENDBRANCH  23  24
ENDBRANCH  22  23
ENDBRANCH  20  22
ENDBRANCH   1  20
TORSDOF 6
ENDMDL
