MODEL 1
REMARK VINA RESULT:      13.8      0.000      0.000
REMARK  3 active torsions:
REMARK  status: ('A' for Active; 'I' for Inactive)
REMARK    1  A    between atoms: N_2  and  C_1 
REMARK    2  A    between atoms: N_3  and  C_1 
REMARK       I    between atoms: C_4  and  N_3 
REMARK    3  A    between atoms: C_7  and  C_4 
ROOT
ATOM      1  C   UNL d   1      46.107 -17.365  44.205  0.00  0.00     0.209 C 
ATOM      2  S   UNL d   1      45.929 -17.692  44.949  0.00  0.00    -0.038 SA
ENDROOT
BRANCH   1   3
ATOM      3  N   UNL d   1      46.266 -17.854  43.564  0.00  0.00    -0.282 N 
ATOM      4  C   UNL d   1      46.377 -18.668  43.685  0.00  0.00     0.066 A 
ATOM      5  C   UNL d   1      46.536 -19.156  43.045  0.00  0.00     0.016 A 
ATOM      6  C   UNL d   1      46.329 -18.986  44.438  0.00  0.00     0.018 A 
ATOM      7  C   UNL d   1      46.647 -19.960  43.156  0.00  0.00     0.001 A 
ATOM      8  C   UNL d   1      46.585 -18.843  42.285  0.00  0.00     0.003 A 
ATOM      9  C   UNL d   1      46.599 -20.278  43.911  0.00  0.00     0.000 A 
ATOM     10  C   UNL d   1      46.441 -19.797  44.554  0.00  0.00     0.002 A 
ATOM     11  C   UNL d   1      46.474 -18.032  42.169  0.00  0.00     0.019 A 
ATOM     12  C   UNL d   1      46.315 -17.540  42.808  0.00  0.00     0.082 A 
ENDBRANCH   1   3
BRANCH   1  13
ATOM     13  N   UNL d   1      46.123 -16.540  44.111  0.00  0.00    -0.180 NA
ATOM     14  C   UNL d   1      45.546 -16.075  44.488  0.00  0.00     0.281 C 
ATOM     15  O   UNL d   1      44.963 -16.425  44.949  0.00  0.00    -0.265 OA
BRANCH  14  16
ATOM     16  C   UNL d   1      45.562 -15.242  44.394  0.00  0.00     0.058 A 
ATOM     17  C   UNL d   1      44.853 -14.834  44.251  0.00  0.00     0.005 A 
ATOM     18  C   UNL d   1      44.869 -14.008  44.158  0.00  0.00     0.007 A 
ATOM     19  C   UNL d   1      45.585 -13.599  44.208  0.00  0.00     0.035 A 
ATOM     20  C   UNL d   1      46.295 -14.020  44.353  0.00  0.00     0.007 A 
ATOM     21 BR   UNL d   1      45.602 -12.774  44.115  0.00  0.00    -0.049 Br
ATOM     22  C   UNL d   1      46.279 -14.837  44.445  0.00  0.00     0.005 A 
ENDBRANCH  14  16
ENDBRANCH   1  13
TORSDOF 3
ENDMDL
