MODEL 1
REMARK VINA RESULT:      -4.7      0.000      0.000
REMARK  3 active torsions:
REMARK  status: ('A' for Active; 'I' for Inactive)
REMARK    1  A    between atoms: C_6  and  N_1 
REMARK    2  A    between atoms: C_3  and  C_2 
REMARK       I    between atoms: N_4  and  C_3 
REMARK    3  A    between atoms: C_9  and  N_4 
ROOT
ATOM      1  C   UNL d   1      56.982  -0.137  32.031  0.00  0.00     0.069 A 
ATOM      2  C   UNL d   1      57.014  -0.759  31.487  0.00  0.00     0.064 A 
ATOM      3  C   UNL d   1      57.777   0.061  30.596  0.00  0.00     0.128 A 
ATOM      4  C   UNL d   1      57.410  -0.661  30.772  0.00  0.00     0.035 A 
ATOM      5  C   UNL d   1      57.350   0.585  31.855  0.00  0.00     0.007 A 
ATOM      6  C   UNL d   1      57.747   0.682  31.136  0.00  0.00     0.024 A 
ATOM      7 CL   UNL d   1      56.651  -1.480  31.655  0.00  0.00    -0.082 Cl
ENDROOT
BRANCH   1   8
ATOM      8  C   UNL d   1      56.586  -0.234  32.747  0.00  0.00     0.281 C 
ATOM      9  N   UNL d   1      56.125   0.379  33.050  0.00  0.00    -0.189 NA
ATOM     10  O   UNL d   1      56.654  -0.946  33.157  0.00  0.00    -0.265 OA
BRANCH   9  11
ATOM     11  C   UNL d   1      55.662   0.481  33.729  0.00  0.00     0.166 A 
ATOM     12  N   UNL d   1      56.027   0.529  34.468  0.00  0.00    -0.225 NA
ATOM     13  C   UNL d   1      55.557   0.629  35.128  0.00  0.00     0.101 A 
ATOM     14  C   UNL d   1      54.738   0.682  35.062  0.00  0.00     0.021 A 
ATOM     15  C   UNL d   1      54.381   0.633  34.325  0.00  0.00     0.005 A 
ATOM     16  C   UNL d   1      54.844   0.532  33.650  0.00  0.00     0.039 A 
ENDBRANCH   9  11
ENDBRANCH   1   8
BRANCH   3  17
ATOM     17  N   UNL d   1      58.174   0.152  29.874  0.00  0.00    -0.114 N 
ATOM     18  O   UNL d   1      57.810   0.564  29.259  0.00  0.00    -0.532 OA
ATOM     19  O   UNL d   1      58.927  -0.165  29.770  0.00  0.00    -0.532 OA
ENDBRANCH   3  17
TORSDOF 3
ENDMDL
MODEL 2
REMARK VINA RESULT:      -2.0      1.569      2.219
REMARK  3 active torsions:
REMARK  status: ('A' for Active; 'I' for Inactive)
REMARK    1  A    between atoms: C_6  and  N_1 
REMARK    2  A    between atoms: C_3  and  C_2 
REMARK       I    between atoms: N_4  and  C_3 
REMARK    3  A    between atoms: C_9  and  N_4 
ROOT
ATOM      1  C   UNL d   1      58.186   0.174  30.666  0.00  0.00     0.069 A 
ATOM      2  C   UNL d   1      58.346  -0.334  30.033  0.00  0.00     0.064 A 
ATOM      3  C   UNL d   1      59.682   0.173  29.964  0.00  0.00     0.128 A 
ATOM      4  C   UNL d   1      59.091  -0.335  29.683  0.00  0.00     0.035 A 
ATOM      5  C   UNL d   1      58.778   0.682  30.947  0.00  0.00     0.007 A 
ATOM      6  C   UNL d   1      59.526   0.680  30.594  0.00  0.00     0.024 A 
ATOM      7 CL   UNL d   1      57.762  -0.843  29.748  0.00  0.00    -0.082 Cl
ENDROOT
BRANCH   1   8
ATOM      8  C   UNL d   1      57.441   0.175  31.017  0.00  0.00     0.281 C 
ATOM      9  N   UNL d   1      57.339  -0.147  31.769  0.00  0.00    -0.189 NA
ATOM     10  O   UNL d   1      56.800   0.499  30.612  0.00  0.00    -0.265 OA
BRANCH   9  11
ATOM     11  C   UNL d   1      56.695  -0.242  32.281  0.00  0.00     0.166 A 
ATOM     12  N   UNL d   1      56.302   0.425  32.571  0.00  0.00    -0.225 NA
ATOM     13  C   UNL d   1      55.670   0.315  33.075  0.00  0.00     0.101 A 
ATOM     14  C   UNL d   1      55.425  -0.441  33.291  0.00  0.00     0.021 A 
ATOM     15  C   UNL d   1      55.819  -1.099  33.000  0.00  0.00     0.005 A 
ATOM     16  C   UNL d   1      56.460  -1.003  32.490  0.00  0.00     0.039 A 
ENDBRANCH   9  11
ENDBRANCH   1   8
BRANCH   3  17
ATOM     17  N   UNL d   1      60.430   0.167  29.607  0.00  0.00    -0.114 N 
ATOM     18  O   UNL d   1      61.007  -0.357  29.878  0.00  0.00    -0.532 OA
ATOM     19  O   UNL d   1      60.599   0.681  28.985  0.00  0.00    -0.532 OA
ENDBRANCH   3  17
TORSDOF 3
ENDMDL
MODEL 3
REMARK VINA RESULT:      -1.8      1.785      4.762
REMARK  3 active torsions:
REMARK  status: ('A' for Active; 'I' for Inactive)
REMARK    1  A    between atoms: C_6  and  N_1 
REMARK    2  A    between atoms: C_3  and  C_2 
REMARK       I    between atoms: N_4  and  C_3 
REMARK    3  A    between atoms: C_9  and  N_4 
ROOT
ATOM      1  C   UNL d   1      57.380  -0.488  31.202  0.00  0.00     0.069 A 
ATOM      2  C   UNL d   1      57.586   0.161  31.672  0.00  0.00     0.064 A 
ATOM      3  C   UNL d   1      56.607  -0.229  32.639  0.00  0.00     0.128 A 
ATOM      4  C   UNL d   1      57.202   0.291  32.387  0.00  0.00     0.035 A 
ATOM      5  C   UNL d   1      56.785  -1.007  31.454  0.00  0.00     0.007 A 
ATOM      6  C   UNL d   1      56.399  -0.875  32.175  0.00  0.00     0.024 A 
ATOM      7 CL   UNL d   1      58.177   0.682  31.427  0.00  0.00    -0.082 Cl
ENDROOT
BRANCH   1   8
ATOM      8  C   UNL d   1      57.764  -0.618  30.486  0.00  0.00     0.281 C 
ATOM      9  N   UNL d   1      58.188  -1.316  30.366  0.00  0.00    -0.189 NA
ATOM     10  O   UNL d   1      57.722  -0.049  29.890  0.00  0.00    -0.265 OA
BRANCH   9  11
ATOM     11  C   UNL d   1      58.631  -1.630  29.740  0.00  0.00     0.166 A 
ATOM     12  N   UNL d   1      59.269  -1.203  29.436  0.00  0.00    -0.225 NA
ATOM     13  C   UNL d   1      59.695  -1.526  28.820  0.00  0.00     0.101 A 
ATOM     14  C   UNL d   1      59.496  -2.261  28.505  0.00  0.00     0.021 A 
ATOM     15  C   UNL d   1      58.862  -2.680  28.812  0.00  0.00     0.005 A 
ATOM     16  C   UNL d   1      58.422  -2.365  29.434  0.00  0.00     0.039 A 
ENDBRANCH   9  11
ENDBRANCH   1   8
BRANCH   3  17
ATOM     17  N   UNL d   1      56.224  -0.092  33.362  0.00  0.00    -0.114 N 
ATOM     18  O   UNL d   1      56.666  -0.060  34.057  0.00  0.00    -0.532 OA
ATOM     19  O   UNL d   1      55.407   0.011  33.387  0.00  0.00    -0.532 OA
ENDBRANCH   3  17
TORSDOF 3
ENDMDL
