MODEL 1
REMARK VINA RESULT:      46.9      0.000      0.000
REMARK  3 active torsions:
REMARK  status: ('A' for Active; 'I' for Inactive)
REMARK    1  A    between atoms: C_7  and  N_1 
REMARK    2  A    between atoms: C_13  and  C_7 
REMARK    3  A    between atoms: O_18  and  C_10 
ROOT
ATOM      1  N   UNL d   1      58.987  49.701  50.704  0.00  0.00    -0.226 N 
ATOM      2  C   UNL d   1      59.236  49.696  49.956  0.00  0.00     0.343 A 
ATOM      3  N   UNL d   1      60.132  49.691  49.895  0.00  0.00    -0.241 N 
ATOM      4  C   UNL d   1      59.521  49.700  51.242  0.00  0.00     0.273 A 
ATOM      5  C   UNL d   1      60.492  49.692  50.536  0.00  0.00     0.158 A 
ATOM      6  C   UNL d   1      60.197  49.697  51.311  0.00  0.00     0.113 A 
ATOM      7  N   UNL d   1      61.308  49.687  50.404  0.00  0.00    -0.226 NA
ATOM      8  O   UNL d   1      59.028  49.695  49.443  0.00  0.00    -0.245 OA
ATOM      9  C   UNL d   1      60.720  49.697  51.953  0.00  0.00     0.103 A 
ATOM     10  O   UNL d   1      59.301  49.704  51.727  0.00  0.00    -0.266 OA
ATOM     11  C   UNL d   1      60.460  49.686  49.208  0.00  0.00     0.105 C 
ATOM     12  C   UNL d   1      61.830  49.687  51.045  0.00  0.00     0.103 A 
ATOM     13  C   UNL d   1      61.535  49.692  51.820  0.00  0.00     0.045 A 
ENDROOT
BRANCH   1  14
ATOM     14  C   UNL d   1      58.184  49.706  50.886  0.00  0.00     0.087 C 
BRANCH  14  15
ATOM     15  C   UNL d   1      57.664  49.197  50.505  0.00  0.00     0.018 A 
ATOM     16  C   UNL d   1      57.161  49.487  49.899  0.00  0.00     0.002 A 
ATOM     17  C   UNL d   1      56.643  48.991  49.516  0.00  0.00     0.011 A 
ATOM     18  C   UNL d   1      56.615  48.203  49.727  0.00  0.00     0.058 A 
ATOM     19  C   UNL d   1      57.108  47.906  50.325  0.00  0.00     0.011 A 
ATOM     20 CL   UNL d   1      56.091  47.697  49.340  0.00  0.00    -0.082 Cl
ATOM     21  C   UNL d   1      57.625  48.397  50.708  0.00  0.00     0.002 A 
ENDBRANCH  14  15
ENDBRANCH   1  14
BRANCH   9  22
ATOM     22  O   UNL d   1      60.369  49.703  52.804  0.00  0.00    -0.328 OA
ATOM     23  C   UNL d   1      60.862  49.638  53.462  0.00  0.00     0.181 C 
ENDBRANCH   9  22
TORSDOF 3
ENDMDL
