MODEL 1
REMARK VINA RESULT:      70.9      0.000      0.000
REMARK  4 active torsions:
REMARK  status: ('A' for Active; 'I' for Inactive)
REMARK    1  A    between atoms: C_3  and  C_1 
REMARK    2  A    between atoms: C_11  and  N_2 
REMARK    3  A    between atoms: C_12  and  C_11 
REMARK       I    between atoms: N_13  and  C_12 
REMARK    4  A    between atoms: C_16  and  N_13 
ROOT
ATOM      1  C   UNL d   1      61.171  48.168  50.971  0.00  0.00     0.171 A 
ATOM      2  N   UNL d   1      60.482  48.619  51.067  0.00  0.00    -0.284 N 
ATOM      3  N   UNL d   1      61.614  48.231  51.668  0.00  0.00    -0.225 NA
ATOM      4  C   UNL d   1      60.504  48.955  51.817  0.00  0.00     0.083 A 
ATOM      5  C   UNL d   1      61.201  48.716  52.188  0.00  0.00     0.099 A 
ATOM      6  C   UNL d   1      59.962  49.465  52.225  0.00  0.00     0.019 A 
ATOM      7  C   UNL d   1      61.369  48.983  52.973  0.00  0.00     0.021 A 
ATOM      8  C   UNL d   1      60.146  49.706  52.976  0.00  0.00     0.002 A 
ATOM      9  C   UNL d   1      60.843  49.467  53.346  0.00  0.00     0.002 A 
ENDROOT
BRANCH   2  10
ATOM     10  C   UNL d   1      59.888  48.707  50.503  0.00  0.00     0.145 C 
BRANCH  10  11
ATOM     11  C   UNL d   1      59.893  49.366  50.021  0.00  0.00     0.297 C 
ATOM     12  N   UNL d   1      59.180  49.706  49.776  0.00  0.00    -0.207 NA
ATOM     13  O   UNL d   1      60.609  49.706  49.767  0.00  0.00    -0.264 OA
BRANCH  12  14
ATOM     14  C   UNL d   1      58.376  49.572  49.878  0.00  0.00     0.085 A 
ATOM     15  C   UNL d   1      57.782  49.681  49.310  0.00  0.00     0.019 A 
ATOM     16  C   UNL d   1      57.064  49.481  49.652  0.00  0.00     0.002 A 
ATOM     17  C   UNL d   1      57.192  49.247  50.430  0.00  0.00     0.002 A 
ATOM     18  C   UNL d   1      57.995  49.304  50.562  0.00  0.00     0.019 A 
ENDBRANCH  12  14
ENDBRANCH  10  11
ENDBRANCH   2  10
BRANCH   1  19
ATOM     19  C   UNL d   1      61.381  47.729  50.294  0.00  0.00     0.184 A 
ATOM     20  C   UNL d   1      61.299  46.913  50.203  0.00  0.00     0.235 A 
ATOM     21  N   UNL d   1      61.575  46.713  49.447  0.00  0.00    -0.081 NA
ATOM     22  N   UNL d   1      60.997  46.386  50.760  0.00  0.00    -0.123 N 
ATOM     23  O   UNL d   1      61.826  47.406  49.075  0.00  0.00    -0.104 OA
ATOM     24  N   UNL d   1      61.706  48.038  49.600  0.00  0.00    -0.097 NA
ENDBRANCH   1  19
TORSDOF 4
ENDMDL
MODEL 2
REMARK VINA RESULT:      71.0      1.088      3.281
REMARK  4 active torsions:
REMARK  status: ('A' for Active; 'I' for Inactive)
REMARK    1  A    between atoms: C_3  and  C_1 
REMARK    2  A    between atoms: C_11  and  N_2 
REMARK    3  A    between atoms: C_12  and  C_11 
REMARK       I    between atoms: N_13  and  C_12 
REMARK    4  A    between atoms: C_16  and  N_13 
ROOT
ATOM      1  C   UNL d   1      59.117  49.418  51.020  0.00  0.00     0.171 A 
ATOM      2  N   UNL d   1      59.866  49.066  50.959  0.00  0.00    -0.284 N 
ATOM      3  N   UNL d   1      59.036  49.706  51.793  0.00  0.00    -0.225 NA
ATOM      4  C   UNL d   1      60.239  49.139  51.689  0.00  0.00     0.083 A 
ATOM      5  C   UNL d   1      59.728  49.533  52.203  0.00  0.00     0.099 A 
ATOM      6  C   UNL d   1      61.002  48.889  51.962  0.00  0.00     0.019 A 
ATOM      7  C   UNL d   1      59.971  49.685  52.999  0.00  0.00     0.021 A 
ATOM      8  C   UNL d   1      61.211  49.046  52.728  0.00  0.00     0.002 A 
ATOM      9  C   UNL d   1      60.700  49.440  53.242  0.00  0.00     0.002 A 
ENDROOT
BRANCH   2  10
ATOM     10  C   UNL d   1      60.171  48.710  50.282  0.00  0.00     0.145 C 
BRANCH  10  11
ATOM     11  C   UNL d   1      60.922  48.910  50.033  0.00  0.00     0.297 C 
ATOM     12  N   UNL d   1      61.463  48.317  49.831  0.00  0.00    -0.207 NA
ATOM     13  O   UNL d   1      61.158  49.706  49.977  0.00  0.00    -0.264 OA
BRANCH  12  14
ATOM     14  C   UNL d   1      61.483  47.497  49.800  0.00  0.00     0.085 A 
ATOM     15  C   UNL d   1      60.925  46.978  50.123  0.00  0.00     0.019 A 
ATOM     16  C   UNL d   1      61.165  46.211  49.960  0.00  0.00     0.002 A 
ATOM     17  C   UNL d   1      61.870  46.234  49.537  0.00  0.00     0.002 A 
ATOM     18  C   UNL d   1      62.059  47.022  49.442  0.00  0.00     0.019 A 
ENDBRANCH  12  14
ENDBRANCH  10  11
ENDBRANCH   2  10
BRANCH   1  19
ATOM     19  C   UNL d   1      58.549  49.473  50.414  0.00  0.00     0.184 A 
ATOM     20  C   UNL d   1      57.740  49.593  50.519  0.00  0.00     0.235 A 
ATOM     21  N   UNL d   1      57.386  49.610  49.769  0.00  0.00    -0.081 NA
ATOM     22  N   UNL d   1      57.348  49.681  51.239  0.00  0.00    -0.123 N 
ATOM     23  O   UNL d   1      57.978  49.501  49.205  0.00  0.00    -0.104 OA
ATOM     24  N   UNL d   1      58.701  49.415  49.604  0.00  0.00    -0.097 NA
ENDBRANCH   1  19
TORSDOF 4
ENDMDL
