MODEL 1
REMARK VINA RESULT:      -8.2      0.000      0.000
REMARK  3 active torsions:
REMARK  status: ('A' for Active; 'I' for Inactive)
REMARK    1  A    between atoms: C_2  and  C_1 
REMARK    2  A    between atoms: N_5  and  C_2 
REMARK    3  A    between atoms: C_9  and  N_5 
ROOT
ATOM      1  C   UNL d   1      53.910  32.836  54.105  0.00  0.00     0.139 C 
ATOM      2  S   UNL d   1      54.443  32.734  53.477  0.00  0.00    -0.057 SA
ENDROOT
BRANCH   1   3
ATOM      3  C   UNL d   1      53.835  33.575  54.471  0.00  0.00     0.074 A 
ATOM      4  C   UNL d   1      54.415  33.939  54.991  0.00  0.00     0.129 A 
ATOM      5  O   UNL d   1      54.101  34.701  55.237  0.00  0.00    -0.211 OA
ATOM      6  C   UNL d   1      55.133  33.615  55.210  0.00  0.00     0.029 C 
ATOM      7  N   UNL d   1      53.335  34.807  54.872  0.00  0.00    -0.125 NA
ATOM      8  C   UNL d   1      53.167  34.112  54.397  0.00  0.00     0.132 A 
ENDBRANCH   1   3
BRANCH   1   9
ATOM      9  N   UNL d   1      53.456  32.201  54.363  0.00  0.00    -0.235 NA
BRANCH   9  10
ATOM     10  C   UNL d   1      53.310  31.569  53.859  0.00  0.00     0.082 A 
ATOM     11  C   UNL d   1      52.778  31.658  53.239  0.00  0.00     0.019 A 
ATOM     12  C   UNL d   1      52.635  31.027  52.738  0.00  0.00     0.002 A 
ATOM     13  C   UNL d   1      53.017  30.315  52.853  0.00  0.00     0.000 A 
ATOM     14  C   UNL d   1      53.551  30.230  53.478  0.00  0.00     0.002 A 
ATOM     15  C   UNL d   1      53.696  30.866  53.983  0.00  0.00     0.019 A 
ENDBRANCH   9  10
ENDBRANCH   1   9
TORSDOF 3
ENDMDL
MODEL 2
REMARK VINA RESULT:      -7.9      0.570      1.204
REMARK  3 active torsions:
REMARK  status: ('A' for Active; 'I' for Inactive)
REMARK    1  A    between atoms: C_2  and  C_1 
REMARK    2  A    between atoms: N_5  and  C_2 
REMARK    3  A    between atoms: C_9  and  N_5 
ROOT
ATOM      1  C   UNL d   1      53.976  32.781  53.995  0.00  0.00     0.139 C 
ATOM      2  S   UNL d   1      54.389  32.682  53.281  0.00  0.00    -0.057 SA
ENDROOT
BRANCH   1   3
ATOM      3  C   UNL d   1      54.208  33.369  54.530  0.00  0.00     0.074 A 
ATOM      4  C   UNL d   1      53.857  34.151  54.601  0.00  0.00     0.129 A 
ATOM      5  O   UNL d   1      54.275  34.567  55.227  0.00  0.00    -0.211 OA
ATOM      6  C   UNL d   1      53.238  34.440  54.152  0.00  0.00     0.029 C 
ATOM      7  N   UNL d   1      54.878  34.048  55.540  0.00  0.00    -0.125 NA
ATOM      8  C   UNL d   1      54.840  33.305  55.111  0.00  0.00     0.132 A 
ENDBRANCH   1   3
BRANCH   1   9
ATOM      9  N   UNL d   1      53.337  32.295  54.169  0.00  0.00    -0.235 NA
BRANCH   9  10
ATOM     10  C   UNL d   1      53.255  31.573  53.785  0.00  0.00     0.082 A 
ATOM     11  C   UNL d   1      53.634  30.908  54.085  0.00  0.00     0.019 A 
ATOM     12  C   UNL d   1      53.550  30.190  53.701  0.00  0.00     0.002 A 
ATOM     13  C   UNL d   1      53.094  30.134  53.027  0.00  0.00     0.000 A 
ATOM     14  C   UNL d   1      52.715  30.805  52.729  0.00  0.00     0.002 A 
ATOM     15  C   UNL d   1      52.799  31.530  53.116  0.00  0.00     0.019 A 
ENDBRANCH   9  10
ENDBRANCH   1   9
TORSDOF 3
ENDMDL
MODEL 3
REMARK VINA RESULT:      -7.7      1.805      2.605
REMARK  3 active torsions:
REMARK  status: ('A' for Active; 'I' for Inactive)
REMARK    1  A    between atoms: C_2  and  C_1 
REMARK    2  A    between atoms: N_5  and  C_2 
REMARK    3  A    between atoms: C_9  and  N_5 
ROOT
ATOM      1  C   UNL d   1      53.195  33.452  53.980  0.00  0.00     0.139 C 
ATOM      2  S   UNL d   1      53.188  32.866  53.392  0.00  0.00    -0.057 SA
ENDROOT
BRANCH   1   3
ATOM      3  C   UNL d   1      53.835  33.508  54.503  0.00  0.00     0.074 A 
ATOM      4  C   UNL d   1      54.169  32.860  54.958  0.00  0.00     0.129 A 
ATOM      5  O   UNL d   1      54.821  33.177  55.421  0.00  0.00    -0.211 OA
ATOM      6  C   UNL d   1      53.910  32.084  54.950  0.00  0.00     0.029 C 
ATOM      7  N   UNL d   1      54.889  34.013  55.253  0.00  0.00    -0.125 NA
ATOM      8  C   UNL d   1      54.280  34.221  54.685  0.00  0.00     0.132 A 
ENDBRANCH   1   3
BRANCH   1   9
ATOM      9  N   UNL d   1      52.565  33.976  54.042  0.00  0.00    -0.235 NA
BRANCH   9  10
ATOM     10  C   UNL d   1      51.983  33.989  53.462  0.00  0.00     0.082 A 
ATOM     11  C   UNL d   1      51.270  33.603  53.593  0.00  0.00     0.019 A 
ATOM     12  C   UNL d   1      50.692  33.618  53.013  0.00  0.00     0.002 A 
ATOM     13  C   UNL d   1      50.823  34.012  52.311  0.00  0.00     0.000 A 
ATOM     14  C   UNL d   1      51.543  34.398  52.184  0.00  0.00     0.002 A 
ATOM     15  C   UNL d   1      52.125  34.384  52.768  0.00  0.00     0.019 A 
ENDBRANCH   9  10
ENDBRANCH   1   9
TORSDOF 3
ENDMDL
MODEL 4
REMARK VINA RESULT:      -7.6      1.950      2.256
REMARK  3 active torsions:
REMARK  status: ('A' for Active; 'I' for Inactive)
REMARK    1  A    between atoms: C_2  and  C_1 
REMARK    2  A    between atoms: N_5  and  C_2 
REMARK    3  A    between atoms: C_9  and  N_5 
ROOT
ATOM      1  C   UNL d   1      52.470  32.986  53.329  0.00  0.00     0.139 C 
ATOM      2  S   UNL d   1      52.896  33.054  54.039  0.00  0.00    -0.057 SA
ENDROOT
BRANCH   1   3
ATOM      3  C   UNL d   1      51.832  33.491  53.178  0.00  0.00     0.074 A 
ATOM      4  C   UNL d   1      51.888  34.318  52.950  0.00  0.00     0.129 A 
ATOM      5  O   UNL d   1      51.088  34.616  52.853  0.00  0.00    -0.211 OA
ATOM      6  C   UNL d   1      52.581  34.740  52.847  0.00  0.00     0.029 C 
ATOM      7  N   UNL d   1      50.541  33.979  53.019  0.00  0.00    -0.125 NA
ATOM      8  C   UNL d   1      50.999  33.281  53.220  0.00  0.00     0.132 A 
ENDBRANCH   1   3
BRANCH   1   9
ATOM      9  N   UNL d   1      52.685  32.416  52.778  0.00  0.00    -0.235 NA
BRANCH   9  10
ATOM     10  C   UNL d   1      52.959  31.683  53.030  0.00  0.00     0.082 A 
ATOM     11  C   UNL d   1      52.513  31.009  52.880  0.00  0.00     0.019 A 
ATOM     12  C   UNL d   1      52.789  30.281  53.132  0.00  0.00     0.002 A 
ATOM     13  C   UNL d   1      53.499  30.224  53.529  0.00  0.00     0.000 A 
ATOM     14  C   UNL d   1      53.943  30.905  53.678  0.00  0.00     0.002 A 
ATOM     15  C   UNL d   1      53.666  31.639  53.424  0.00  0.00     0.019 A 
ENDBRANCH   9  10
ENDBRANCH   1   9
TORSDOF 3
ENDMDL
MODEL 5
REMARK VINA RESULT:      -7.4      1.610      3.521
REMARK  3 active torsions:
REMARK  status: ('A' for Active; 'I' for Inactive)
REMARK    1  A    between atoms: C_2  and  C_1 
REMARK    2  A    between atoms: N_5  and  C_2 
REMARK    3  A    between atoms: C_9  and  N_5 
ROOT
ATOM      1  C   UNL d   1      53.686  31.902  53.772  0.00  0.00     0.139 C 
ATOM      2  S   UNL d   1      54.019  32.395  53.193  0.00  0.00    -0.057 SA
ENDROOT
BRANCH   1   3
ATOM      3  C   UNL d   1      53.415  31.146  53.568  0.00  0.00     0.074 A 
ATOM      4  C   UNL d   1      52.757  30.974  53.043  0.00  0.00     0.129 A 
ATOM      5  O   UNL d   1      52.680  30.119  52.996  0.00  0.00    -0.211 OA
ATOM      6  C   UNL d   1      52.292  31.526  52.660  0.00  0.00     0.029 C 
ATOM      7  N   UNL d   1      53.285  29.766  53.488  0.00  0.00    -0.125 NA
ATOM      8  C   UNL d   1      53.742  30.400  53.844  0.00  0.00     0.132 A 
ENDBRANCH   1   3
BRANCH   1   9
ATOM      9  N   UNL d   1      53.626  32.166  54.548  0.00  0.00    -0.235 NA
BRANCH   9  10
ATOM     10  C   UNL d   1      53.925  32.903  54.756  0.00  0.00     0.082 A 
ATOM     11  C   UNL d   1      53.433  33.561  54.737  0.00  0.00     0.019 A 
ATOM     12  C   UNL d   1      53.735  34.293  54.944  0.00  0.00     0.002 A 
ATOM     13  C   UNL d   1      54.515  34.370  55.167  0.00  0.00     0.000 A 
ATOM     14  C   UNL d   1      55.005  33.705  55.184  0.00  0.00     0.002 A 
ATOM     15  C   UNL d   1      54.703  32.966  54.975  0.00  0.00     0.019 A 
ENDBRANCH   9  10
ENDBRANCH   1   9
TORSDOF 3
ENDMDL
MODEL 6
REMARK VINA RESULT:      -7.4      2.233      3.227
REMARK  3 active torsions:
REMARK  status: ('A' for Active; 'I' for Inactive)
REMARK    1  A    between atoms: C_2  and  C_1 
REMARK    2  A    between atoms: N_5  and  C_2 
REMARK    3  A    between atoms: C_9  and  N_5 
ROOT
ATOM      1  C   UNL d   1      52.361  33.946  53.442  0.00  0.00     0.139 C 
ATOM      2  S   UNL d   1      52.806  34.647  53.457  0.00  0.00    -0.057 SA
ENDROOT
BRANCH   1   3
ATOM      3  C   UNL d   1      51.586  33.952  53.151  0.00  0.00     0.074 A 
ATOM      4  C   UNL d   1      51.352  34.160  52.351  0.00  0.00     0.129 A 
ATOM      5  O   UNL d   1      50.496  34.087  52.303  0.00  0.00    -0.211 OA
ATOM      6  C   UNL d   1      51.855  34.386  51.747  0.00  0.00     0.029 C 
ATOM      7  N   UNL d   1      50.205  33.836  53.068  0.00  0.00    -0.125 NA
ATOM      8  C   UNL d   1      50.877  33.752  53.595  0.00  0.00     0.132 A 
ENDBRANCH   1   3
BRANCH   1   9
ATOM      9  N   UNL d   1      52.693  33.247  53.717  0.00  0.00    -0.235 NA
BRANCH   9  10
ATOM     10  C   UNL d   1      53.430  33.256  54.080  0.00  0.00     0.082 A 
ATOM     11  C   UNL d   1      53.499  33.522  54.855  0.00  0.00     0.019 A 
ATOM     12  C   UNL d   1      54.234  33.531  55.213  0.00  0.00     0.002 A 
ATOM     13  C   UNL d   1      54.894  33.278  54.806  0.00  0.00     0.000 A 
ATOM     14  C   UNL d   1      54.820  33.012  54.027  0.00  0.00     0.002 A 
ATOM     15  C   UNL d   1      54.079  33.003  53.665  0.00  0.00     0.019 A 
ENDBRANCH   9  10
ENDBRANCH   1   9
TORSDOF 3
ENDMDL
