MODEL 1
REMARK VINA RESULT:      -7.3      0.000      0.000
REMARK  3 active torsions:
REMARK  status: ('A' for Active; 'I' for Inactive)
REMARK    1  A    between atoms: S_5  and  C_1 
REMARK    2  A    between atoms: C_11  and  S_5 
REMARK    3  A    between atoms: C_9  and  C_11 
ROOT
ATOM      1  C   UNL d   1      52.585  34.510  53.683  0.00  0.00     0.068 A 
ATOM      2  C   UNL d   1      53.099  34.840  54.236  0.00  0.00     0.068 A 
ATOM      3  C   UNL d   1      52.547  33.695  53.590  0.00  0.00     0.013 A 
ATOM      4  C   UNL d   1      53.575  34.349  54.697  0.00  0.00     0.012 A 
ATOM      5  C   UNL d   1      53.020  33.211  54.049  0.00  0.00     0.007 A 
ATOM      6 CL   UNL d   1      52.104  35.001  53.217  0.00  0.00    -0.082 Cl
ATOM      7 CL   UNL d   1      53.142  35.660  54.334  0.00  0.00    -0.082 Cl
ATOM      8  C   UNL d   1      53.537  33.533  54.605  0.00  0.00     0.001 A 
ENDROOT
BRANCH   5   9
ATOM      9  C   UNL d   1      52.983  32.390  53.956  0.00  0.00     0.038 C 
BRANCH   9  10
ATOM     10  S   UNL d   1      53.439  31.937  53.428  0.00  0.00    -0.048 SA
BRANCH  10  11
ATOM     11  C   UNL d   1      53.285  31.121  53.343  0.00  0.00     0.194 A 
ATOM     12  N   UNL d   1      53.552  30.521  53.843  0.00  0.00    -0.218 NA
ATOM     13  C   UNL d   1      53.270  29.797  53.553  0.00  0.00     0.122 A 
ATOM     14  C   UNL d   1      52.825  29.953  52.869  0.00  0.00     0.122 A 
ATOM     15  N   UNL d   1      52.836  30.770  52.742  0.00  0.00    -0.218 NA
ENDBRANCH  10  11
ENDBRANCH   9  10
ENDBRANCH   5   9
TORSDOF 3
ENDMDL
MODEL 2
REMARK VINA RESULT:      -7.1      2.587      3.270
REMARK  3 active torsions:
REMARK  status: ('A' for Active; 'I' for Inactive)
REMARK    1  A    between atoms: S_5  and  C_1 
REMARK    2  A    between atoms: C_11  and  S_5 
REMARK    3  A    between atoms: C_9  and  C_11 
ROOT
ATOM      1  C   UNL d   1      54.299  33.123  54.037  0.00  0.00     0.068 A 
ATOM      2  C   UNL d   1      54.433  33.556  54.725  0.00  0.00     0.068 A 
ATOM      3  C   UNL d   1      53.576  33.178  53.650  0.00  0.00     0.013 A 
ATOM      4  C   UNL d   1      53.840  34.044  55.024  0.00  0.00     0.012 A 
ATOM      5  C   UNL d   1      52.991  33.663  53.949  0.00  0.00     0.007 A 
ATOM      6 CL   UNL d   1      54.894  32.631  53.732  0.00  0.00    -0.082 Cl
ATOM      7 CL   UNL d   1      55.158  33.505  55.119  0.00  0.00    -0.082 Cl
ATOM      8  C   UNL d   1      53.117  34.099  54.637  0.00  0.00     0.001 A 
ENDROOT
BRANCH   5   9
ATOM      9  C   UNL d   1      52.263  33.718  53.560  0.00  0.00     0.038 C 
BRANCH   9  10
ATOM     10  S   UNL d   1      51.985  34.378  53.136  0.00  0.00    -0.048 SA
BRANCH  10  11
ATOM     11  C   UNL d   1      51.250  34.337  52.742  0.00  0.00     0.194 A 
ATOM     12  N   UNL d   1      51.137  34.189  51.938  0.00  0.00    -0.218 NA
ATOM     13  C   UNL d   1      50.322  34.198  51.785  0.00  0.00     0.122 A 
ATOM     14  C   UNL d   1      49.931  34.353  52.501  0.00  0.00     0.122 A 
ATOM     15  N   UNL d   1      50.505  34.438  53.089  0.00  0.00    -0.218 NA
ENDBRANCH  10  11
ENDBRANCH   9  10
ENDBRANCH   5   9
TORSDOF 3
ENDMDL
MODEL 3
REMARK VINA RESULT:      -6.9      2.595      4.021
REMARK  3 active torsions:
REMARK  status: ('A' for Active; 'I' for Inactive)
REMARK    1  A    between atoms: S_5  and  C_1 
REMARK    2  A    between atoms: C_11  and  S_5 
REMARK    3  A    between atoms: C_9  and  C_11 
ROOT
ATOM      1  C   UNL d   1      53.506  30.638  53.609  0.00  0.00     0.068 A 
ATOM      2  C   UNL d   1      52.926  30.421  53.066  0.00  0.00     0.068 A 
ATOM      3  C   UNL d   1      53.620  31.430  53.796  0.00  0.00     0.013 A 
ATOM      4  C   UNL d   1      52.460  31.001  52.710  0.00  0.00     0.012 A 
ATOM      5  C   UNL d   1      53.156  32.002  53.441  0.00  0.00     0.007 A 
ATOM      6 CL   UNL d   1      53.977  30.057  53.969  0.00  0.00    -0.082 Cl
ATOM      7 CL   UNL d   1      52.806  29.625  52.873  0.00  0.00    -0.082 Cl
ATOM      8  C   UNL d   1      52.574  31.793  52.897  0.00  0.00     0.001 A 
ENDROOT
BRANCH   5   9
ATOM      9  C   UNL d   1      53.270  32.799  53.629  0.00  0.00     0.038 C 
BRANCH   9  10
ATOM     10  S   UNL d   1      52.671  33.351  53.798  0.00  0.00    -0.048 SA
BRANCH  10  11
ATOM     11  C   UNL d   1      52.877  34.117  54.062  0.00  0.00     0.194 A 
ATOM     12  N   UNL d   1      53.168  34.311  54.809  0.00  0.00    -0.218 NA
ATOM     13  C   UNL d   1      53.296  35.130  54.832  0.00  0.00     0.122 A 
ATOM     14  C   UNL d   1      53.081  35.442  54.093  0.00  0.00     0.122 A 
ATOM     15  N   UNL d   1      52.823  34.815  53.620  0.00  0.00    -0.218 NA
ENDBRANCH  10  11
ENDBRANCH   9  10
ENDBRANCH   5   9
TORSDOF 3
ENDMDL
MODEL 4
REMARK VINA RESULT:      -6.7      2.351      3.041
REMARK  3 active torsions:
REMARK  status: ('A' for Active; 'I' for Inactive)
REMARK    1  A    between atoms: S_5  and  C_1 
REMARK    2  A    between atoms: C_11  and  S_5 
REMARK    3  A    between atoms: C_9  and  C_11 
ROOT
ATOM      1  C   UNL d   1      51.309  34.214  52.122  0.00  0.00     0.068 A 
ATOM      2  C   UNL d   1      50.580  34.142  52.500  0.00  0.00     0.068 A 
ATOM      3  C   UNL d   1      52.002  34.032  52.525  0.00  0.00     0.013 A 
ATOM      4  C   UNL d   1      50.548  33.886  53.284  0.00  0.00     0.012 A 
ATOM      5  C   UNL d   1      51.966  33.779  53.301  0.00  0.00     0.007 A 
ATOM      6 CL   UNL d   1      51.345  34.470  51.333  0.00  0.00    -0.082 Cl
ATOM      7 CL   UNL d   1      49.879  34.323  52.101  0.00  0.00    -0.082 Cl
ATOM      8  C   UNL d   1      51.241  33.704  53.687  0.00  0.00     0.001 A 
ENDROOT
BRANCH   5   9
ATOM      9  C   UNL d   1      52.663  33.596  53.707  0.00  0.00     0.038 C 
BRANCH   9  10
ATOM     10  S   UNL d   1      52.956  33.992  54.378  0.00  0.00    -0.048 SA
BRANCH  10  11
ATOM     11  C   UNL d   1      53.684  33.756  54.713  0.00  0.00     0.194 A 
ATOM     12  N   UNL d   1      53.859  33.010  55.019  0.00  0.00    -0.218 NA
ATOM     13  C   UNL d   1      54.641  33.019  55.293  0.00  0.00     0.122 A 
ATOM     14  C   UNL d   1      54.949  33.778  55.155  0.00  0.00     0.122 A 
ATOM     15  N   UNL d   1      54.357  34.230  54.797  0.00  0.00    -0.218 NA
ENDBRANCH  10  11
ENDBRANCH   9  10
ENDBRANCH   5   9
TORSDOF 3
ENDMDL
MODEL 5
REMARK VINA RESULT:      -4.8      9.644      9.921
REMARK  3 active torsions:
REMARK  status: ('A' for Active; 'I' for Inactive)
REMARK    1  A    between atoms: S_5  and  C_1 
REMARK    2  A    between atoms: C_11  and  S_5 
REMARK    3  A    between atoms: C_9  and  C_11 
ROOT
ATOM      1  C   UNL d   1      44.545  30.738  56.750  0.00  0.00     0.068 A 
ATOM      2  C   UNL d   1      44.712  31.297  57.331  0.00  0.00     0.068 A 
ATOM      3  C   UNL d   1      44.560  29.937  56.933  0.00  0.00     0.013 A 
ATOM      4  C   UNL d   1      44.895  31.051  58.097  0.00  0.00     0.012 A 
ATOM      5  C   UNL d   1      44.742  29.696  57.692  0.00  0.00     0.007 A 
ATOM      6 CL   UNL d   1      44.361  30.982  55.978  0.00  0.00    -0.082 Cl
ATOM      7 CL   UNL d   1      44.699  32.105  57.154  0.00  0.00    -0.082 Cl
ATOM      8  C   UNL d   1      44.910  30.250  58.280  0.00  0.00     0.001 A 
ENDROOT
BRANCH   5   9
ATOM      9  C   UNL d   1      44.757  28.891  57.877  0.00  0.00     0.038 C 
BRANCH   9  10
ATOM     10  S   UNL d   1      45.142  28.547  58.529  0.00  0.00    -0.048 SA
BRANCH  10  11
ATOM     11  C   UNL d   1      45.092  27.722  58.653  0.00  0.00     0.194 A 
ATOM     12  N   UNL d   1      44.642  27.344  59.232  0.00  0.00    -0.218 NA
ATOM     13  C   UNL d   1      44.755  26.526  59.154  0.00  0.00     0.122 A 
ATOM     14  C   UNL d   1      45.279  26.401  58.522  0.00  0.00     0.122 A 
ATOM     15  N   UNL d   1      45.485  27.139  58.214  0.00  0.00    -0.218 NA
ENDBRANCH  10  11
ENDBRANCH   9  10
ENDBRANCH   5   9
TORSDOF 3
ENDMDL
MODEL 6
REMARK VINA RESULT:      -4.8     10.342     10.943
REMARK  3 active torsions:
REMARK  status: ('A' for Active; 'I' for Inactive)
REMARK    1  A    between atoms: S_5  and  C_1 
REMARK    2  A    between atoms: C_11  and  S_5 
REMARK    3  A    between atoms: C_9  and  C_11 
ROOT
ATOM      1  C   UNL d   1      45.248  27.740  58.079  0.00  0.00     0.068 A 
ATOM      2  C   UNL d   1      45.202  28.008  57.301  0.00  0.00     0.068 A 
ATOM      3  C   UNL d   1      45.053  28.241  58.700  0.00  0.00     0.013 A 
ATOM      4  C   UNL d   1      44.960  28.782  57.148  0.00  0.00     0.012 A 
ATOM      5  C   UNL d   1      44.814  29.007  58.545  0.00  0.00     0.007 A 
ATOM      6 CL   UNL d   1      45.492  26.962  58.237  0.00  0.00    -0.082 Cl
ATOM      7 CL   UNL d   1      45.397  27.509  56.672  0.00  0.00    -0.082 Cl
ATOM      8  C   UNL d   1      44.765  29.283  57.769  0.00  0.00     0.001 A 
ENDROOT
BRANCH   5   9
ATOM      9  C   UNL d   1      44.617  29.512  59.169  0.00  0.00     0.038 C 
BRANCH   9  10
ATOM     10  S   UNL d   1      45.090  30.130  59.464  0.00  0.00    -0.048 SA
BRANCH  10  11
ATOM     11  C   UNL d   1      44.860  30.530  60.161  0.00  0.00     0.194 A 
ATOM     12  N   UNL d   1      45.040  30.303  60.933  0.00  0.00    -0.218 NA
ATOM     13  C   UNL d   1      44.703  30.857  61.451  0.00  0.00     0.122 A 
ATOM     14  C   UNL d   1      44.314  31.429  60.992  0.00  0.00     0.122 A 
ATOM     15  N   UNL d   1      44.412  31.226  60.197  0.00  0.00    -0.218 NA
ENDBRANCH  10  11
ENDBRANCH   9  10
ENDBRANCH   5   9
TORSDOF 3
ENDMDL
