MODEL 1
REMARK VINA RESULT:      -8.1      0.000      0.000
REMARK  4 active torsions:
REMARK  status: ('A' for Active; 'I' for Inactive)
REMARK    1  A    between atoms: C_10  and  N_1 
REMARK       I    between atoms: C_6  and  N_9 
REMARK    2  A    between atoms: C_8  and  C_6 
REMARK    3  A    between atoms: N_9  and  C_12 
REMARK    4  A    between atoms: C_12  and  C_10 
ROOT
ATOM      1  C   UNL d   1     -48.720  12.508  22.077  0.00  0.00     0.101 C 
ENDROOT
BRANCH   1   2
ATOM      2  N   UNL d   1     -48.124  12.384  22.635  0.00  0.00    -0.304 N 
ATOM      3  C   UNL d   1     -48.171  11.882  23.291  0.00  0.00     0.064 A 
ATOM      4  C   UNL d   1     -47.457  11.925  23.698  0.00  0.00     0.019 A 
ATOM      5  C   UNL d   1     -48.820  11.419  23.500  0.00  0.00     0.019 C 
ATOM      6  C   UNL d   1     -46.963  12.452  23.300  0.00  0.00     0.018 A 
ATOM      7  C   UNL d   1     -47.373  12.738  22.643  0.00  0.00     0.064 A 
ATOM      8  C   UNL d   1     -46.197  12.715  23.441  0.00  0.00     0.002 A 
ATOM      9  C   UNL d   1     -47.024  13.278  22.131  0.00  0.00     0.018 A 
ATOM     10  C   UNL d   1     -46.258  13.541  22.272  0.00  0.00     0.002 A 
ATOM     11  C   UNL d   1     -45.831  13.262  22.933  0.00  0.00     0.000 A 
ENDBRANCH   1   2
BRANCH   1  12
ATOM     12  C   UNL d   1     -49.279  13.101  22.199  0.00  0.00     0.121 C 
BRANCH  12  13
ATOM     13  N   UNL d   1     -49.889  13.207  21.653  0.00  0.00    -0.205 NA
ATOM     14  C   UNL d   1     -50.419  13.832  21.739  0.00  0.00     0.279 C 
ATOM     15  O   UNL d   1     -51.029  13.938  21.194  0.00  0.00    -0.265 OA
BRANCH  14  16
ATOM     16  C   UNL d   1     -50.337  14.355  22.377  0.00  0.00     0.058 A 
ATOM     17  C   UNL d   1     -50.744  14.216  23.059  0.00  0.00     0.005 A 
ATOM     18  C   UNL d   1     -50.667  14.733  23.698  0.00  0.00     0.000 A 
ATOM     19  C   UNL d   1     -50.181  15.393  23.655  0.00  0.00     0.000 A 
ATOM     20  C   UNL d   1     -49.759  15.535  22.945  0.00  0.00     0.000 A 
ATOM     21  C   UNL d   1     -49.841  15.011  22.306  0.00  0.00     0.005 A 
ENDBRANCH  14  16
ENDBRANCH  12  13
ENDBRANCH   1  12
TORSDOF 4
ENDMDL
MODEL 2
REMARK VINA RESULT:      -7.6      1.171      2.235
REMARK  4 active torsions:
REMARK  status: ('A' for Active; 'I' for Inactive)
REMARK    1  A    between atoms: C_10  and  N_1 
REMARK       I    between atoms: C_6  and  N_9 
REMARK    2  A    between atoms: C_8  and  C_6 
REMARK    3  A    between atoms: N_9  and  C_12 
REMARK    4  A    between atoms: C_12  and  C_10 
ROOT
ATOM      1  C   UNL d   1     -47.903  14.058  23.407  0.00  0.00     0.101 C 
ENDROOT
BRANCH   1   2
ATOM      2  N   UNL d   1     -47.218  13.657  23.183  0.00  0.00    -0.304 N 
ATOM      3  C   UNL d   1     -46.564  13.990  22.798  0.00  0.00     0.064 A 
ATOM      4  C   UNL d   1     -46.007  13.397  22.680  0.00  0.00     0.019 A 
ATOM      5  C   UNL d   1     -46.487  14.780  22.573  0.00  0.00     0.019 C 
ATOM      6  C   UNL d   1     -46.307  12.693  22.989  0.00  0.00     0.018 A 
ATOM      7  C   UNL d   1     -47.055  12.851  23.300  0.00  0.00     0.064 A 
ATOM      8  C   UNL d   1     -46.007  11.929  23.032  0.00  0.00     0.002 A 
ATOM      9  C   UNL d   1     -47.500  12.256  23.651  0.00  0.00     0.018 A 
ATOM     10  C   UNL d   1     -47.200  11.492  23.694  0.00  0.00     0.002 A 
ATOM     11  C   UNL d   1     -46.446  11.316  23.383  0.00  0.00     0.000 A 
ENDBRANCH   1   2
BRANCH   1  12
ATOM     12  C   UNL d   1     -48.532  14.123  22.878  0.00  0.00     0.121 C 
BRANCH  12  13
ATOM     13  N   UNL d   1     -49.016  14.791  22.897  0.00  0.00    -0.205 NA
ATOM     14  C   UNL d   1     -49.773  14.765  22.574  0.00  0.00     0.279 C 
ATOM     15  O   UNL d   1     -50.257  15.433  22.592  0.00  0.00    -0.265 OA
BRANCH  14  16
ATOM     16  C   UNL d   1     -50.048  14.063  22.228  0.00  0.00     0.058 A 
ATOM     17  C   UNL d   1     -49.870  13.905  21.458  0.00  0.00     0.005 A 
ATOM     18  C   UNL d   1     -50.141  13.207  21.108  0.00  0.00     0.000 A 
ATOM     19  C   UNL d   1     -50.592  12.667  21.530  0.00  0.00     0.000 A 
ATOM     20  C   UNL d   1     -50.774  12.835  22.330  0.00  0.00     0.000 A 
ATOM     21  C   UNL d   1     -50.499  13.537  22.676  0.00  0.00     0.005 A 
ENDBRANCH  14  16
ENDBRANCH  12  13
ENDBRANCH   1  12
TORSDOF 4
ENDMDL
MODEL 3
REMARK VINA RESULT:      -6.9      1.640      4.025
REMARK  4 active torsions:
REMARK  status: ('A' for Active; 'I' for Inactive)
REMARK    1  A    between atoms: C_10  and  N_1 
REMARK       I    between atoms: C_6  and  N_9 
REMARK    2  A    between atoms: C_8  and  C_6 
REMARK    3  A    between atoms: N_9  and  C_12 
REMARK    4  A    between atoms: C_12  and  C_10 
ROOT
ATOM      1  C   UNL d   1     -48.591  14.690  22.186  0.00  0.00     0.101 C 
ENDROOT
BRANCH   1   2
ATOM      2  N   UNL d   1     -49.348  14.467  22.427  0.00  0.00    -0.304 N 
ATOM      3  C   UNL d   1     -49.804  14.845  23.006  0.00  0.00     0.064 A 
ATOM      4  C   UNL d   1     -50.519  14.444  23.070  0.00  0.00     0.019 A 
ATOM      5  C   UNL d   1     -49.579  15.508  23.441  0.00  0.00     0.019 C 
ATOM      6  C   UNL d   1     -50.514  13.816  22.535  0.00  0.00     0.018 A 
ATOM      7  C   UNL d   1     -49.791  13.828  22.136  0.00  0.00     0.064 A 
ATOM      8  C   UNL d   1     -51.064  13.233  22.352  0.00  0.00     0.002 A 
ATOM      9  C   UNL d   1     -49.618  13.267  21.561  0.00  0.00     0.018 A 
ATOM     10  C   UNL d   1     -50.168  12.684  21.378  0.00  0.00     0.002 A 
ATOM     11  C   UNL d   1     -50.902  12.658  21.773  0.00  0.00     0.000 A 
ENDBRANCH   1   2
BRANCH   1  12
ATOM     12  C   UNL d   1     -47.930  14.358  22.551  0.00  0.00     0.121 C 
BRANCH  12  13
ATOM     13  N   UNL d   1     -47.235  14.797  22.617  0.00  0.00    -0.205 NA
ATOM     14  C   UNL d   1     -46.520  14.421  22.779  0.00  0.00     0.279 C 
ATOM     15  O   UNL d   1     -45.825  14.860  22.846  0.00  0.00    -0.265 OA
BRANCH  14  16
ATOM     16  C   UNL d   1     -46.502  13.597  22.875  0.00  0.00     0.058 A 
ATOM     17  C   UNL d   1     -46.280  13.131  22.256  0.00  0.00     0.005 A 
ATOM     18  C   UNL d   1     -46.259  12.310  22.344  0.00  0.00     0.000 A 
ATOM     19  C   UNL d   1     -46.462  11.955  23.056  0.00  0.00     0.000 A 
ATOM     20  C   UNL d   1     -46.691  12.442  23.697  0.00  0.00     0.000 A 
ATOM     21  C   UNL d   1     -46.710  13.266  23.601  0.00  0.00     0.005 A 
ENDBRANCH  14  16
ENDBRANCH  12  13
ENDBRANCH   1  12
TORSDOF 4
ENDMDL
MODEL 4
REMARK VINA RESULT:      -6.5      1.555      2.202
REMARK  4 active torsions:
REMARK  status: ('A' for Active; 'I' for Inactive)
REMARK    1  A    between atoms: C_10  and  N_1 
REMARK       I    between atoms: C_6  and  N_9 
REMARK    2  A    between atoms: C_8  and  C_6 
REMARK    3  A    between atoms: N_9  and  C_12 
REMARK    4  A    between atoms: C_12  and  C_10 
ROOT
ATOM      1  C   UNL d   1     -48.160  12.928  23.697  0.00  0.00     0.101 C 
ENDROOT
BRANCH   1   2
ATOM      2  N   UNL d   1     -47.443  13.159  23.359  0.00  0.00    -0.304 N 
ATOM      3  C   UNL d   1     -46.761  12.694  23.303  0.00  0.00     0.064 A 
ATOM      4  C   UNL d   1     -46.178  13.137  22.929  0.00  0.00     0.019 A 
ATOM      5  C   UNL d   1     -46.681  11.920  23.576  0.00  0.00     0.019 C 
ATOM      6  C   UNL d   1     -46.491  13.879  22.750  0.00  0.00     0.018 A 
ATOM      7  C   UNL d   1     -47.273  13.895  23.014  0.00  0.00     0.064 A 
ATOM      8  C   UNL d   1     -46.178  14.544  22.383  0.00  0.00     0.002 A 
ATOM      9  C   UNL d   1     -47.738  14.566  22.915  0.00  0.00     0.018 A 
ATOM     10  C   UNL d   1     -47.424  15.231  22.547  0.00  0.00     0.002 A 
ATOM     11  C   UNL d   1     -46.636  15.230  22.275  0.00  0.00     0.000 A 
ENDBRANCH   1   2
BRANCH   1  12
ATOM     12  C   UNL d   1     -48.763  12.635  23.218  0.00  0.00     0.121 C 
BRANCH  12  13
ATOM     13  N   UNL d   1     -49.190  11.970  23.457  0.00  0.00    -0.205 NA
ATOM     14  C   UNL d   1     -49.928  11.811  23.130  0.00  0.00     0.279 C 
ATOM     15  O   UNL d   1     -50.355  11.146  23.369  0.00  0.00    -0.265 OA
BRANCH  14  16
ATOM     16  C   UNL d   1     -50.243  12.322  22.558  0.00  0.00     0.058 A 
ATOM     17  C   UNL d   1     -50.688  12.952  22.791  0.00  0.00     0.005 A 
ATOM     18  C   UNL d   1     -51.005  13.465  22.226  0.00  0.00     0.000 A 
ATOM     19  C   UNL d   1     -50.875  13.346  21.424  0.00  0.00     0.000 A 
ATOM     20  C   UNL d   1     -50.413  12.690  21.186  0.00  0.00     0.000 A 
ATOM     21  C   UNL d   1     -50.098  12.178  21.758  0.00  0.00     0.005 A 
ENDBRANCH  14  16
ENDBRANCH  12  13
ENDBRANCH   1  12
TORSDOF 4
ENDMDL
MODEL 5
REMARK VINA RESULT:      -6.3      8.522     10.288
REMARK  4 active torsions:
REMARK  status: ('A' for Active; 'I' for Inactive)
REMARK    1  A    between atoms: C_10  and  N_1 
REMARK       I    between atoms: C_6  and  N_9 
REMARK    2  A    between atoms: C_8  and  C_6 
REMARK    3  A    between atoms: N_9  and  C_12 
REMARK    4  A    between atoms: C_12  and  C_10 
ROOT
ATOM      1  C   UNL d   1     -40.587  14.160  18.330  0.00  0.00     0.101 C 
ENDROOT
BRANCH   1   2
ATOM      2  N   UNL d   1     -40.089  14.383  17.711  0.00  0.00    -0.304 N 
ATOM      3  C   UNL d   1     -40.159  15.071  17.255  0.00  0.00     0.064 A 
ATOM      4  C   UNL d   1     -39.551  15.075  16.702  0.00  0.00     0.019 A 
ATOM      5  C   UNL d   1     -40.740  15.650  17.341  0.00  0.00     0.019 C 
ATOM      6  C   UNL d   1     -39.098  14.393  16.809  0.00  0.00     0.018 A 
ATOM      7  C   UNL d   1     -39.428  13.964  17.432  0.00  0.00     0.064 A 
ATOM      8  C   UNL d   1     -38.431  14.100  16.428  0.00  0.00     0.002 A 
ATOM      9  C   UNL d   1     -39.099  13.251  17.674  0.00  0.00     0.018 A 
ATOM     10  C   UNL d   1     -38.432  12.958  17.293  0.00  0.00     0.002 A 
ATOM     11  C   UNL d   1     -38.086  13.380  16.662  0.00  0.00     0.000 A 
ENDBRANCH   1   2
BRANCH   1  12
ATOM     12  C   UNL d   1     -40.434  14.424  19.095  0.00  0.00     0.121 C 
BRANCH  12  13
ATOM     13  N   UNL d   1     -40.985  14.286  19.694  0.00  0.00    -0.205 NA
ATOM     14  C   UNL d   1     -40.803  14.469  20.476  0.00  0.00     0.279 C 
ATOM     15  O   UNL d   1     -41.353  14.332  21.075  0.00  0.00    -0.265 OA
BRANCH  14  16
ATOM     16  C   UNL d   1     -40.062  14.793  20.661  0.00  0.00     0.058 A 
ATOM     17  C   UNL d   1     -39.963  15.593  20.641  0.00  0.00     0.005 A 
ATOM     18  C   UNL d   1     -39.228  15.922  20.824  0.00  0.00     0.000 A 
ATOM     19  C   UNL d   1     -38.589  15.448  21.027  0.00  0.00     0.000 A 
ATOM     20  C   UNL d   1     -38.695  14.618  21.046  0.00  0.00     0.000 A 
ATOM     21  C   UNL d   1     -39.437  14.293  20.862  0.00  0.00     0.005 A 
ENDBRANCH  14  16
ENDBRANCH  12  13
ENDBRANCH   1  12
TORSDOF 4
ENDMDL
MODEL 6
REMARK VINA RESULT:      -5.9      8.535      9.982
REMARK  4 active torsions:
REMARK  status: ('A' for Active; 'I' for Inactive)
REMARK    1  A    between atoms: C_10  and  N_1 
REMARK       I    between atoms: C_6  and  N_9 
REMARK    2  A    between atoms: C_8  and  C_6 
REMARK    3  A    between atoms: N_9  and  C_12 
REMARK    4  A    between atoms: C_12  and  C_10 
ROOT
ATOM      1  C   UNL d   1     -40.587  14.331  20.215  0.00  0.00     0.101 C 
ENDROOT
BRANCH   1   2
ATOM      2  N   UNL d   1     -40.266  14.756  20.845  0.00  0.00    -0.304 N 
ATOM      3  C   UNL d   1     -40.533  15.490  21.122  0.00  0.00     0.064 A 
ATOM      4  C   UNL d   1     -40.058  15.713  21.755  0.00  0.00     0.019 A 
ATOM      5  C   UNL d   1     -41.165  15.920  20.816  0.00  0.00     0.019 C 
ATOM      6  C   UNL d   1     -39.493  15.123  21.877  0.00  0.00     0.018 A 
ATOM      7  C   UNL d   1     -39.620  14.531  21.316  0.00  0.00     0.064 A 
ATOM      8  C   UNL d   1     -38.881  15.039  22.419  0.00  0.00     0.002 A 
ATOM      9  C   UNL d   1     -39.142  13.862  21.294  0.00  0.00     0.018 A 
ATOM     10  C   UNL d   1     -38.530  13.778  21.836  0.00  0.00     0.002 A 
ATOM     11  C   UNL d   1     -38.390  14.368  22.409  0.00  0.00     0.000 A 
ENDBRANCH   1   2
BRANCH   1  12
ATOM     12  C   UNL d   1     -40.334  14.484  19.446  0.00  0.00     0.121 C 
BRANCH  12  13
ATOM     13  N   UNL d   1     -40.766  14.191  18.807  0.00  0.00    -0.205 NA
ATOM     14  C   UNL d   1     -40.460  14.236  18.044  0.00  0.00     0.279 C 
ATOM     15  O   UNL d   1     -40.892  13.943  17.405  0.00  0.00    -0.265 OA
BRANCH  14  16
ATOM     16  C   UNL d   1     -39.715  14.577  17.919  0.00  0.00     0.058 A 
ATOM     17  C   UNL d   1     -39.059  14.109  17.928  0.00  0.00     0.005 A 
ATOM     18  C   UNL d   1     -38.313  14.442  17.804  0.00  0.00     0.000 A 
ATOM     19  C   UNL d   1     -38.225  15.248  17.671  0.00  0.00     0.000 A 
ATOM     20  C   UNL d   1     -38.909  15.731  17.663  0.00  0.00     0.000 A 
ATOM     21  C   UNL d   1     -39.655  15.389  17.788  0.00  0.00     0.005 A 
ENDBRANCH  14  16
ENDBRANCH  12  13
ENDBRANCH   1  12
TORSDOF 4
ENDMDL
MODEL 7
REMARK VINA RESULT:      -5.6      8.482     10.521
REMARK  4 active torsions:
REMARK  status: ('A' for Active; 'I' for Inactive)
REMARK    1  A    between atoms: C_10  and  N_1 
REMARK       I    between atoms: C_6  and  N_9 
REMARK    2  A    between atoms: C_8  and  C_6 
REMARK    3  A    between atoms: N_9  and  C_12 
REMARK    4  A    between atoms: C_12  and  C_10 
ROOT
ATOM      1  C   UNL d   1     -38.368  15.230  18.998  0.00  0.00     0.101 C 
ENDROOT
BRANCH   1   2
ATOM      2  N   UNL d   1     -38.615  14.796  18.341  0.00  0.00    -0.304 N 
ATOM      3  C   UNL d   1     -39.059  15.087  17.706  0.00  0.00     0.064 A 
ATOM      4  C   UNL d   1     -39.182  14.471  17.176  0.00  0.00     0.019 A 
ATOM      5  C   UNL d   1     -39.331  15.861  17.622  0.00  0.00     0.019 C 
ATOM      6  C   UNL d   1     -38.817  13.794  17.474  0.00  0.00     0.018 A 
ATOM      7  C   UNL d   1     -38.465  13.992  18.195  0.00  0.00     0.064 A 
ATOM      8  C   UNL d   1     -38.753  13.023  17.194  0.00  0.00     0.002 A 
ATOM      9  C   UNL d   1     -38.055  13.430  18.632  0.00  0.00     0.018 A 
ATOM     10  C   UNL d   1     -37.991  12.660  18.352  0.00  0.00     0.002 A 
ATOM     11  C   UNL d   1     -38.341  12.444  17.626  0.00  0.00     0.000 A 
ENDBRANCH   1   2
BRANCH   1  12
ATOM     12  C   UNL d   1     -38.845  15.267  19.668  0.00  0.00     0.121 C 
BRANCH  12  13
ATOM     13  N   UNL d   1     -38.541  15.571  20.372  0.00  0.00    -0.205 NA
ATOM     14  C   UNL d   1     -39.015  15.618  21.044  0.00  0.00     0.279 C 
ATOM     15  O   UNL d   1     -38.710  15.922  21.748  0.00  0.00    -0.265 OA
BRANCH  14  16
ATOM     16  C   UNL d   1     -39.801  15.358  21.011  0.00  0.00     0.058 A 
ATOM     17  C   UNL d   1     -39.970  14.585  21.169  0.00  0.00     0.005 A 
ATOM     18  C   UNL d   1     -40.752  14.320  21.137  0.00  0.00     0.000 A 
ATOM     19  C   UNL d   1     -41.366  14.830  20.947  0.00  0.00     0.000 A 
ATOM     20  C   UNL d   1     -41.187  15.631  20.784  0.00  0.00     0.000 A 
ATOM     21  C   UNL d   1     -40.400  15.892  20.817  0.00  0.00     0.005 A 
ENDBRANCH  14  16
ENDBRANCH  12  13
ENDBRANCH   1  12
TORSDOF 4
ENDMDL
MODEL 8
REMARK VINA RESULT:      -5.1      9.549     10.721
REMARK  4 active torsions:
REMARK  status: ('A' for Active; 'I' for Inactive)
REMARK    1  A    between atoms: C_10  and  N_1 
REMARK       I    between atoms: C_6  and  N_9 
REMARK    2  A    between atoms: C_8  and  C_6 
REMARK    3  A    between atoms: N_9  and  C_12 
REMARK    4  A    between atoms: C_12  and  C_10 
ROOT
ATOM      1  C   UNL d   1     -39.385  13.858  18.377  0.00  0.00     0.101 C 
ENDROOT
BRANCH   1   2
ATOM      2  N   UNL d   1     -39.422  14.352  17.717  0.00  0.00    -0.304 N 
ATOM      3  C   UNL d   1     -38.833  14.439  17.142  0.00  0.00     0.064 A 
ATOM      4  C   UNL d   1     -39.097  14.984  16.586  0.00  0.00     0.019 A 
ATOM      5  C   UNL d   1     -38.108  14.048  17.131  0.00  0.00     0.019 C 
ATOM      6  C   UNL d   1     -39.849  15.240  16.809  0.00  0.00     0.018 A 
ATOM      7  C   UNL d   1     -40.053  14.850  17.508  0.00  0.00     0.064 A 
ATOM      8  C   UNL d   1     -40.380  15.772  16.476  0.00  0.00     0.002 A 
ATOM      9  C   UNL d   1     -40.777  14.988  17.872  0.00  0.00     0.018 A 
ATOM     10  C   UNL d   1     -41.308  15.520  17.539  0.00  0.00     0.002 A 
ATOM     11  C   UNL d   1     -41.116  15.922  16.833  0.00  0.00     0.000 A 
ENDBRANCH   1   2
BRANCH   1  12
ATOM     12  C   UNL d   1     -39.021  14.122  19.068  0.00  0.00     0.121 C 
BRANCH  12  13
ATOM     13  N   UNL d   1     -38.654  13.581  19.570  0.00  0.00    -0.205 NA
ATOM     14  C   UNL d   1     -38.554  13.757  20.369  0.00  0.00     0.279 C 
ATOM     15  O   UNL d   1     -38.186  13.216  20.871  0.00  0.00    -0.265 OA
BRANCH  14  16
ATOM     16  C   UNL d   1     -38.825  14.482  20.667  0.00  0.00     0.058 A 
ATOM     17  C   UNL d   1     -39.547  14.518  21.023  0.00  0.00     0.005 A 
ATOM     18  C   UNL d   1     -39.824  15.237  21.322  0.00  0.00     0.000 A 
ATOM     19  C   UNL d   1     -39.375  15.922  21.264  0.00  0.00     0.000 A 
ATOM     20  C   UNL d   1     -38.625  15.880  20.893  0.00  0.00     0.000 A 
ATOM     21  C   UNL d   1     -38.353  15.155  20.595  0.00  0.00     0.005 A 
ENDBRANCH  14  16
ENDBRANCH  12  13
ENDBRANCH   1  12
TORSDOF 4
ENDMDL
