MODEL 1
REMARK VINA RESULT:      30.9      0.000      0.000
REMARK  5 active torsions:
REMARK  status: ('A' for Active; 'I' for Inactive)
REMARK    1  A    between atoms: C_11  and  N_1 
REMARK    2  A    between atoms: S_10  and  C_2 
REMARK    3  A    between atoms: S_3  and  C_12 
REMARK    4  A    between atoms: C_13  and  C_11 
REMARK    5  A    between atoms: C_12  and  C_13 
ROOT
ATOM      1  N   UNL d   1      58.354  49.531  50.245  0.00  0.00    -0.295 N 
ATOM      2  C   UNL d   1      58.176  49.603  49.448  0.00  0.00     0.121 A 
ATOM      3  S   UNL d   1      57.361  49.671  49.360  0.00  0.00    -0.062 SA
ATOM      4  C   UNL d   1      57.643  49.554  50.663  0.00  0.00     0.071 A 
ATOM      5  C   UNL d   1      57.023  49.641  50.110  0.00  0.00     0.047 A 
ATOM      6  C   UNL d   1      57.475  49.507  51.470  0.00  0.00     0.018 A 
ATOM      7  C   UNL d   1      56.247  49.680  50.375  0.00  0.00     0.008 A 
ATOM      8  C   UNL d   1      56.688  49.547  51.729  0.00  0.00     0.002 A 
ATOM      9  C   UNL d   1      56.083  49.632  51.189  0.00  0.00     0.001 A 
ENDROOT
BRANCH   1  10
ATOM     10  C   UNL d   1      59.095  49.451  50.566  0.00  0.00     0.082 C 
BRANCH  10  11
ATOM     11  C   UNL d   1      59.314  48.747  50.956  0.00  0.00     0.034 C 
BRANCH  11  12
ATOM     12  C   UNL d   1      59.936  48.743  51.491  0.00  0.00     0.119 C 
BRANCH  12  13
ATOM     13  S   UNL d   1      60.670  49.054  51.270  0.00  0.00     0.140 S 
ATOM     14  O   UNL d   1      61.387  49.362  51.056  0.00  0.00    -0.591 OA
ATOM     15  O   UNL d   1      60.798  48.403  50.781  0.00  0.00    -0.591 OA
ATOM     16  O   UNL d   1      60.541  49.707  51.761  0.00  0.00    -0.591 OA
ENDBRANCH  12  13
ENDBRANCH  11  12
ENDBRANCH  10  11
ENDBRANCH   1  10
BRANCH   2  17
ATOM     17  S   UNL d   1      58.723  49.607  48.835  0.00  0.00    -0.089 SA
ATOM     18  C   UNL d   1      59.516  49.702  48.988  0.00  0.00     0.076 C 
ENDBRANCH   2  17
TORSDOF 5
ENDMDL
