MODEL 1
REMARK VINA RESULT:      -4.4      0.000      0.000
REMARK  5 active torsions:
REMARK  status: ('A' for Active; 'I' for Inactive)
REMARK    1  A    between atoms: N_6  and  C_1 
REMARK    2  A    between atoms: C_8  and  C_2 
REMARK    3  A    between atoms: C_10  and  C_3 
REMARK       I    between atoms: C_7  and  N_6 
REMARK    4  A    between atoms: C_18  and  C_7 
REMARK    5  A    between atoms: C_17  and  C_10 
ROOT
ATOM      1  C   UNL d   1      58.400  -0.382  30.342  0.00  0.00     0.119 A 
ATOM      2  C   UNL d   1      59.154  -0.095  30.193  0.00  0.00     0.084 A 
ATOM      3  C   UNL d   1      58.810  -0.904  29.181  0.00  0.00     0.031 A 
ATOM      4  S   UNL d   1      58.179  -0.884  29.721  0.00  0.00    -0.068 SA
ATOM      5  C   UNL d   1      59.408  -0.419  29.473  0.00  0.00     0.013 A 
ATOM      6  C   UNL d   1      60.137  -0.283  29.104  0.00  0.00     0.001 C 
ENDROOT
BRANCH   3   7
ATOM      7  C   UNL d   1      58.911  -1.307  28.458  0.00  0.00     0.007 C 
BRANCH   7   8
ATOM      8  C   UNL d   1      59.024  -2.131  28.458  0.00  0.00     0.003 A 
ATOM      9  C   UNL d   1      58.364  -2.635  28.456  0.00  0.00     0.026 A 
ATOM     10  C   UNL d   1      58.466  -3.452  28.456  0.00  0.00     0.119 A 
ATOM     11  O   UNL d   1      57.929  -4.070  28.455  0.00  0.00    -0.300 OA
ATOM     12  C   UNL d   1      59.226  -3.773  28.458  0.00  0.00     0.119 A 
ATOM     13  C   UNL d   1      58.351  -4.774  28.456  0.00  0.00     0.304 A 
ATOM     14  O   UNL d   1      59.153  -4.587  28.458  0.00  0.00    -0.300 OA
ATOM     15  C   UNL d   1      59.883  -3.277  28.460  0.00  0.00     0.026 A 
ATOM     16  C   UNL d   1      59.784  -2.452  28.460  0.00  0.00     0.002 A 
ENDBRANCH   7   8
ENDBRANCH   3   7
BRANCH   1  17
ATOM     17  N   UNL d   1      57.930  -0.199  31.014  0.00  0.00    -0.201 NA
ATOM     18  C   UNL d   1      57.273  -0.675  31.206  0.00  0.00     0.280 C 
ATOM     19  O   UNL d   1      57.080  -1.329  30.740  0.00  0.00    -0.265 OA
BRANCH  18  20
ATOM     20  C   UNL d   1      56.813  -0.489  31.870  0.00  0.00     0.058 A 
ATOM     21  C   UNL d   1      56.448   0.249  31.934  0.00  0.00     0.005 A 
ATOM     22  C   UNL d   1      55.991   0.436  32.590  0.00  0.00     0.000 A 
ATOM     23  C   UNL d   1      55.892  -0.117  33.198  0.00  0.00     0.000 A 
ATOM     24  C   UNL d   1      56.260  -0.857  33.131  0.00  0.00     0.000 A 
ATOM     25  C   UNL d   1      56.715  -1.041  32.474  0.00  0.00     0.005 A 
ENDBRANCH  18  20
ENDBRANCH   1  17
BRANCH   2  26
ATOM     26  C   UNL d   1      59.593   0.422  30.665  0.00  0.00     0.299 C 
ATOM     27  O   UNL d   1      59.257   0.682  31.445  0.00  0.00    -0.264 OA
ATOM     28  N   UNL d   1      60.280   0.678  30.441  0.00  0.00    -0.102 N 
ENDBRANCH   2  26
TORSDOF 5
ENDMDL
MODEL 2
REMARK VINA RESULT:      -3.5      0.874      1.328
REMARK  5 active torsions:
REMARK  status: ('A' for Active; 'I' for Inactive)
REMARK    1  A    between atoms: N_6  and  C_1 
REMARK    2  A    between atoms: C_8  and  C_2 
REMARK    3  A    between atoms: C_10  and  C_3 
REMARK       I    between atoms: C_7  and  N_6 
REMARK    4  A    between atoms: C_18  and  C_7 
REMARK    5  A    between atoms: C_17  and  C_10 
ROOT
ATOM      1  C   UNL d   1      58.152  -0.171  31.114  0.00  0.00     0.119 A 
ATOM      2  C   UNL d   1      58.925   0.102  31.154  0.00  0.00     0.084 A 
ATOM      3  C   UNL d   1      58.740  -0.451  29.947  0.00  0.00     0.031 A 
ATOM      4  S   UNL d   1      58.028  -0.514  30.371  0.00  0.00    -0.068 SA
ATOM      5  C   UNL d   1      59.290  -0.072  30.430  0.00  0.00     0.013 A 
ATOM      6  C   UNL d   1      60.072   0.101  30.219  0.00  0.00     0.001 C 
ENDROOT
BRANCH   3   7
ATOM      7  C   UNL d   1      58.953  -0.694  29.177  0.00  0.00     0.007 C 
BRANCH   7   8
ATOM      8  C   UNL d   1      58.991  -1.506  28.998  0.00  0.00     0.003 A 
ATOM      9  C   UNL d   1      59.708  -1.914  29.097  0.00  0.00     0.026 A 
ATOM     10  C   UNL d   1      59.755  -2.716  28.921  0.00  0.00     0.119 A 
ATOM     11  O   UNL d   1      60.375  -3.250  28.965  0.00  0.00    -0.300 OA
ATOM     12  C   UNL d   1      59.089  -3.118  28.646  0.00  0.00     0.119 A 
ATOM     13  C   UNL d   1      60.099  -3.982  28.718  0.00  0.00     0.304 A 
ATOM     14  O   UNL d   1      59.303  -3.898  28.522  0.00  0.00    -0.300 OA
ATOM     15  C   UNL d   1      58.378  -2.718  28.547  0.00  0.00     0.026 A 
ATOM     16  C   UNL d   1      58.326  -1.908  28.723  0.00  0.00     0.002 A 
ENDBRANCH   7   8
ENDBRANCH   3   7
BRANCH   1  17
ATOM     17  N   UNL d   1      57.579  -0.111  31.727  0.00  0.00    -0.201 NA
ATOM     18  C   UNL d   1      56.912  -0.610  31.723  0.00  0.00     0.280 C 
ATOM     19  O   UNL d   1      56.807  -1.165  31.121  0.00  0.00    -0.265 OA
BRANCH  18  20
ATOM     20  C   UNL d   1      56.350  -0.547  32.330  0.00  0.00     0.058 A 
ATOM     21  C   UNL d   1      56.060  -1.222  32.705  0.00  0.00     0.005 A 
ATOM     22  C   UNL d   1      55.504  -1.162  33.307  0.00  0.00     0.000 A 
ATOM     23  C   UNL d   1      55.227  -0.418  33.544  0.00  0.00     0.000 A 
ATOM     24  C   UNL d   1      55.522   0.258  33.165  0.00  0.00     0.000 A 
ATOM     25  C   UNL d   1      56.077   0.195  32.565  0.00  0.00     0.005 A 
ENDBRANCH  18  20
ENDBRANCH   1  17
BRANCH   2  26
ATOM     26  C   UNL d   1      59.288   0.482  31.792  0.00  0.00     0.299 C 
ATOM     27  O   UNL d   1      60.157   0.658  31.749  0.00  0.00    -0.264 OA
ATOM     28  N   UNL d   1      58.887   0.682  32.414  0.00  0.00    -0.102 N 
ENDBRANCH   2  26
TORSDOF 5
ENDMDL
