MODEL 1
REMARK VINA RESULT:       6.9      0.000      0.000
REMARK  5 active torsions:
REMARK  status: ('A' for Active; 'I' for Inactive)
REMARK    1  A    between atoms: N_6  and  C_1 
REMARK    2  A    between atoms: S_10  and  C_4 
REMARK       I    between atoms: C_7  and  N_6 
REMARK       I    between atoms: N_8  and  C_7 
REMARK    3  A    between atoms: C_11  and  N_8 
REMARK    4  A    between atoms: C_12  and  S_10 
REMARK    5  A    between atoms: C_15  and  C_12 
ROOT
ATOM      1  N   UNL d   1      45.923 -16.784  44.474  0.00  0.00    -0.321 NA
ATOM      2  C   UNL d   1      46.193 -17.440  44.506  0.00  0.00     0.422 C 
ATOM      3  N   UNL d   1      46.534 -18.248  44.569  0.00  0.00    -0.180 NA
ATOM      4  O   UNL d   1      45.994 -17.573  43.845  0.00  0.00    -0.228 OA
ENDROOT
BRANCH   1   5
ATOM      5  C   UNL d   1      45.649 -15.962  44.601  0.00  0.00     0.271 A 
ATOM      6  S   UNL d   1      45.908 -15.309  44.500  0.00  0.00    -0.006 SA
ATOM      7  C   UNL d   1      45.505 -14.746  44.679  0.00  0.00     0.166 A 
ATOM      8  N   UNL d   1      44.855 -14.840  44.953  0.00  0.00    -0.132 NA
ATOM      9  N   UNL d   1      45.000 -16.056  44.875  0.00  0.00    -0.107 NA
BRANCH   7  10
ATOM     10  S   UNL d   1      45.647 -14.034  44.629  0.00  0.00    -0.059 SA
BRANCH  10  11
ATOM     11  C   UNL d   1      45.331 -13.593  44.006  0.00  0.00     0.037 C 
BRANCH  11  12
ATOM     12  C   UNL d   1      45.614 -12.833  43.857  0.00  0.00     0.007 C 
ATOM     13  C   UNL d   1      45.157 -12.293  43.435  0.00  0.00     0.001 C 
ENDBRANCH  11  12
ENDBRANCH  10  11
ENDBRANCH   7  10
ENDBRANCH   1   5
BRANCH   3  14
ATOM     14  C   UNL d   1      46.489 -18.765  43.915  0.00  0.00     0.087 A 
ATOM     15  C   UNL d   1      46.637 -18.481  43.164  0.00  0.00     0.019 A 
ATOM     16  C   UNL d   1      46.592 -18.999  42.509  0.00  0.00     0.002 A 
ATOM     17  C   UNL d   1      46.399 -19.790  42.620  0.00  0.00     0.000 A 
ATOM     18  C   UNL d   1      46.249 -20.078  43.388  0.00  0.00     0.002 A 
ATOM     19  C   UNL d   1      46.294 -19.562  44.034  0.00  0.00     0.019 A 
ENDBRANCH   3  14
TORSDOF 5
ENDMDL
MODEL 2
REMARK VINA RESULT:       7.8      1.292      4.934
REMARK  5 active torsions:
REMARK  status: ('A' for Active; 'I' for Inactive)
REMARK    1  A    between atoms: N_6  and  C_1 
REMARK    2  A    between atoms: S_10  and  C_4 
REMARK       I    between atoms: C_7  and  N_6 
REMARK       I    between atoms: N_8  and  C_7 
REMARK    3  A    between atoms: C_11  and  N_8 
REMARK    4  A    between atoms: C_12  and  S_10 
REMARK    5  A    between atoms: C_15  and  C_12 
ROOT
ATOM      1  N   UNL d   1      45.784 -16.509  44.362  0.00  0.00    -0.321 NA
ATOM      2  C   UNL d   1      45.453 -15.923  44.588  0.00  0.00     0.422 C 
ATOM      3  N   UNL d   1      45.028 -15.211  44.880  0.00  0.00    -0.180 NA
ATOM      4  O   UNL d   1      45.889 -15.513  44.219  0.00  0.00    -0.228 OA
ENDROOT
BRANCH   1   5
ATOM      5  C   UNL d   1      46.072 -17.317  44.184  0.00  0.00     0.271 A 
ATOM      6  S   UNL d   1      46.158 -17.720  43.607  0.00  0.00    -0.006 SA
ATOM      7  C   UNL d   1      46.419 -18.381  43.682  0.00  0.00     0.166 A 
ATOM      8  N   UNL d   1      46.590 -18.629  44.326  0.00  0.00    -0.132 NA
ATOM      9  N   UNL d   1      46.242 -17.566  44.828  0.00  0.00    -0.107 NA
BRANCH   7  10
ATOM     10  S   UNL d   1      46.555 -18.890  43.180  0.00  0.00    -0.059 SA
BRANCH  10  11
ATOM     11  C   UNL d   1      46.539 -19.689  43.387  0.00  0.00     0.037 C 
BRANCH  11  12
ATOM     12  C   UNL d   1      46.278 -20.250  42.842  0.00  0.00     0.007 C 
ATOM     13  C   UNL d   1      46.643 -20.317  42.106  0.00  0.00     0.001 C 
ENDBRANCH  11  12
ENDBRANCH  10  11
ENDBRANCH   7  10
ENDBRANCH   1   5
BRANCH   3  14
ATOM     14  C   UNL d   1      45.279 -14.454  44.636  0.00  0.00     0.087 A 
ATOM     15  C   UNL d   1      44.839 -14.038  44.088  0.00  0.00     0.019 A 
ATOM     16  C   UNL d   1      45.090 -13.279  43.844  0.00  0.00     0.002 A 
ATOM     17  C   UNL d   1      45.778 -12.952  44.154  0.00  0.00     0.000 A 
ATOM     18  C   UNL d   1      46.225 -13.377  44.714  0.00  0.00     0.002 A 
ATOM     19  C   UNL d   1      45.973 -14.129  44.953  0.00  0.00     0.019 A 
ENDBRANCH   3  14
TORSDOF 5
ENDMDL
