MODEL 1
REMARK VINA RESULT:      -5.7      0.000      0.000
REMARK  8 active torsions:
REMARK  status: ('A' for Active; 'I' for Inactive)
REMARK    1  A    between atoms: C_3  and  N_1 
REMARK    2  A    between atoms: C_6  and  N_2 
REMARK    3  A    between atoms: C_4  and  C_3 
REMARK    4  A    between atoms: C_7  and  C_3 
REMARK       I    between atoms: C_5  and  N_8 
REMARK    5  A    between atoms: O_18  and  C_5 
REMARK    6  A    between atoms: N_8  and  C_7 
REMARK    7  A    between atoms: C_21  and  O_18 
REMARK    8  A    between atoms: C_22  and  C_21 
ROOT
ATOM      1  C   UNL d   1     -45.504  12.403  22.401  0.00  0.00     0.107 C 
ENDROOT
BRANCH   1   2
ATOM      2  N   UNL d   1     -46.157  12.908  22.505  0.00  0.00    -0.298 N 
ATOM      3  C   UNL d   1     -46.811  12.830  22.007  0.00  0.00     0.100 A 
ATOM      4  C   UNL d   1     -47.464  13.326  22.101  0.00  0.00     0.100 A 
ATOM      5  N   UNL d   1     -47.463  13.900  22.694  0.00  0.00    -0.299 N 
ATOM      6  C   UNL d   1     -46.810  13.975  23.189  0.00  0.00     0.100 A 
ATOM      7  C   UNL d   1     -46.157  13.482  23.098  0.00  0.00     0.100 A 
BRANCH   5   8
ATOM      8  C   UNL d   1     -48.112  14.392  22.786  0.00  0.00     0.092 A 
ATOM      9  C   UNL d   1     -48.089  15.167  22.513  0.00  0.00     0.156 A 
ATOM     10  F   UNL d   1     -47.408  15.451  22.143  0.00  0.00    -0.203 F 
ATOM     11  C   UNL d   1     -48.740  15.663  22.604  0.00  0.00     0.031 A 
ATOM     12  C   UNL d   1     -49.421  15.380  22.974  0.00  0.00     0.002 A 
ATOM     13  C   UNL d   1     -49.446  14.599  23.251  0.00  0.00     0.002 A 
ATOM     14  C   UNL d   1     -48.793  14.108  23.156  0.00  0.00     0.020 A 
ENDBRANCH   5   8
ENDBRANCH   1   2
BRANCH   1  15
ATOM     15  C   UNL d   1     -45.388  11.759  22.904  0.00  0.00     0.118 A 
ATOM     16  O   UNL d   1     -44.633  11.565  23.164  0.00  0.00    -0.304 OA
ATOM     17  C   UNL d   1     -44.694  10.900  23.657  0.00  0.00     0.123 A 
ATOM     18  C   UNL d   1     -45.480  10.691  23.698  0.00  0.00     0.029 A 
ATOM     19  C   UNL d   1     -45.911  11.213  23.239  0.00  0.00     0.028 A 
ENDBRANCH   1  15
BRANCH   1  20
ATOM     20  C   UNL d   1     -44.965  12.550  21.783  0.00  0.00     0.124 C 
BRANCH  20  21
ATOM     21  N   UNL d   1     -44.304  13.025  21.917  0.00  0.00    -0.183 NA
ATOM     22  C   UNL d   1     -43.691  13.043  21.368  0.00  0.00     0.392 C 
ATOM     23  O   UNL d   1     -43.731  12.590  20.687  0.00  0.00    -0.236 OA
BRANCH  22  24
ATOM     24  O   UNL d   1     -43.032  13.520  21.506  0.00  0.00    -0.256 OA
BRANCH  24  25
ATOM     25  C   UNL d   1     -42.452  13.600  20.930  0.00  0.00     0.128 C 
BRANCH  25  26
ATOM     26  C   UNL d   1     -41.784  14.061  21.076  0.00  0.00     0.025 A 
ATOM     27  C   UNL d   1     -41.798  14.870  20.912  0.00  0.00     0.002 A 
ATOM     28  C   UNL d   1     -41.129  15.331  21.058  0.00  0.00     0.000 A 
ATOM     29  C   UNL d   1     -40.447  14.983  21.367  0.00  0.00     0.000 A 
ATOM     30  C   UNL d   1     -40.438  14.181  21.527  0.00  0.00     0.000 A 
ATOM     31  C   UNL d   1     -41.102  13.713  21.384  0.00  0.00     0.002 A 
ENDBRANCH  25  26
ENDBRANCH  24  25
ENDBRANCH  22  24
ENDBRANCH  20  21
ENDBRANCH   1  20
TORSDOF 8
ENDMDL
MODEL 2
REMARK VINA RESULT:      -5.7      3.080      6.832
REMARK  8 active torsions:
REMARK  status: ('A' for Active; 'I' for Inactive)
REMARK    1  A    between atoms: C_3  and  N_1 
REMARK    2  A    between atoms: C_6  and  N_2 
REMARK    3  A    between atoms: C_4  and  C_3 
REMARK    4  A    between atoms: C_7  and  C_3 
REMARK       I    between atoms: C_5  and  N_8 
REMARK    5  A    between atoms: O_18  and  C_5 
REMARK    6  A    between atoms: N_8  and  C_7 
REMARK    7  A    between atoms: C_21  and  O_18 
REMARK    8  A    between atoms: C_22  and  C_21 
ROOT
ATOM      1  C   UNL d   1     -40.815  14.162  20.707  0.00  0.00     0.107 C 
ENDROOT
BRANCH   1   2
ATOM      2  N   UNL d   1     -40.750  14.467  19.935  0.00  0.00    -0.298 N 
ATOM      3  C   UNL d   1     -40.447  13.987  19.336  0.00  0.00     0.100 A 
ATOM      4  C   UNL d   1     -40.378  14.278  18.567  0.00  0.00     0.100 A 
ATOM      5  N   UNL d   1     -40.612  15.051  18.397  0.00  0.00    -0.299 N 
ATOM      6  C   UNL d   1     -40.913  15.527  18.997  0.00  0.00     0.100 A 
ATOM      7  C   UNL d   1     -40.984  15.240  19.765  0.00  0.00     0.100 A 
BRANCH   5   8
ATOM      8  C   UNL d   1     -40.543  15.340  17.634  0.00  0.00     0.092 A 
ATOM      9  C   UNL d   1     -39.810  15.579  17.344  0.00  0.00     0.156 A 
ATOM     10  F   UNL d   1     -39.143  15.528  17.826  0.00  0.00    -0.203 F 
ATOM     11  C   UNL d   1     -39.739  15.870  16.577  0.00  0.00     0.031 A 
ATOM     12  C   UNL d   1     -40.406  15.921  16.095  0.00  0.00     0.002 A 
ATOM     13  C   UNL d   1     -41.145  15.680  16.385  0.00  0.00     0.002 A 
ATOM     14  C   UNL d   1     -41.210  15.391  17.152  0.00  0.00     0.020 A 
ENDBRANCH   5   8
ENDBRANCH   1   2
BRANCH   1  15
ATOM     15  C   UNL d   1     -40.320  14.435  21.308  0.00  0.00     0.118 A 
ATOM     16  O   UNL d   1     -39.709  13.964  21.591  0.00  0.00    -0.304 OA
ATOM     17  C   UNL d   1     -39.314  14.385  22.186  0.00  0.00     0.123 A 
ATOM     18  C   UNL d   1     -39.682  15.108  22.267  0.00  0.00     0.029 A 
ATOM     19  C   UNL d   1     -40.300  15.145  21.732  0.00  0.00     0.028 A 
ENDBRANCH   1  15
BRANCH   1  20
ATOM     20  C   UNL d   1     -41.385  13.577  20.871  0.00  0.00     0.124 C 
BRANCH  20  21
ATOM     21  N   UNL d   1     -42.124  13.793  21.167  0.00  0.00    -0.183 NA
ATOM     22  C   UNL d   1     -42.697  13.218  21.305  0.00  0.00     0.392 C 
ATOM     23  O   UNL d   1     -42.538  12.429  21.150  0.00  0.00    -0.236 OA
BRANCH  22  24
ATOM     24  O   UNL d   1     -43.434  13.438  21.602  0.00  0.00    -0.256 OA
BRANCH  24  25
ATOM     25  C   UNL d   1     -44.054  12.899  21.609  0.00  0.00     0.128 C 
BRANCH  25  26
ATOM     26  C   UNL d   1     -44.759  13.084  21.995  0.00  0.00     0.025 A 
ATOM     27  C   UNL d   1     -45.128  13.809  21.857  0.00  0.00     0.002 A 
ATOM     28  C   UNL d   1     -45.833  13.993  22.243  0.00  0.00     0.000 A 
ATOM     29  C   UNL d   1     -46.170  13.452  22.768  0.00  0.00     0.000 A 
ATOM     30  C   UNL d   1     -45.801  12.734  22.902  0.00  0.00     0.000 A 
ATOM     31  C   UNL d   1     -45.096  12.542  22.519  0.00  0.00     0.002 A 
ENDBRANCH  25  26
ENDBRANCH  24  25
ENDBRANCH  22  24
ENDBRANCH  20  21
ENDBRANCH   1  20
TORSDOF 8
ENDMDL
MODEL 3
REMARK VINA RESULT:      -4.2      3.817      7.886
REMARK  8 active torsions:
REMARK  status: ('A' for Active; 'I' for Inactive)
REMARK    1  A    between atoms: C_3  and  N_1 
REMARK    2  A    between atoms: C_6  and  N_2 
REMARK    3  A    between atoms: C_4  and  C_3 
REMARK    4  A    between atoms: C_7  and  C_3 
REMARK       I    between atoms: C_5  and  N_8 
REMARK    5  A    between atoms: O_18  and  C_5 
REMARK    6  A    between atoms: N_8  and  C_7 
REMARK    7  A    between atoms: C_21  and  O_18 
REMARK    8  A    between atoms: C_22  and  C_21 
ROOT
ATOM      1  C   UNL d   1     -39.519  14.477  20.342  0.00  0.00     0.107 C 
ENDROOT
BRANCH   1   2
ATOM      2  N   UNL d   1     -39.326  14.395  19.536  0.00  0.00    -0.298 N 
ATOM      3  C   UNL d   1     -38.901  14.995  19.161  0.00  0.00     0.100 A 
ATOM      4  C   UNL d   1     -38.704  14.925  18.362  0.00  0.00     0.100 A 
ATOM      5  N   UNL d   1     -38.934  14.255  17.939  0.00  0.00    -0.299 N 
ATOM      6  C   UNL d   1     -39.358  13.659  18.316  0.00  0.00     0.100 A 
ATOM      7  C   UNL d   1     -39.556  13.726  19.113  0.00  0.00     0.100 A 
BRANCH   5   8
ATOM      8  C   UNL d   1     -38.738  14.187  17.147  0.00  0.00     0.092 A 
ATOM      9  C   UNL d   1     -39.137  14.631  16.579  0.00  0.00     0.156 A 
ATOM     10  F   UNL d   1     -39.737  15.148  16.812  0.00  0.00    -0.203 F 
ATOM     11  C   UNL d   1     -38.942  14.564  15.782  0.00  0.00     0.031 A 
ATOM     12  C   UNL d   1     -38.342  14.047  15.550  0.00  0.00     0.002 A 
ATOM     13  C   UNL d   1     -37.940  13.599  16.120  0.00  0.00     0.002 A 
ATOM     14  C   UNL d   1     -38.138  13.670  16.914  0.00  0.00     0.020 A 
ENDBRANCH   5   8
ENDBRANCH   1   2
BRANCH   1  15
ATOM     15  C   UNL d   1     -38.951  14.340  20.924  0.00  0.00     0.118 A 
ATOM     16  O   UNL d   1     -38.631  14.967  21.349  0.00  0.00    -0.304 OA
ATOM     17  C   UNL d   1     -38.081  14.658  21.888  0.00  0.00     0.123 A 
ATOM     18  C   UNL d   1     -38.065  13.848  21.793  0.00  0.00     0.029 A 
ATOM     19  C   UNL d   1     -38.596  13.647  21.204  0.00  0.00     0.028 A 
ENDBRANCH   1  15
BRANCH   1  20
ATOM     20  C   UNL d   1     -40.292  14.698  20.559  0.00  0.00     0.124 C 
BRANCH  20  21
ATOM     21  N   UNL d   1     -40.783  14.157  20.942  0.00  0.00    -0.183 NA
ATOM     22  C   UNL d   1     -41.567  14.352  21.101  0.00  0.00     0.392 C 
ATOM     23  O   UNL d   1     -41.865  15.082  20.881  0.00  0.00    -0.236 OA
BRANCH  22  24
ATOM     24  O   UNL d   1     -42.054  13.808  21.484  0.00  0.00    -0.256 OA
BRANCH  24  25
ATOM     25  C   UNL d   1     -42.615  13.384  21.059  0.00  0.00     0.128 C 
BRANCH  25  26
ATOM     26  C   UNL d   1     -43.228  12.996  21.452  0.00  0.00     0.025 A 
ATOM     27  C   UNL d   1     -43.078  12.291  21.853  0.00  0.00     0.002 A 
ATOM     28  C   UNL d   1     -43.691  11.902  22.246  0.00  0.00     0.000 A 
ATOM     29  C   UNL d   1     -44.453  12.220  22.238  0.00  0.00     0.000 A 
ATOM     30  C   UNL d   1     -44.597  12.919  21.839  0.00  0.00     0.000 A 
ATOM     31  C   UNL d   1     -43.990  13.314  21.444  0.00  0.00     0.002 A 
ENDBRANCH  25  26
ENDBRANCH  24  25
ENDBRANCH  22  24
ENDBRANCH  20  21
ENDBRANCH   1  20
TORSDOF 8
ENDMDL
