MODEL 1
REMARK VINA RESULT:      -3.9      0.000      0.000
REMARK  4 active torsions:
REMARK  status: ('A' for Active; 'I' for Inactive)
REMARK    1  A    between atoms: N_5  and  S_1 
REMARK    2  A    between atoms: C_6  and  S_1 
REMARK    3  A    between atoms: N_2  and  C_7 
REMARK    4  A    between atoms: C_18  and  N_5 
ROOT
ATOM      1  C   UNL d   1      56.556  -0.250  32.355  0.00  0.00     0.117 A 
ATOM      2  C   UNL d   1      55.622   0.129  33.650  0.00  0.00     0.070 A 
ATOM      3  C   UNL d   1      56.639   0.472  32.718  0.00  0.00     0.015 A 
ATOM      4  C   UNL d   1      56.001  -0.792  32.640  0.00  0.00     0.015 A 
ATOM      5  C   UNL d   1      56.172   0.665  33.368  0.00  0.00     0.018 A 
ATOM      6  C   UNL d   1      55.536  -0.596  33.289  0.00  0.00     0.018 A 
ENDROOT
BRANCH   1   7
ATOM      7  S   UNL d   1      57.024  -0.442  31.705  0.00  0.00     0.327 S 
ATOM      8  O   UNL d   1      57.216   0.362  31.611  0.00  0.00    -0.186 OA
ATOM      9  O   UNL d   1      56.830  -1.229  31.803  0.00  0.00    -0.186 OA
BRANCH   7  10
ATOM     10  N   UNL d   1      57.491  -0.626  31.057  0.00  0.00    -0.317 NA
BRANCH  10  11
ATOM     11  C   UNL d   1      57.965  -0.814  30.408  0.00  0.00     0.145 A 
ATOM     12  C   UNL d   1      58.098  -1.611  30.203  0.00  0.00     0.033 A 
ATOM     13  C   UNL d   1      58.571  -1.800  29.555  0.00  0.00     0.003 A 
ATOM     14  C   UNL d   1      58.916  -1.210  29.106  0.00  0.00     0.000 A 
ATOM     15  C   UNL d   1      58.790  -0.409  29.302  0.00  0.00     0.003 A 
ATOM     16  C   UNL d   1      59.391  -1.402  28.456  0.00  0.00     0.000 C 
ATOM     17  C   UNL d   1      58.313  -0.218  29.955  0.00  0.00     0.033 A 
ENDBRANCH  10  11
ENDBRANCH   7  10
ENDBRANCH   1   7
BRANCH   2  18
ATOM     18  N   UNL d   1      55.154   0.320  34.301  0.00  0.00    -0.242 N 
ATOM     19  C   UNL d   1      55.398   0.329  35.094  0.00  0.00     0.267 A 
ATOM     20  C   UNL d   1      54.753   0.553  35.562  0.00  0.00     0.066 A 
ATOM     21  O   UNL d   1      56.153   0.147  35.369  0.00  0.00    -0.267 OA
ATOM     22  C   UNL d   1      54.111   0.682  35.061  0.00  0.00     0.066 A 
ATOM     23  C   UNL d   1      54.356   0.540  34.285  0.00  0.00     0.267 A 
ATOM     24  O   UNL d   1      53.883   0.606  33.607  0.00  0.00    -0.267 OA
ENDBRANCH   2  18
TORSDOF 4
ENDMDL
MODEL 2
REMARK VINA RESULT:      -3.6      1.425      5.470
REMARK  4 active torsions:
REMARK  status: ('A' for Active; 'I' for Inactive)
REMARK    1  A    between atoms: N_5  and  S_1 
REMARK    2  A    between atoms: C_6  and  S_1 
REMARK    3  A    between atoms: N_2  and  C_7 
REMARK    4  A    between atoms: C_18  and  N_5 
ROOT
ATOM      1  C   UNL d   1      57.590   0.200  31.672  0.00  0.00     0.117 A 
ATOM      2  C   UNL d   1      58.574   0.029  30.370  0.00  0.00     0.070 A 
ATOM      3  C   UNL d   1      57.422  -0.360  31.107  0.00  0.00     0.015 A 
ATOM      4  C   UNL d   1      58.255   0.681  31.588  0.00  0.00     0.015 A 
ATOM      5  C   UNL d   1      57.915  -0.448  30.453  0.00  0.00     0.018 A 
ATOM      6  C   UNL d   1      58.744   0.591  30.934  0.00  0.00     0.018 A 
ENDROOT
BRANCH   1   7
ATOM      7  S   UNL d   1      57.096   0.287  32.326  0.00  0.00     0.327 S 
ATOM      8  O   UNL d   1      56.488  -0.102  31.913  0.00  0.00    -0.186 OA
ATOM      9  O   UNL d   1      57.699   0.667  32.724  0.00  0.00    -0.186 OA
BRANCH   7  10
ATOM     10  N   UNL d   1      56.600   0.370  32.973  0.00  0.00    -0.317 NA
BRANCH  10  11
ATOM     11  C   UNL d   1      56.099   0.447  33.624  0.00  0.00     0.145 A 
ATOM     12  C   UNL d   1      55.275   0.368  33.530  0.00  0.00     0.033 A 
ATOM     13  C   UNL d   1      54.773   0.445  34.181  0.00  0.00     0.003 A 
ATOM     14  C   UNL d   1      55.077   0.600  34.923  0.00  0.00     0.000 A 
ATOM     15  C   UNL d   1      55.900   0.682  35.029  0.00  0.00     0.003 A 
ATOM     16  C   UNL d   1      54.572   0.677  35.574  0.00  0.00     0.000 C 
ATOM     17  C   UNL d   1      56.406   0.604  34.375  0.00  0.00     0.033 A 
ENDBRANCH  10  11
ENDBRANCH   7  10
ENDBRANCH   1   7
BRANCH   2  18
ATOM     18  N   UNL d   1      59.067  -0.058  29.716  0.00  0.00    -0.242 N 
ATOM     19  C   UNL d   1      59.865  -0.284  29.731  0.00  0.00     0.267 A 
ATOM     20  C   UNL d   1      60.146  -0.302  28.952  0.00  0.00     0.066 A 
ATOM     21  O   UNL d   1      60.305  -0.461  30.406  0.00  0.00    -0.267 OA
ATOM     22  C   UNL d   1      59.524  -0.087  28.456  0.00  0.00     0.066 A 
ATOM     23  C   UNL d   1      58.859   0.063  28.924  0.00  0.00     0.267 A 
ATOM     24  O   UNL d   1      58.113   0.294  28.647  0.00  0.00    -0.267 OA
ENDBRANCH   2  18
TORSDOF 4
ENDMDL
MODEL 3
REMARK VINA RESULT:      -1.5      1.340      5.514
REMARK  4 active torsions:
REMARK  status: ('A' for Active; 'I' for Inactive)
REMARK    1  A    between atoms: N_5  and  S_1 
REMARK    2  A    between atoms: C_6  and  S_1 
REMARK    3  A    between atoms: N_2  and  C_7 
REMARK    4  A    between atoms: C_18  and  N_5 
ROOT
ATOM      1  C   UNL d   1      57.310   0.067  31.571  0.00  0.00     0.117 A 
ATOM      2  C   UNL d   1      58.346  -0.148  30.317  0.00  0.00     0.070 A 
ATOM      3  C   UNL d   1      57.327  -0.643  31.177  0.00  0.00     0.015 A 
ATOM      4  C   UNL d   1      57.815   0.678  31.339  0.00  0.00     0.015 A 
ATOM      5  C   UNL d   1      57.846  -0.754  30.547  0.00  0.00     0.018 A 
ATOM      6  C   UNL d   1      58.331   0.565  30.710  0.00  0.00     0.018 A 
ENDROOT
BRANCH   1   7
ATOM      7  S   UNL d   1      56.791   0.177  32.202  0.00  0.00     0.327 S 
ATOM      8  O   UNL d   1      57.322  -0.223  32.703  0.00  0.00    -0.186 OA
ATOM      9  O   UNL d   1      56.276   0.568  31.704  0.00  0.00    -0.186 OA
BRANCH   7  10
ATOM     10  N   UNL d   1      56.280   0.283  32.833  0.00  0.00    -0.317 NA
BRANCH  10  11
ATOM     11  C   UNL d   1      55.766   0.383  33.471  0.00  0.00     0.145 A 
ATOM     12  C   UNL d   1      56.047   0.305  34.252  0.00  0.00     0.033 A 
ATOM     13  C   UNL d   1      55.533   0.405  34.890  0.00  0.00     0.003 A 
ATOM     14  C   UNL d   1      54.745   0.582  34.765  0.00  0.00     0.000 A 
ATOM     15  C   UNL d   1      54.453   0.662  33.988  0.00  0.00     0.003 A 
ATOM     16  C   UNL d   1      54.232   0.682  35.406  0.00  0.00     0.000 C 
ATOM     17  C   UNL d   1      54.969   0.561  33.345  0.00  0.00     0.033 A 
ENDBRANCH  10  11
ENDBRANCH   7  10
ENDBRANCH   1   7
BRANCH   2  18
ATOM     18  N   UNL d   1      58.865  -0.258  29.686  0.00  0.00    -0.242 N 
ATOM     19  C   UNL d   1      58.745  -0.009  28.904  0.00  0.00     0.267 A 
ATOM     20  C   UNL d   1      59.404  -0.233  28.455  0.00  0.00     0.066 A 
ATOM     21  O   UNL d   1      58.083   0.393  28.621  0.00  0.00    -0.267 OA
ATOM     22  C   UNL d   1      59.930  -0.620  28.958  0.00  0.00     0.066 A 
ATOM     23  C   UNL d   1      59.600  -0.637  29.716  0.00  0.00     0.267 A 
ATOM     24  O   UNL d   1      59.947  -0.974  30.388  0.00  0.00    -0.267 OA
ENDBRANCH   2  18
TORSDOF 4
ENDMDL
MODEL 4
REMARK VINA RESULT:      -1.0      1.325      5.497
REMARK  4 active torsions:
REMARK  status: ('A' for Active; 'I' for Inactive)
REMARK    1  A    between atoms: N_5  and  S_1 
REMARK    2  A    between atoms: C_6  and  S_1 
REMARK    3  A    between atoms: N_2  and  C_7 
REMARK    4  A    between atoms: C_18  and  N_5 
ROOT
ATOM      1  C   UNL d   1      57.385  -0.635  31.232  0.00  0.00     0.117 A 
ATOM      2  C   UNL d   1      58.440  -0.973  30.021  0.00  0.00     0.070 A 
ATOM      3  C   UNL d   1      57.791  -0.033  30.869  0.00  0.00     0.015 A 
ATOM      4  C   UNL d   1      57.505  -1.416  30.991  0.00  0.00     0.015 A 
ATOM      5  C   UNL d   1      58.321  -0.199  30.261  0.00  0.00     0.018 A 
ATOM      6  C   UNL d   1      58.034  -1.579  30.384  0.00  0.00     0.018 A 
ENDROOT
BRANCH   1   7
ATOM      7  S   UNL d   1      56.855  -0.468  31.840  0.00  0.00     0.327 S 
ATOM      8  O   UNL d   1      56.267  -0.900  31.441  0.00  0.00    -0.186 OA
ATOM      9  O   UNL d   1      57.437  -0.045  32.226  0.00  0.00    -0.186 OA
BRANCH   7  10
ATOM     10  N   UNL d   1      56.322  -0.305  32.442  0.00  0.00    -0.317 NA
BRANCH  10  11
ATOM     11  C   UNL d   1      55.783  -0.137  33.043  0.00  0.00     0.145 A 
ATOM     12  C   UNL d   1      55.100  -0.605  33.138  0.00  0.00     0.033 A 
ATOM     13  C   UNL d   1      54.561  -0.437  33.739  0.00  0.00     0.003 A 
ATOM     14  C   UNL d   1      54.689   0.189  34.249  0.00  0.00     0.000 A 
ATOM     15  C   UNL d   1      55.369   0.664  34.164  0.00  0.00     0.003 A 
ATOM     16  C   UNL d   1      54.147   0.356  34.851  0.00  0.00     0.000 C 
ATOM     17  C   UNL d   1      55.913   0.496  33.558  0.00  0.00     0.033 A 
ENDBRANCH  10  11
ENDBRANCH   7  10
ENDBRANCH   1   7
BRANCH   2  18
ATOM     18  N   UNL d   1      58.970  -1.140  29.413  0.00  0.00    -0.242 N 
ATOM     19  C   UNL d   1      59.467  -0.595  29.033  0.00  0.00     0.267 A 
ATOM     20  C   UNL d   1      59.905  -0.999  28.458  0.00  0.00     0.066 A 
ATOM     21  O   UNL d   1      59.517   0.210  29.199  0.00  0.00    -0.267 OA
ATOM     22  C   UNL d   1      59.680  -1.792  28.482  0.00  0.00     0.066 A 
ATOM     23  C   UNL d   1      59.105  -1.881  29.069  0.00  0.00     0.267 A 
ATOM     24  O   UNL d   1      58.728  -2.589  29.275  0.00  0.00    -0.267 OA
ENDBRANCH   2  18
TORSDOF 4
ENDMDL
