MODEL 1
REMARK VINA RESULT:      -3.7      0.000      0.000
REMARK  4 active torsions:
REMARK  status: ('A' for Active; 'I' for Inactive)
REMARK    1  A    between atoms: C_7  and  C_2 
REMARK    2  A    between atoms: C_6  and  C_3 
REMARK    3  A    between atoms: C_11  and  C_6 
REMARK    4  A    between atoms: N_10  and  C_9 
ROOT
ATOM      1  N   UNL d   1      58.721  -0.658  29.906  0.00  0.00    -0.220 NA
ATOM      2  C   UNL d   1      58.768  -1.129  29.224  0.00  0.00     0.161 A 
ATOM      3  C   UNL d   1      58.355   0.051  29.693  0.00  0.00     0.146 A 
ATOM      4  O   UNL d   1      58.431  -0.704  28.599  0.00  0.00    -0.257 OA
ATOM      5  C   UNL d   1      58.176   0.023  28.888  0.00  0.00     0.319 A 
ATOM      6  O   UNL d   1      57.806   0.626  28.455  0.00  0.00    -0.257 OA
ENDROOT
BRANCH   3   7
ATOM      7  C   UNL d   1      58.195   0.681  30.201  0.00  0.00     0.025 C 
BRANCH   7   8
ATOM      8  C   UNL d   1      57.848   0.540  30.946  0.00  0.00     0.002 A 
ATOM      9  C   UNL d   1      58.306   0.593  31.622  0.00  0.00     0.002 A 
ATOM     10  C   UNL d   1      57.976   0.457  32.359  0.00  0.00     0.018 A 
ATOM     11  C   UNL d   1      57.168   0.263  32.415  0.00  0.00     0.064 A 
ATOM     12  C   UNL d   1      56.706   0.209  31.730  0.00  0.00     0.018 A 
ATOM     13  C   UNL d   1      57.047   0.348  30.998  0.00  0.00     0.002 A 
BRANCH  11  14
ATOM     14  N   UNL d   1      56.828   0.124  33.147  0.00  0.00    -0.301 N 
ATOM     15  C   UNL d   1      56.320  -0.513  33.258  0.00  0.00     0.100 C 
ATOM     16  C   UNL d   1      56.997   0.630  33.780  0.00  0.00     0.100 C 
ENDBRANCH  11  14
ENDBRANCH   7   8
ENDBRANCH   3   7
BRANCH   2  17
ATOM     17  C   UNL d   1      59.090  -1.876  29.182  0.00  0.00     0.058 C 
ATOM     18  C   UNL d   1      58.608  -2.533  29.188  0.00  0.00     0.008 C 
ATOM     19  C   UNL d   1      59.337  -2.656  29.143  0.00  0.00     0.008 C 
ATOM     20  C   UNL d   1      59.909  -1.968  29.132  0.00  0.00     0.008 C 
ENDBRANCH   2  17
TORSDOF 4
ENDMDL
MODEL 2
REMARK VINA RESULT:      -3.3      1.364      4.139
REMARK  4 active torsions:
REMARK  status: ('A' for Active; 'I' for Inactive)
REMARK    1  A    between atoms: C_7  and  C_2 
REMARK    2  A    between atoms: C_6  and  C_3 
REMARK    3  A    between atoms: C_11  and  C_6 
REMARK    4  A    between atoms: N_10  and  C_9 
ROOT
ATOM      1  N   UNL d   1      57.613  -0.673  30.391  0.00  0.00    -0.220 NA
ATOM      2  C   UNL d   1      57.545  -0.271  31.114  0.00  0.00     0.161 A 
ATOM      3  C   UNL d   1      58.266  -0.360  29.994  0.00  0.00     0.146 A 
ATOM      4  O   UNL d   1      58.157   0.284  31.154  0.00  0.00    -0.257 OA
ATOM      5  C   UNL d   1      58.601   0.229  30.464  0.00  0.00     0.319 A 
ATOM      6  O   UNL d   1      59.268   0.682  30.266  0.00  0.00    -0.257 OA
ENDROOT
BRANCH   3   7
ATOM      7  C   UNL d   1      58.537  -0.599  29.252  0.00  0.00     0.025 C 
BRANCH   7   8
ATOM      8  C   UNL d   1      58.916  -1.337  29.163  0.00  0.00     0.002 A 
ATOM      9  C   UNL d   1      59.728  -1.386  29.251  0.00  0.00     0.002 A 
ATOM     10  C   UNL d   1      60.112  -2.105  29.166  0.00  0.00     0.018 A 
ATOM     11  C   UNL d   1      59.667  -2.786  28.989  0.00  0.00     0.064 A 
ATOM     12  C   UNL d   1      58.846  -2.734  28.900  0.00  0.00     0.018 A 
ATOM     13  C   UNL d   1      58.473  -2.010  28.987  0.00  0.00     0.002 A 
BRANCH  11  14
ATOM     14  N   UNL d   1      60.040  -3.511  28.901  0.00  0.00    -0.301 N 
ATOM     15  C   UNL d   1      59.669  -4.127  28.503  0.00  0.00     0.100 C 
ATOM     16  C   UNL d   1      60.798  -3.622  29.216  0.00  0.00     0.100 C 
ENDBRANCH  11  14
ENDBRANCH   7   8
ENDBRANCH   3   7
BRANCH   2  17
ATOM     17  C   UNL d   1      56.976  -0.403  31.682  0.00  0.00     0.058 C 
ATOM     18  C   UNL d   1      56.661   0.220  32.103  0.00  0.00     0.008 C 
ATOM     19  C   UNL d   1      56.403  -0.454  32.265  0.00  0.00     0.008 C 
ATOM     20  C   UNL d   1      56.716  -1.172  31.831  0.00  0.00     0.008 C 
ENDBRANCH   2  17
TORSDOF 4
ENDMDL
MODEL 3
REMARK VINA RESULT:      -2.8      1.575      4.141
REMARK  4 active torsions:
REMARK  status: ('A' for Active; 'I' for Inactive)
REMARK    1  A    between atoms: C_7  and  C_2 
REMARK    2  A    between atoms: C_6  and  C_3 
REMARK    3  A    between atoms: C_11  and  C_6 
REMARK    4  A    between atoms: N_10  and  C_9 
ROOT
ATOM      1  N   UNL d   1      56.699  -0.160  31.654  0.00  0.00    -0.220 NA
ATOM      2  C   UNL d   1      56.619  -0.268  32.473  0.00  0.00     0.161 A 
ATOM      3  C   UNL d   1      57.427   0.207  31.522  0.00  0.00     0.146 A 
ATOM      4  O   UNL d   1      57.299   0.034  32.835  0.00  0.00    -0.257 OA
ATOM      5  C   UNL d   1      57.797   0.326  32.249  0.00  0.00     0.319 A 
ATOM      6  O   UNL d   1      58.539   0.680  32.360  0.00  0.00    -0.257 OA
ENDROOT
BRANCH   3   7
ATOM      7  C   UNL d   1      57.732   0.417  30.785  0.00  0.00     0.025 C 
BRANCH   7   8
ATOM      8  C   UNL d   1      58.149  -0.143  30.329  0.00  0.00     0.002 A 
ATOM      9  C   UNL d   1      57.818  -0.880  30.194  0.00  0.00     0.002 A 
ATOM     10  C   UNL d   1      58.217  -1.440  29.748  0.00  0.00     0.018 A 
ATOM     11  C   UNL d   1      58.964  -1.251  29.433  0.00  0.00     0.064 A 
ATOM     12  C   UNL d   1      59.298  -0.506  29.570  0.00  0.00     0.018 A 
ATOM     13  C   UNL d   1      58.889   0.045  30.017  0.00  0.00     0.002 A 
BRANCH  11  14
ATOM     14  N   UNL d   1      59.373  -1.803  28.985  0.00  0.00    -0.301 N 
ATOM     15  C   UNL d   1      59.011  -2.504  28.753  0.00  0.00     0.100 C 
ATOM     16  C   UNL d   1      60.156  -1.653  28.765  0.00  0.00     0.100 C 
ENDBRANCH  11  14
ENDBRANCH   7   8
ENDBRANCH   3   7
BRANCH   2  17
ATOM     17  C   UNL d   1      55.983  -0.610  32.849  0.00  0.00     0.058 C 
ATOM     18  C   UNL d   1      55.888  -1.420  32.844  0.00  0.00     0.008 C 
ATOM     19  C   UNL d   1      55.373  -1.028  33.203  0.00  0.00     0.008 C 
ATOM     20  C   UNL d   1      55.432  -0.135  33.238  0.00  0.00     0.008 C 
ENDBRANCH   2  17
TORSDOF 4
ENDMDL
MODEL 4
REMARK VINA RESULT:      -2.2      1.666      4.142
REMARK  4 active torsions:
REMARK  status: ('A' for Active; 'I' for Inactive)
REMARK    1  A    between atoms: C_7  and  C_2 
REMARK    2  A    between atoms: C_6  and  C_3 
REMARK    3  A    between atoms: C_11  and  C_6 
REMARK    4  A    between atoms: N_10  and  C_9 
ROOT
ATOM      1  N   UNL d   1      57.014   0.445  31.966  0.00  0.00    -0.220 NA
ATOM      2  C   UNL d   1      56.771   0.028  32.642  0.00  0.00     0.161 A 
ATOM      3  C   UNL d   1      57.127  -0.107  31.362  0.00  0.00     0.146 A 
ATOM      4  O   UNL d   1      56.739  -0.775  32.445  0.00  0.00    -0.257 OA
ATOM      5  C   UNL d   1      56.958  -0.858  31.657  0.00  0.00     0.319 A 
ATOM      6  O   UNL d   1      57.004  -1.566  31.226  0.00  0.00    -0.257 OA
ENDROOT
BRANCH   3   7
ATOM      7  C   UNL d   1      57.370   0.067  30.592  0.00  0.00     0.025 C 
BRANCH   7   8
ATOM      8  C   UNL d   1      58.182   0.075  30.402  0.00  0.00     0.002 A 
ATOM      9  C   UNL d   1      58.662   0.663  30.710  0.00  0.00     0.002 A 
ATOM     10  C   UNL d   1      59.462   0.682  30.531  0.00  0.00     0.018 A 
ATOM     11  C   UNL d   1      59.782   0.097  30.032  0.00  0.00     0.064 A 
ATOM     12  C   UNL d   1      59.295  -0.496  29.722  0.00  0.00     0.018 A 
ATOM     13  C   UNL d   1      58.497  -0.505  29.908  0.00  0.00     0.002 A 
BRANCH  11  14
ATOM     14  N   UNL d   1      60.580   0.107  29.846  0.00  0.00    -0.301 N 
ATOM     15  C   UNL d   1      60.850  -0.232  29.147  0.00  0.00     0.100 C 
ATOM     16  C   UNL d   1      61.118   0.460  30.366  0.00  0.00     0.100 C 
ENDBRANCH  11  14
ENDBRANCH   7   8
ENDBRANCH   3   7
BRANCH   2  17
ATOM     17  C   UNL d   1      56.597   0.355  33.367  0.00  0.00     0.058 C 
ATOM     18  C   UNL d   1      55.825   0.406  33.622  0.00  0.00     0.008 C 
ATOM     19  C   UNL d   1      56.343   0.668  34.080  0.00  0.00     0.008 C 
ATOM     20  C   UNL d   1      57.207   0.635  33.847  0.00  0.00     0.008 C 
ENDBRANCH   2  17
TORSDOF 4
ENDMDL
MODEL 5
REMARK VINA RESULT:      -1.8      2.270      4.774
REMARK  4 active torsions:
REMARK  status: ('A' for Active; 'I' for Inactive)
REMARK    1  A    between atoms: C_7  and  C_2 
REMARK    2  A    between atoms: C_6  and  C_3 
REMARK    3  A    between atoms: C_11  and  C_6 
REMARK    4  A    between atoms: N_10  and  C_9 
ROOT
ATOM      1  N   UNL d   1      55.564  -0.187  32.974  0.00  0.00    -0.220 NA
ATOM      2  C   UNL d   1      55.448  -0.346  33.780  0.00  0.00     0.161 A 
ATOM      3  C   UNL d   1      55.875  -0.870  32.629  0.00  0.00     0.146 A 
ATOM      4  O   UNL d   1      55.689  -1.125  33.921  0.00  0.00    -0.257 OA
ATOM      5  C   UNL d   1      55.951  -1.448  33.212  0.00  0.00     0.319 A 
ATOM      6  O   UNL d   1      56.243  -2.216  33.094  0.00  0.00    -0.257 OA
ENDROOT
BRANCH   3   7
ATOM      7  C   UNL d   1      56.075  -0.958  31.833  0.00  0.00     0.025 C 
BRANCH   7   8
ATOM      8  C   UNL d   1      56.770  -0.605  31.535  0.00  0.00     0.002 A 
ATOM      9  C   UNL d   1      57.260  -1.035  31.040  0.00  0.00     0.002 A 
ATOM     10  C   UNL d   1      57.946  -0.701  30.741  0.00  0.00     0.018 A 
ATOM     11  C   UNL d   1      58.140   0.083  30.946  0.00  0.00     0.064 A 
ATOM     12  C   UNL d   1      57.643   0.516  31.447  0.00  0.00     0.018 A 
ATOM     13  C   UNL d   1      56.960   0.171  31.740  0.00  0.00     0.002 A 
BRANCH  11  14
ATOM     14  N   UNL d   1      58.823   0.427  30.654  0.00  0.00    -0.301 N 
ATOM     15  C   UNL d   1      59.415   0.682  31.164  0.00  0.00     0.100 C 
ATOM     16  C   UNL d   1      58.917   0.520  29.837  0.00  0.00     0.100 C 
ENDBRANCH  11  14
ENDBRANCH   7   8
ENDBRANCH   3   7
BRANCH   2  17
ATOM     17  C   UNL d   1      55.150   0.174  34.331  0.00  0.00     0.058 C 
ATOM     18  C   UNL d   1      55.558   0.324  35.020  0.00  0.00     0.008 C 
ATOM     19  C   UNL d   1      54.917   0.682  34.931  0.00  0.00     0.008 C 
ATOM     20  C   UNL d   1      54.430   0.553  34.191  0.00  0.00     0.008 C 
ENDBRANCH   2  17
TORSDOF 4
ENDMDL
