MODEL 1
REMARK VINA RESULT:      59.0      0.000      0.000
REMARK  6 active torsions:
REMARK  status: ('A' for Active; 'I' for Inactive)
REMARK    1  A    between atoms: C_7  and  C_1 
REMARK    2  A    between atoms: C_9  and  N_10 
REMARK       I    between atoms: N_10  and  C_11 
REMARK    3  A    between atoms: C_11  and  C_19 
REMARK    4  A    between atoms: S_15  and  C_12 
REMARK    5  A    between atoms: O_24  and  C_13 
REMARK    6  A    between atoms: C_19  and  S_15 
ROOT
ATOM      1  S   UNL d   1     -49.103  27.521  33.836  0.00  0.00    -0.061 SA
ENDROOT
BRANCH   1   2
ATOM      2  C   UNL d   1     -49.692  26.928  33.742  0.00  0.00     0.133 A 
ATOM      3  C   UNL d   1     -50.488  27.140  33.763  0.00  0.00     0.029 A 
ATOM      4  C   UNL d   1     -51.067  26.563  33.672  0.00  0.00     0.024 A 
ATOM      5  C   UNL d   1     -50.852  25.774  33.560  0.00  0.00     0.111 A 
ATOM      6  N   UNL d   1     -50.057  25.563  33.540  0.00  0.00    -0.147 NA
ATOM      7  N   UNL d   1     -49.477  26.140  33.631  0.00  0.00    -0.141 NA
BRANCH   5   8
ATOM      8  C   UNL d   1     -51.433  25.198  33.470  0.00  0.00     0.068 A 
ATOM      9  C   UNL d   1     -51.342  24.377  33.376  0.00  0.00     0.089 A 
ATOM     10  N   UNL d   1     -52.093  24.039  33.307  0.00  0.00    -0.238 NA
ATOM     11  C   UNL d   1     -50.624  23.966  33.355  0.00  0.00     0.021 C 
ATOM     12  C   UNL d   1     -52.645  24.650  33.357  0.00  0.00     0.111 A 
ATOM     13  S   UNL d   1     -52.243  25.364  33.458  0.00  0.00    -0.065 SA
ATOM     14  C   UNL d   1     -53.479  24.565  33.315  0.00  0.00     0.028 C 
ENDBRANCH   5   8
ENDBRANCH   1   2
BRANCH   1  15
ATOM     15  C   UNL d   1     -49.288  28.225  34.223  0.00  0.00     0.099 C 
BRANCH  15  16
ATOM     16  C   UNL d   1     -48.686  28.669  34.567  0.00  0.00     0.286 C 
ATOM     17  N   UNL d   1     -48.787  29.487  34.689  0.00  0.00    -0.206 NA
ATOM     18  O   UNL d   1     -47.976  28.302  34.795  0.00  0.00    -0.265 OA
BRANCH  17  19
ATOM     19  C   UNL d   1     -48.185  29.930  35.033  0.00  0.00     0.107 A 
ATOM     20  C   UNL d   1     -48.014  30.692  34.749  0.00  0.00     0.112 A 
ATOM     21  C   UNL d   1     -47.412  31.137  35.094  0.00  0.00     0.026 A 
ATOM     22  C   UNL d   1     -46.975  30.825  35.725  0.00  0.00     0.002 A 
ATOM     23  C   UNL d   1     -47.146  30.064  36.009  0.00  0.00     0.002 A 
ATOM     24  C   UNL d   1     -47.748  29.619  35.665  0.00  0.00     0.021 A 
ATOM     25  C   UNL d   1     -46.713  29.750  36.637  0.00  0.00     0.000 C 
BRANCH  20  26
ATOM     26  O   UNL d   1     -48.449  31.003  34.121  0.00  0.00    -0.327 OA
ATOM     27  C   UNL d   1     -48.375  31.798  33.921  0.00  0.00     0.181 C 
ENDBRANCH  20  26
ENDBRANCH  17  19
ENDBRANCH  15  16
ENDBRANCH   1  15
TORSDOF 6
ENDMDL
