MODEL 1
REMARK VINA RESULT:      -6.3      0.000      0.000
REMARK  11 active torsions:
REMARK  status: ('A' for Active; 'I' for Inactive)
REMARK    1  A    between atoms: C_8  and  S_1 
REMARK    2  A    between atoms: N_19  and  S_1 
REMARK    3  A    between atoms: S_2  and  C_9 
REMARK    4  A    between atoms: N_20  and  S_2 
REMARK    5  A    between atoms: N_14  and  C_5 
REMARK    6  A    between atoms: C_24  and  N_19 
REMARK    7  A    between atoms: C_25  and  N_20 
REMARK    8  A    between atoms: C_29  and  C_24 
REMARK    9  A    between atoms: C_28  and  C_25 
REMARK   10  A    between atoms: O_26  and  C_29 
REMARK   11  A    between atoms: O_27  and  C_28 
ROOT
ATOM      1  C   UNL d   1      50.416  34.532  52.807  0.00  0.00     0.021 A 
ATOM      2  C   UNL d   1      49.291  34.847  52.353  0.00  0.00     0.021 A 
ATOM      3  C   UNL d   1      49.688  34.867  52.988  0.00  0.00     0.111 A 
ATOM      4  C   UNL d   1      50.413  34.313  52.008  0.00  0.00     0.002 A 
ATOM      5  C   UNL d   1      49.675  34.516  51.695  0.00  0.00     0.002 A 
ATOM      6  C   UNL d   1      51.746  34.044  52.926  0.00  0.00     0.105 A 
ATOM      7  C   UNL d   1      48.133  35.083  51.563  0.00  0.00     0.105 A 
ATOM      8  C   UNL d   1      48.519  35.130  52.283  0.00  0.00     0.015 A 
ATOM      9  C   UNL d   1      51.084  34.396  53.262  0.00  0.00     0.015 A 
ATOM     10  C   UNL d   1      49.281  34.472  50.972  0.00  0.00     0.001 A 
ATOM     11  C   UNL d   1      51.077  33.960  51.669  0.00  0.00     0.001 A 
ATOM     12  C   UNL d   1      48.510  34.753  50.900  0.00  0.00     0.013 A 
ATOM     13  C   UNL d   1      51.740  33.830  52.139  0.00  0.00     0.013 A 
ENDROOT
BRANCH   6  14
ATOM     14  S   UNL d   1      52.485  33.841  53.238  0.00  0.00     0.285 S 
ATOM     15  O   UNL d   1      52.249  33.050  53.291  0.00  0.00    -0.198 OA
ATOM     16  O   UNL d   1      52.711  34.630  53.182  0.00  0.00    -0.198 OA
BRANCH  14  17
ATOM     17  N   UNL d   1      53.009  33.277  53.534  0.00  0.00    -0.155 NA
BRANCH  17  18
ATOM     18  C   UNL d   1      53.640  33.510  54.010  0.00  0.00     0.138 C 
BRANCH  18  19
ATOM     19  C   UNL d   1      54.103  32.945  54.404  0.00  0.00     0.138 C 
BRANCH  19  20
ATOM     20  O   UNL d   1      54.883  33.102  54.592  0.00  0.00    -0.325 OA
ATOM     21  C   UNL d   1      55.075  33.522  55.278  0.00  0.00     0.182 C 
ENDBRANCH  19  20
ENDBRANCH  18  19
ENDBRANCH  17  18
ENDBRANCH  14  17
ENDBRANCH   6  14
BRANCH   3  22
ATOM     22  N   UNL d   1      49.456  35.160  53.726  0.00  0.00    -0.096 NA
ATOM     23  O   UNL d   1      49.597  35.960  53.906  0.00  0.00    -0.061 OA
ENDBRANCH   3  22
BRANCH   7  24
ATOM     24  S   UNL d   1      47.395  35.286  51.251  0.00  0.00     0.285 S 
ATOM     25  O   UNL d   1      47.357  34.557  50.864  0.00  0.00    -0.198 OA
ATOM     26  O   UNL d   1      47.432  36.016  51.638  0.00  0.00    -0.198 OA
BRANCH  24  27
ATOM     27  N   UNL d   1      46.776  35.827  51.175  0.00  0.00    -0.155 NA
BRANCH  27  28
ATOM     28  C   UNL d   1      46.035  35.650  51.494  0.00  0.00     0.138 C 
BRANCH  28  29
ATOM     29  C   UNL d   1      45.517  36.262  51.691  0.00  0.00     0.138 C 
BRANCH  29  30
ATOM     30  O   UNL d   1      44.723  36.092  51.876  0.00  0.00    -0.325 OA
ATOM     31  C   UNL d   1      44.322  36.561  52.413  0.00  0.00     0.182 C 
ENDBRANCH  29  30
ENDBRANCH  28  29
ENDBRANCH  27  28
ENDBRANCH  24  27
ENDBRANCH   7  24
TORSDOF 11
ENDMDL
MODEL 2
REMARK VINA RESULT:      -6.2      0.274      6.293
REMARK  11 active torsions:
REMARK  status: ('A' for Active; 'I' for Inactive)
REMARK    1  A    between atoms: C_8  and  S_1 
REMARK    2  A    between atoms: N_19  and  S_1 
REMARK    3  A    between atoms: S_2  and  C_9 
REMARK    4  A    between atoms: N_20  and  S_2 
REMARK    5  A    between atoms: N_14  and  C_5 
REMARK    6  A    between atoms: C_24  and  N_19 
REMARK    7  A    between atoms: C_25  and  N_20 
REMARK    8  A    between atoms: C_29  and  C_24 
REMARK    9  A    between atoms: C_28  and  C_25 
REMARK   10  A    between atoms: O_26  and  C_29 
REMARK   11  A    between atoms: O_27  and  C_28 
ROOT
ATOM      1  C   UNL d   1      49.233  34.875  52.312  0.00  0.00     0.021 A 
ATOM      2  C   UNL d   1      50.346  34.566  52.798  0.00  0.00     0.021 A 
ATOM      3  C   UNL d   1      49.690  34.869  52.995  0.00  0.00     0.111 A 
ATOM      4  C   UNL d   1      49.679  34.548  51.694  0.00  0.00     0.002 A 
ATOM      5  C   UNL d   1      50.417  34.339  52.003  0.00  0.00     0.002 A 
ATOM      6  C   UNL d   1      48.148  35.068  51.412  0.00  0.00     0.105 A 
ATOM      7  C   UNL d   1      51.671  34.117  53.049  0.00  0.00     0.105 A 
ATOM      8  C   UNL d   1      50.976  34.453  53.319  0.00  0.00     0.015 A 
ATOM      9  C   UNL d   1      48.469  35.134  52.167  0.00  0.00     0.015 A 
ATOM     10  C   UNL d   1      51.121  34.001  51.736  0.00  0.00     0.001 A 
ATOM     11  C   UNL d   1      49.359  34.481  50.938  0.00  0.00     0.001 A 
ATOM     12  C   UNL d   1      51.751  33.887  52.255  0.00  0.00     0.013 A 
ATOM     13  C   UNL d   1      48.590  34.746  50.808  0.00  0.00     0.013 A 
ENDROOT
BRANCH   6  14
ATOM     14  S   UNL d   1      47.410  35.277  51.104  0.00  0.00     0.285 S 
ATOM     15  O   UNL d   1      47.488  36.037  51.419  0.00  0.00    -0.198 OA
ATOM     16  O   UNL d   1      47.340  34.517  50.794  0.00  0.00    -0.198 OA
BRANCH  14  17
ATOM     17  N   UNL d   1      46.809  35.829  50.991  0.00  0.00    -0.155 NA
BRANCH  17  18
ATOM     18  C   UNL d   1      46.031  35.639  51.185  0.00  0.00     0.138 C 
BRANCH  18  19
ATOM     19  C   UNL d   1      45.412  36.166  51.015  0.00  0.00     0.138 C 
BRANCH  19  20
ATOM     20  O   UNL d   1      44.678  36.075  51.364  0.00  0.00    -0.325 OA
ATOM     21  C   UNL d   1      44.314  36.708  51.750  0.00  0.00     0.182 C 
ENDBRANCH  19  20
ENDBRANCH  18  19
ENDBRANCH  17  18
ENDBRANCH  14  17
ENDBRANCH   6  14
BRANCH   3  22
ATOM     22  N   UNL d   1      49.457  35.146  53.739  0.00  0.00    -0.096 NA
ATOM     23  O   UNL d   1      49.477  35.963  53.891  0.00  0.00    -0.061 OA
ENDBRANCH   3  22
BRANCH   7  24
ATOM     24  S   UNL d   1      52.410  33.909  53.357  0.00  0.00     0.285 S 
ATOM     25  O   UNL d   1      52.750  34.565  52.986  0.00  0.00    -0.198 OA
ATOM     26  O   UNL d   1      52.070  33.253  53.729  0.00  0.00    -0.198 OA
BRANCH  24  27
ATOM     27  N   UNL d   1      52.877  33.400  53.810  0.00  0.00    -0.155 NA
BRANCH  27  28
ATOM     28  C   UNL d   1      53.577  33.679  54.148  0.00  0.00     0.138 C 
BRANCH  28  29
ATOM     29  C   UNL d   1      54.023  33.183  54.634  0.00  0.00     0.138 C 
BRANCH  29  30
ATOM     30  O   UNL d   1      54.833  33.336  54.756  0.00  0.00    -0.325 OA
ATOM     31  C   UNL d   1      55.082  33.672  55.458  0.00  0.00     0.182 C 
ENDBRANCH  29  30
ENDBRANCH  28  29
ENDBRANCH  27  28
ENDBRANCH  24  27
ENDBRANCH   7  24
TORSDOF 11
ENDMDL
MODEL 3
REMARK VINA RESULT:      -5.2     10.797     11.447
REMARK  11 active torsions:
REMARK  status: ('A' for Active; 'I' for Inactive)
REMARK    1  A    between atoms: C_8  and  S_1 
REMARK    2  A    between atoms: N_19  and  S_1 
REMARK    3  A    between atoms: S_2  and  C_9 
REMARK    4  A    between atoms: N_20  and  S_2 
REMARK    5  A    between atoms: N_14  and  C_5 
REMARK    6  A    between atoms: C_24  and  N_19 
REMARK    7  A    between atoms: C_25  and  N_20 
REMARK    8  A    between atoms: C_29  and  C_24 
REMARK    9  A    between atoms: C_28  and  C_25 
REMARK   10  A    between atoms: O_26  and  C_29 
REMARK   11  A    between atoms: O_27  and  C_28 
ROOT
ATOM      1  C   UNL d   1      44.677  26.909  57.266  0.00  0.00     0.021 A 
ATOM      2  C   UNL d   1      44.665  27.859  58.083  0.00  0.00     0.021 A 
ATOM      3  C   UNL d   1      44.661  27.727  57.346  0.00  0.00     0.111 A 
ATOM      4  C   UNL d   1      44.691  26.570  58.022  0.00  0.00     0.002 A 
ATOM      5  C   UNL d   1      44.683  27.188  58.572  0.00  0.00     0.002 A 
ATOM      6  C   UNL d   1      44.698  25.607  56.693  0.00  0.00     0.105 A 
ATOM      7  C   UNL d   1      44.658  28.699  59.230  0.00  0.00     0.105 A 
ATOM      8  C   UNL d   1      44.653  28.614  58.416  0.00  0.00     0.015 A 
ATOM      9  C   UNL d   1      44.681  26.424  56.605  0.00  0.00     0.015 A 
ATOM     10  C   UNL d   1      44.689  27.280  59.392  0.00  0.00     0.001 A 
ATOM     11  C   UNL d   1      44.708  25.751  58.113  0.00  0.00     0.001 A 
ATOM     12  C   UNL d   1      44.676  28.033  59.726  0.00  0.00     0.013 A 
ATOM     13  C   UNL d   1      44.711  25.278  57.439  0.00  0.00     0.013 A 
ENDROOT
BRANCH   6  14
ATOM     14  S   UNL d   1      44.706  24.990  56.143  0.00  0.00     0.285 S 
ATOM     15  O   UNL d   1      45.097  25.474  55.599  0.00  0.00    -0.198 OA
ATOM     16  O   UNL d   1      44.316  24.514  56.691  0.00  0.00    -0.198 OA
BRANCH  14  17
ATOM     17  N   UNL d   1      44.904  24.692  55.401  0.00  0.00    -0.155 NA
BRANCH  17  18
ATOM     18  C   UNL d   1      44.668  23.933  55.183  0.00  0.00     0.138 C 
BRANCH  18  19
ATOM     19  C   UNL d   1      44.931  23.596  54.471  0.00  0.00     0.138 C 
BRANCH  19  20
ATOM     20  O   UNL d   1      44.568  22.931  54.165  0.00  0.00    -0.325 OA
ATOM     21  C   UNL d   1      44.855  22.574  53.477  0.00  0.00     0.182 C 
ENDBRANCH  19  20
ENDBRANCH  18  19
ENDBRANCH  17  18
ENDBRANCH  14  17
ENDBRANCH   6  14
BRANCH   3  22
ATOM     22  N   UNL d   1      44.645  28.277  56.728  0.00  0.00    -0.096 NA
ATOM     23  O   UNL d   1      45.363  28.553  56.413  0.00  0.00    -0.061 OA
ENDBRANCH   3  22
BRANCH   7  24
ATOM     24  S   UNL d   1      44.651  29.316  59.780  0.00  0.00     0.285 S 
ATOM     25  O   UNL d   1      44.674  28.767  60.397  0.00  0.00    -0.198 OA
ATOM     26  O   UNL d   1      44.628  29.866  59.162  0.00  0.00    -0.198 OA
BRANCH  24  27
ATOM     27  N   UNL d   1      44.633  30.125  59.946  0.00  0.00    -0.155 NA
BRANCH  27  28
ATOM     28  C   UNL d   1      44.628  30.382  60.730  0.00  0.00     0.138 C 
BRANCH  28  29
ATOM     29  C   UNL d   1      44.463  31.173  60.901  0.00  0.00     0.138 C 
BRANCH  29  30
ATOM     30  O   UNL d   1      44.769  31.524  61.591  0.00  0.00    -0.325 OA
ATOM     31  C   UNL d   1      44.315  31.548  62.270  0.00  0.00     0.182 C 
ENDBRANCH  29  30
ENDBRANCH  28  29
ENDBRANCH  27  28
ENDBRANCH  24  27
ENDBRANCH   7  24
TORSDOF 11
ENDMDL
MODEL 4
REMARK VINA RESULT:      -4.7      1.415      6.315
REMARK  11 active torsions:
REMARK  status: ('A' for Active; 'I' for Inactive)
REMARK    1  A    between atoms: C_8  and  S_1 
REMARK    2  A    between atoms: N_19  and  S_1 
REMARK    3  A    between atoms: S_2  and  C_9 
REMARK    4  A    between atoms: N_20  and  S_2 
REMARK    5  A    between atoms: N_14  and  C_5 
REMARK    6  A    between atoms: C_24  and  N_19 
REMARK    7  A    between atoms: C_25  and  N_20 
REMARK    8  A    between atoms: C_29  and  C_24 
REMARK    9  A    between atoms: C_28  and  C_25 
REMARK   10  A    between atoms: O_26  and  C_29 
REMARK   11  A    between atoms: O_27  and  C_28 
ROOT
ATOM      1  C   UNL d   1      48.971  35.098  52.273  0.00  0.00     0.021 A 
ATOM      2  C   UNL d   1      50.072  34.500  52.325  0.00  0.00     0.021 A 
ATOM      3  C   UNL d   1      49.514  34.652  51.847  0.00  0.00     0.111 A 
ATOM      4  C   UNL d   1      49.258  35.196  53.044  0.00  0.00     0.002 A 
ATOM      5  C   UNL d   1      49.985  34.805  53.092  0.00  0.00     0.002 A 
ATOM      6  C   UNL d   1      47.819  35.857  52.616  0.00  0.00     0.105 A 
ATOM      7  C   UNL d   1      51.319  33.924  52.689  0.00  0.00     0.105 A 
ATOM      8  C   UNL d   1      50.740  34.060  52.127  0.00  0.00     0.015 A 
ATOM      9  C   UNL d   1      48.252  35.430  52.063  0.00  0.00     0.015 A 
ATOM     10  C   UNL d   1      50.572  34.665  53.655  0.00  0.00     0.001 A 
ATOM     11  C   UNL d   1      48.825  35.624  53.600  0.00  0.00     0.001 A 
ATOM     12  C   UNL d   1      51.241  34.226  53.460  0.00  0.00     0.013 A 
ATOM     13  C   UNL d   1      48.104  35.951  53.374  0.00  0.00     0.013 A 
ENDROOT
BRANCH   6  14
ATOM     14  S   UNL d   1      47.091  36.248  52.569  0.00  0.00     0.285 S 
ATOM     15  O   UNL d   1      47.219  36.396  51.765  0.00  0.00    -0.198 OA
ATOM     16  O   UNL d   1      46.973  36.097  53.369  0.00  0.00    -0.198 OA
BRANCH  14  17
ATOM     17  N   UNL d   1      46.524  36.659  52.134  0.00  0.00    -0.155 NA
BRANCH  17  18
ATOM     18  C   UNL d   1      45.726  36.472  52.216  0.00  0.00     0.138 C 
BRANCH  18  19
ATOM     19  C   UNL d   1      45.177  36.694  51.634  0.00  0.00     0.138 C 
BRANCH  19  20
ATOM     20  O   UNL d   1      44.467  36.297  51.556  0.00  0.00    -0.325 OA
ATOM     21  C   UNL d   1      44.314  35.834  50.888  0.00  0.00     0.182 C 
ENDBRANCH  19  20
ENDBRANCH  18  19
ENDBRANCH  17  18
ENDBRANCH  14  17
ENDBRANCH   6  14
BRANCH   3  22
ATOM     22  N   UNL d   1      49.445  34.426  51.055  0.00  0.00    -0.096 NA
ATOM     23  O   UNL d   1      48.883  33.848  50.847  0.00  0.00    -0.061 OA
ENDBRANCH   3  22
BRANCH   7  24
ATOM     24  S   UNL d   1      52.046  33.533  52.737  0.00  0.00     0.285 S 
ATOM     25  O   UNL d   1      52.367  34.180  53.140  0.00  0.00    -0.198 OA
ATOM     26  O   UNL d   1      51.725  32.887  52.334  0.00  0.00    -0.198 OA
BRANCH  24  27
ATOM     27  N   UNL d   1      52.513  32.872  52.576  0.00  0.00    -0.155 NA
BRANCH  27  28
ATOM     28  C   UNL d   1      52.604  32.285  53.149  0.00  0.00     0.138 C 
BRANCH  28  29
ATOM     29  C   UNL d   1      53.075  31.626  52.990  0.00  0.00     0.138 C 
BRANCH  29  30
ATOM     30  O   UNL d   1      53.201  31.051  53.579  0.00  0.00    -0.325 OA
ATOM     31  C   UNL d   1      53.597  30.360  53.394  0.00  0.00     0.182 C 
ENDBRANCH  29  30
ENDBRANCH  28  29
ENDBRANCH  27  28
ENDBRANCH  24  27
ENDBRANCH   7  24
TORSDOF 11
ENDMDL
MODEL 5
REMARK VINA RESULT:      -4.1      0.976      6.276
REMARK  11 active torsions:
REMARK  status: ('A' for Active; 'I' for Inactive)
REMARK    1  A    between atoms: C_8  and  S_1 
REMARK    2  A    between atoms: N_19  and  S_1 
REMARK    3  A    between atoms: S_2  and  C_9 
REMARK    4  A    between atoms: N_20  and  S_2 
REMARK    5  A    between atoms: N_14  and  C_5 
REMARK    6  A    between atoms: C_24  and  N_19 
REMARK    7  A    between atoms: C_25  and  N_20 
REMARK    8  A    between atoms: C_29  and  C_24 
REMARK    9  A    between atoms: C_28  and  C_25 
REMARK   10  A    between atoms: O_26  and  C_29 
REMARK   11  A    between atoms: O_27  and  C_28 
ROOT
ATOM      1  C   UNL d   1      50.161  34.673  52.902  0.00  0.00     0.021 A 
ATOM      2  C   UNL d   1      51.221  34.053  53.153  0.00  0.00     0.021 A 
ATOM      3  C   UNL d   1      50.816  34.634  53.397  0.00  0.00     0.111 A 
ATOM      4  C   UNL d   1      50.217  34.062  52.344  0.00  0.00     0.002 A 
ATOM      5  C   UNL d   1      50.913  33.645  52.499  0.00  0.00     0.002 A 
ATOM      6  C   UNL d   1      48.935  35.087  52.312  0.00  0.00     0.105 A 
ATOM      7  C   UNL d   1      52.334  33.170  53.186  0.00  0.00     0.105 A 
ATOM      8  C   UNL d   1      51.933  33.813  53.494  0.00  0.00     0.015 A 
ATOM      9  C   UNL d   1      49.519  35.182  52.882  0.00  0.00     0.015 A 
ATOM     10  C   UNL d   1      51.322  32.997  52.193  0.00  0.00     0.001 A 
ATOM     11  C   UNL d   1      49.631  33.965  51.772  0.00  0.00     0.001 A 
ATOM     12  C   UNL d   1      52.033  32.755  52.532  0.00  0.00     0.013 A 
ATOM     13  C   UNL d   1      48.993  34.485  51.765  0.00  0.00     0.013 A 
ENDROOT
BRANCH   6  14
ATOM     14  S   UNL d   1      48.238  35.504  52.157  0.00  0.00     0.285 S 
ATOM     15  O   UNL d   1      48.200  35.742  52.948  0.00  0.00    -0.198 OA
ATOM     16  O   UNL d   1      48.283  35.262  51.372  0.00  0.00    -0.198 OA
BRANCH  14  17
ATOM     17  N   UNL d   1      47.616  35.982  52.410  0.00  0.00    -0.155 NA
BRANCH  17  18
ATOM     18  C   UNL d   1      46.891  35.959  52.019  0.00  0.00     0.138 C 
BRANCH  18  19
ATOM     19  C   UNL d   1      46.295  36.508  52.200  0.00  0.00     0.138 C 
BRANCH  19  20
ATOM     20  O   UNL d   1      45.513  36.276  52.245  0.00  0.00    -0.325 OA
ATOM     21  C   UNL d   1      44.922  36.709  51.862  0.00  0.00     0.182 C 
ENDBRANCH  19  20
ENDBRANCH  18  19
ENDBRANCH  17  18
ENDBRANCH  14  17
ENDBRANCH   6  14
BRANCH   3  22
ATOM     22  N   UNL d   1      50.979  35.141  54.030  0.00  0.00    -0.096 NA
ATOM     23  O   UNL d   1      51.571  35.719  53.943  0.00  0.00    -0.061 OA
ENDBRANCH   3  22
BRANCH   7  24
ATOM     24  S   UNL d   1      53.031  32.752  53.341  0.00  0.00     0.285 S 
ATOM     25  O   UNL d   1      52.605  32.044  53.350  0.00  0.00    -0.198 OA
ATOM     26  O   UNL d   1      53.457  33.461  53.333  0.00  0.00    -0.198 OA
BRANCH  24  27
ATOM     27  N   UNL d   1      53.846  32.747  53.471  0.00  0.00    -0.155 NA
BRANCH  27  28
ATOM     28  C   UNL d   1      54.143  32.907  54.224  0.00  0.00     0.138 C 
BRANCH  28  29
ATOM     29  C   UNL d   1      54.916  33.183  54.310  0.00  0.00     0.138 C 
BRANCH  29  30
ATOM     30  O   UNL d   1      55.270  33.206  55.064  0.00  0.00    -0.325 OA
ATOM     31  C   UNL d   1      55.428  33.926  55.417  0.00  0.00     0.182 C 
ENDBRANCH  29  30
ENDBRANCH  28  29
ENDBRANCH  27  28
ENDBRANCH  24  27
ENDBRANCH   7  24
TORSDOF 11
ENDMDL
MODEL 6
REMARK VINA RESULT:      -3.8      1.705      6.243
REMARK  11 active torsions:
REMARK  status: ('A' for Active; 'I' for Inactive)
REMARK    1  A    between atoms: C_8  and  S_1 
REMARK    2  A    between atoms: N_19  and  S_1 
REMARK    3  A    between atoms: S_2  and  C_9 
REMARK    4  A    between atoms: N_20  and  S_2 
REMARK    5  A    between atoms: N_14  and  C_5 
REMARK    6  A    between atoms: C_24  and  N_19 
REMARK    7  A    between atoms: C_25  and  N_20 
REMARK    8  A    between atoms: C_29  and  C_24 
REMARK    9  A    between atoms: C_28  and  C_25 
REMARK   10  A    between atoms: O_26  and  C_29 
REMARK   11  A    between atoms: O_27  and  C_28 
ROOT
ATOM      1  C   UNL d   1      50.610  34.542  53.188  0.00  0.00     0.021 A 
ATOM      2  C   UNL d   1      51.609  33.799  53.331  0.00  0.00     0.021 A 
ATOM      3  C   UNL d   1      51.338  34.460  53.559  0.00  0.00     0.111 A 
ATOM      4  C   UNL d   1      50.475  33.871  52.721  0.00  0.00     0.002 A 
ATOM      5  C   UNL d   1      51.129  33.372  52.806  0.00  0.00     0.002 A 
ATOM      6  C   UNL d   1      49.355  35.069  52.774  0.00  0.00     0.105 A 
ATOM      7  C   UNL d   1      52.584  32.765  53.289  0.00  0.00     0.105 A 
ATOM      8  C   UNL d   1      52.337  33.493  53.570  0.00  0.00     0.015 A 
ATOM      9  C   UNL d   1      50.047  35.138  53.212  0.00  0.00     0.015 A 
ATOM     10  C   UNL d   1      51.383  32.639  52.525  0.00  0.00     0.001 A 
ATOM     11  C   UNL d   1      49.781  33.800  52.281  0.00  0.00     0.001 A 
ATOM     12  C   UNL d   1      52.109  32.330  52.763  0.00  0.00     0.013 A 
ATOM     13  C   UNL d   1      49.226  34.407  52.316  0.00  0.00     0.013 A 
ENDROOT
BRANCH   6  14
ATOM     14  S   UNL d   1      48.701  35.568  52.689  0.00  0.00     0.285 S 
ATOM     15  O   UNL d   1      48.889  35.942  53.402  0.00  0.00    -0.198 OA
ATOM     16  O   UNL d   1      48.522  35.190  51.980  0.00  0.00    -0.198 OA
BRANCH  14  17
ATOM     17  N   UNL d   1      48.227  36.183  52.964  0.00  0.00    -0.155 NA
BRANCH  17  18
ATOM     18  C   UNL d   1      47.415  36.071  53.052  0.00  0.00     0.138 C 
BRANCH  18  19
ATOM     19  C   UNL d   1      46.880  36.667  52.833  0.00  0.00     0.138 C 
BRANCH  19  20
ATOM     20  O   UNL d   1      46.139  36.709  53.174  0.00  0.00    -0.325 OA
ATOM     21  C   UNL d   1      45.457  36.676  52.707  0.00  0.00     0.182 C 
ENDBRANCH  19  20
ENDBRANCH  18  19
ENDBRANCH  17  18
ENDBRANCH  14  17
ENDBRANCH   6  14
BRANCH   3  22
ATOM     22  N   UNL d   1      51.686  35.004  54.075  0.00  0.00    -0.096 NA
ATOM     23  O   UNL d   1      52.214  35.570  53.771  0.00  0.00    -0.061 OA
ENDBRANCH   3  22
BRANCH   7  24
ATOM     24  S   UNL d   1      53.238  32.266  53.374  0.00  0.00     0.285 S 
ATOM     25  O   UNL d   1      53.457  32.420  52.591  0.00  0.00    -0.198 OA
ATOM     26  O   UNL d   1      53.019  32.113  54.156  0.00  0.00    -0.198 OA
BRANCH  24  27
ATOM     27  N   UNL d   1      53.693  31.759  53.839  0.00  0.00    -0.155 NA
BRANCH  27  28
ATOM     28  C   UNL d   1      53.752  30.961  53.638  0.00  0.00     0.138 C 
BRANCH  28  29
ATOM     29  C   UNL d   1      53.731  30.386  54.230  0.00  0.00     0.138 C 
BRANCH  29  30
ATOM     30  O   UNL d   1      53.831  29.582  54.036  0.00  0.00    -0.325 OA
ATOM     31  C   UNL d   1      53.214  29.057  54.148  0.00  0.00     0.182 C 
ENDBRANCH  29  30
ENDBRANCH  28  29
ENDBRANCH  27  28
ENDBRANCH  24  27
ENDBRANCH   7  24
TORSDOF 11
ENDMDL
MODEL 7
REMARK VINA RESULT:      -3.5      1.727      2.117
REMARK  11 active torsions:
REMARK  status: ('A' for Active; 'I' for Inactive)
REMARK    1  A    between atoms: C_8  and  S_1 
REMARK    2  A    between atoms: N_19  and  S_1 
REMARK    3  A    between atoms: S_2  and  C_9 
REMARK    4  A    between atoms: N_20  and  S_2 
REMARK    5  A    between atoms: N_14  and  C_5 
REMARK    6  A    between atoms: C_24  and  N_19 
REMARK    7  A    between atoms: C_25  and  N_20 
REMARK    8  A    between atoms: C_29  and  C_24 
REMARK    9  A    between atoms: C_28  and  C_25 
REMARK   10  A    between atoms: O_26  and  C_29 
REMARK   11  A    between atoms: O_27  and  C_28 
ROOT
ATOM      1  C   UNL d   1      51.536  33.740  53.341  0.00  0.00     0.021 A 
ATOM      2  C   UNL d   1      50.552  34.493  53.152  0.00  0.00     0.021 A 
ATOM      3  C   UNL d   1      51.198  34.464  53.531  0.00  0.00     0.111 A 
ATOM      4  C   UNL d   1      51.033  33.343  52.816  0.00  0.00     0.002 A 
ATOM      5  C   UNL d   1      50.378  33.831  52.682  0.00  0.00     0.002 A 
ATOM      6  C   UNL d   1      52.437  32.640  53.290  0.00  0.00     0.105 A 
ATOM      7  C   UNL d   1      49.337  35.107  52.745  0.00  0.00     0.105 A 
ATOM      8  C   UNL d   1      50.029  35.130  53.181  0.00  0.00     0.015 A 
ATOM      9  C   UNL d   1      52.237  33.385  53.575  0.00  0.00     0.015 A 
ATOM     10  C   UNL d   1      49.679  33.814  52.245  0.00  0.00     0.001 A 
ATOM     11  C   UNL d   1      51.231  32.597  52.528  0.00  0.00     0.001 A 
ATOM     12  C   UNL d   1      49.154  34.449  52.272  0.00  0.00     0.013 A 
ATOM     13  C   UNL d   1      51.939  32.254  52.773  0.00  0.00     0.013 A 
ENDROOT
BRANCH   6  14
ATOM     14  S   UNL d   1      53.092  32.153  53.423  0.00  0.00     0.285 S 
ATOM     15  O   UNL d   1      52.911  31.717  52.744  0.00  0.00    -0.198 OA
ATOM     16  O   UNL d   1      53.265  32.592  54.098  0.00  0.00    -0.198 OA
BRANCH  14  17
ATOM     17  N   UNL d   1      53.570  31.517  53.206  0.00  0.00    -0.155 NA
BRANCH  17  18
ATOM     18  C   UNL d   1      53.747  30.928  53.754  0.00  0.00     0.138 C 
BRANCH  18  19
ATOM     19  C   UNL d   1      53.848  30.141  53.510  0.00  0.00     0.138 C 
BRANCH  19  20
ATOM     20  O   UNL d   1      53.976  29.547  54.057  0.00  0.00    -0.325 OA
ATOM     21  C   UNL d   1      53.368  29.026  54.263  0.00  0.00     0.182 C 
ENDBRANCH  19  20
ENDBRANCH  18  19
ENDBRANCH  17  18
ENDBRANCH  14  17
ENDBRANCH   6  14
BRANCH   3  22
ATOM     22  N   UNL d   1      51.518  35.033  54.039  0.00  0.00    -0.096 NA
ATOM     23  O   UNL d   1      52.138  35.516  53.766  0.00  0.00    -0.061 OA
ENDBRANCH   3  22
BRANCH   7  24
ATOM     24  S   UNL d   1      48.683  35.595  52.611  0.00  0.00     0.285 S 
ATOM     25  O   UNL d   1      48.604  35.281  51.850  0.00  0.00    -0.198 OA
ATOM     26  O   UNL d   1      48.761  35.909  53.372  0.00  0.00    -0.198 OA
BRANCH  24  27
ATOM     27  N   UNL d   1      48.157  36.173  52.877  0.00  0.00    -0.155 NA
BRANCH  27  28
ATOM     28  C   UNL d   1      47.369  36.155  52.631  0.00  0.00     0.138 C 
BRANCH  28  29
ATOM     29  C   UNL d   1      46.816  36.653  52.988  0.00  0.00     0.138 C 
BRANCH  29  30
ATOM     30  O   UNL d   1      46.044  36.709  52.681  0.00  0.00    -0.325 OA
ATOM     31  C   UNL d   1      45.411  36.434  53.119  0.00  0.00     0.182 C 
ENDBRANCH  29  30
ENDBRANCH  28  29
ENDBRANCH  27  28
ENDBRANCH  24  27
ENDBRANCH   7  24
TORSDOF 11
ENDMDL
