MODEL 1
REMARK VINA RESULT:      23.7      0.000      0.000
REMARK  4 active torsions:
REMARK  status: ('A' for Active; 'I' for Inactive)
REMARK    1  A    between atoms: N_5  and  S_1 
REMARK    2  A    between atoms: C_8  and  S_1 
REMARK    3  A    between atoms: C_18  and  N_2 
REMARK    4  A    between atoms: C_10  and  N_5 
ROOT
ATOM      1  N   UNL d   1      46.361 -18.847  42.125  0.00  0.00    -0.273 N 
ATOM      2  C   UNL d   1      46.469 -19.398  42.730  0.00  0.00     0.265 A 
ATOM      3  C   UNL d   1      46.195 -18.097  42.456  0.00  0.00     0.067 A 
ATOM      4  C   UNL d   1      46.202 -18.198  43.285  0.00  0.00     0.021 A 
ATOM      5  C   UNL d   1      46.368 -18.984  43.455  0.00  0.00     0.058 A 
ATOM      6  C   UNL d   1      45.912 -16.882  43.711  0.00  0.00     0.105 A 
ATOM      7  C   UNL d   1      46.079 -17.672  43.877  0.00  0.00     0.014 A 
ATOM      8  C   UNL d   1      46.045 -17.372  42.124  0.00  0.00     0.018 A 
ATOM      9  C   UNL d   1      45.871 -16.628  42.962  0.00  0.00     0.014 A 
ATOM     10  O   UNL d   1      46.647 -20.216  42.612  0.00  0.00    -0.267 OA
ATOM     11  C   UNL d   1      46.411 -19.245  44.216  0.00  0.00     0.005 A 
ATOM     12  C   UNL d   1      46.119 -17.922  44.674  0.00  0.00     0.001 A 
ATOM     13  C   UNL d   1      46.282 -18.700  44.876  0.00  0.00     0.000 A 
ENDROOT
BRANCH   6  14
ATOM     14  S   UNL d   1      45.789 -16.355  44.327  0.00  0.00     0.287 S 
ATOM     15  O   UNL d   1      45.076 -16.717  44.514  0.00  0.00    -0.198 OA
ATOM     16  O   UNL d   1      46.521 -15.954  44.164  0.00  0.00    -0.198 OA
BRANCH  14  17
ATOM     17  N   UNL d   1      45.662 -15.818  44.955  0.00  0.00    -0.139 NA
BRANCH  17  18
ATOM     18  C   UNL d   1      45.680 -15.007  44.854  0.00  0.00     0.174 A 
ATOM     19  N   UNL d   1      46.435 -14.656  44.808  0.00  0.00    -0.225 NA
ATOM     20  C   UNL d   1      46.501 -13.843  44.706  0.00  0.00     0.101 A 
ATOM     21  C   UNL d   1      45.809 -13.379  44.650  0.00  0.00     0.021 A 
ATOM     22  C   UNL d   1      45.050 -13.728  44.695  0.00  0.00     0.005 A 
ATOM     23  C   UNL d   1      44.987 -14.543  44.797  0.00  0.00     0.037 A 
ATOM     24  C   UNL d   1      44.378 -15.332  44.898  0.00  0.00     0.003 C 
ENDBRANCH  17  18
ENDBRANCH  14  17
ENDBRANCH   6  14
BRANCH   1  25
ATOM     25  C   UNL d   1      46.412 -19.020  41.324  0.00  0.00     0.083 C 
ATOM     26  C   UNL d   1      46.632 -19.778  41.100  0.00  0.00     0.021 C 
ENDBRANCH   1  25
TORSDOF 4
ENDMDL
