MODEL 1
REMARK VINA RESULT:      -5.6      0.000      0.000
REMARK  7 active torsions:
REMARK  status: ('A' for Active; 'I' for Inactive)
REMARK    1  A    between atoms: C_11  and  C_3 
REMARK    2  A    between atoms: C_10  and  C_4 
REMARK    3  A    between atoms: O_16  and  C_10 
REMARK    4  A    between atoms: N_15  and  C_11 
REMARK    5  A    between atoms: C_21  and  N_15 
REMARK    6  A    between atoms: C_23  and  O_16 
REMARK    7  A    between atoms: C_18  and  C_21 
ROOT
ATOM      1  C   UNL d   1     -46.503  12.580  23.160  0.00  0.00     0.035 A 
ATOM      2  C   UNL d   1     -45.724  12.312  23.120  0.00  0.00     0.100 A 
ATOM      3  C   UNL d   1     -47.116  12.061  23.351  0.00  0.00     0.060 A 
ATOM      4  C   UNL d   1     -46.499  13.390  22.983  0.00  0.00     0.088 A 
ATOM      5  O   UNL d   1     -45.250  12.948  22.921  0.00  0.00    -0.307 OA
ATOM      6  C   UNL d   1     -45.728  13.579  22.844  0.00  0.00     0.105 A 
ATOM      7  C   UNL d   1     -46.956  11.269  23.504  0.00  0.00     0.197 A 
ATOM      8  C   UNL d   1     -45.571  11.521  23.273  0.00  0.00     0.026 A 
ATOM      9  C   UNL d   1     -46.184  11.002  23.464  0.00  0.00     0.041 A 
ATOM     10  O   UNL d   1     -47.565  10.753  23.694  0.00  0.00    -0.286 OA
ATOM     11  C   UNL d   1     -45.463  14.357  22.640  0.00  0.00     0.027 C 
ATOM     12  C   UNL d   1     -44.789  11.249  23.233  0.00  0.00     0.002 A 
ATOM     13  C   UNL d   1     -46.021  10.206  23.617  0.00  0.00     0.003 A 
ATOM     14  C   UNL d   1     -45.249   9.939  23.577  0.00  0.00     0.000 A 
ATOM     15  C   UNL d   1     -44.636  10.458  23.386  0.00  0.00     0.000 A 
ENDROOT
BRANCH   3  16
ATOM     16  C   UNL d   1     -47.923  12.328  23.395  0.00  0.00     0.102 C 
BRANCH  16  17
ATOM     17  N   UNL d   1     -48.547  11.878  23.069  0.00  0.00    -0.241 NA
BRANCH  17  18
ATOM     18  C   UNL d   1     -49.306  11.984  23.348  0.00  0.00     0.118 C 
BRANCH  18  19
ATOM     19  C   UNL d   1     -49.896  12.284  22.833  0.00  0.00     0.101 A 
ATOM     20  N   UNL d   1     -50.484  12.782  23.115  0.00  0.00    -0.242 NA
ATOM     21  C   UNL d   1     -51.064  13.078  22.608  0.00  0.00     0.099 A 
ATOM     22  C   UNL d   1     -51.063  12.879  21.815  0.00  0.00     0.021 A 
ATOM     23  C   UNL d   1     -50.476  12.380  21.527  0.00  0.00     0.003 A 
ATOM     24  C   UNL d   1     -49.896  12.085  22.033  0.00  0.00     0.021 A 
ENDBRANCH  18  19
ENDBRANCH  17  18
ENDBRANCH  16  17
ENDBRANCH   3  16
BRANCH   4  25
ATOM     25  C   UNL d   1     -47.154  13.936  22.947  0.00  0.00     0.302 C 
ATOM     26  O   UNL d   1     -47.556  14.124  23.640  0.00  0.00    -0.259 OA
BRANCH  25  27
ATOM     27  O   UNL d   1     -47.368  14.257  22.250  0.00  0.00    -0.271 OA
BRANCH  27  28
ATOM     28  C   UNL d   1     -47.730  14.995  22.217  0.00  0.00     0.126 C 
ATOM     29  C   UNL d   1     -48.164  15.222  21.544  0.00  0.00     0.029 C 
ENDBRANCH  27  28
ENDBRANCH  25  27
ENDBRANCH   4  25
TORSDOF 7
ENDMDL
MODEL 2
REMARK VINA RESULT:      -5.3      1.099      4.012
REMARK  7 active torsions:
REMARK  status: ('A' for Active; 'I' for Inactive)
REMARK    1  A    between atoms: C_11  and  C_3 
REMARK    2  A    between atoms: C_10  and  C_4 
REMARK    3  A    between atoms: O_16  and  C_10 
REMARK    4  A    between atoms: N_15  and  C_11 
REMARK    5  A    between atoms: C_21  and  N_15 
REMARK    6  A    between atoms: C_23  and  O_16 
REMARK    7  A    between atoms: C_18  and  C_21 
ROOT
ATOM      1  C   UNL d   1     -47.908  13.315  22.641  0.00  0.00     0.035 A 
ATOM      2  C   UNL d   1     -48.619  13.555  22.300  0.00  0.00     0.100 A 
ATOM      3  C   UNL d   1     -47.827  12.555  22.952  0.00  0.00     0.060 A 
ATOM      4  C   UNL d   1     -47.379  13.952  22.592  0.00  0.00     0.088 A 
ATOM      5  O   UNL d   1     -48.528  14.327  22.046  0.00  0.00    -0.307 OA
ATOM      6  C   UNL d   1     -47.785  14.545  22.227  0.00  0.00     0.105 A 
ATOM      7  C   UNL d   1     -48.457  12.027  22.926  0.00  0.00     0.197 A 
ATOM      8  C   UNL d   1     -49.244  13.024  22.277  0.00  0.00     0.026 A 
ATOM      9  C   UNL d   1     -49.163  12.264  22.588  0.00  0.00     0.041 A 
ATOM     10  O   UNL d   1     -48.376  11.272  23.235  0.00  0.00    -0.286 OA
ATOM     11  C   UNL d   1     -47.456  15.308  22.060  0.00  0.00     0.027 C 
ATOM     12  C   UNL d   1     -49.960  13.262  21.935  0.00  0.00     0.002 A 
ATOM     13  C   UNL d   1     -49.798  11.735  22.561  0.00  0.00     0.003 A 
ATOM     14  C   UNL d   1     -50.504  11.972  22.223  0.00  0.00     0.000 A 
ATOM     15  C   UNL d   1     -50.585  12.731  21.912  0.00  0.00     0.000 A 
ENDROOT
BRANCH   3  16
ATOM     16  C   UNL d   1     -47.096  12.298  23.306  0.00  0.00     0.102 C 
BRANCH  16  17
ATOM     17  N   UNL d   1     -46.754  11.563  23.108  0.00  0.00    -0.241 NA
BRANCH  17  18
ATOM     18  C   UNL d   1     -46.442  11.093  23.697  0.00  0.00     0.118 C 
BRANCH  18  19
ATOM     19  C   UNL d   1     -45.696  10.727  23.582  0.00  0.00     0.101 A 
ATOM     20  N   UNL d   1     -45.004  11.165  23.626  0.00  0.00    -0.242 NA
ATOM     21  C   UNL d   1     -44.270  10.805  23.512  0.00  0.00     0.099 A 
ATOM     22  C   UNL d   1     -44.221  10.003  23.354  0.00  0.00     0.021 A 
ATOM     23  C   UNL d   1     -44.912   9.560  23.309  0.00  0.00     0.003 A 
ATOM     24  C   UNL d   1     -45.646   9.920  23.423  0.00  0.00     0.021 A 
ENDBRANCH  18  19
ENDBRANCH  17  18
ENDBRANCH  16  17
ENDBRANCH   3  16
BRANCH   4  25
ATOM     25  C   UNL d   1     -46.570  14.002  22.859  0.00  0.00     0.302 C 
ATOM     26  O   UNL d   1     -46.421  14.166  23.652  0.00  0.00    -0.259 OA
BRANCH  25  27
ATOM     27  O   UNL d   1     -45.972  13.890  22.345  0.00  0.00    -0.271 OA
BRANCH  27  28
ATOM     28  C   UNL d   1     -45.214  14.166  22.510  0.00  0.00     0.126 C 
ATOM     29  C   UNL d   1     -44.582  13.995  21.997  0.00  0.00     0.029 C 
ENDBRANCH  27  28
ENDBRANCH  25  27
ENDBRANCH   4  25
TORSDOF 7
ENDMDL
MODEL 3
REMARK VINA RESULT:      -5.3      1.741      4.871
REMARK  7 active torsions:
REMARK  status: ('A' for Active; 'I' for Inactive)
REMARK    1  A    between atoms: C_11  and  C_3 
REMARK    2  A    between atoms: C_10  and  C_4 
REMARK    3  A    between atoms: O_16  and  C_10 
REMARK    4  A    between atoms: N_15  and  C_11 
REMARK    5  A    between atoms: C_21  and  N_15 
REMARK    6  A    between atoms: C_23  and  O_16 
REMARK    7  A    between atoms: C_18  and  C_21 
ROOT
ATOM      1  C   UNL d   1     -49.290  13.104  23.181  0.00  0.00     0.035 A 
ATOM      2  C   UNL d   1     -50.015  13.463  23.338  0.00  0.00     0.100 A 
ATOM      3  C   UNL d   1     -48.615  13.560  23.052  0.00  0.00     0.060 A 
ATOM      4  C   UNL d   1     -49.410  12.283  23.186  0.00  0.00     0.088 A 
ATOM      5  O   UNL d   1     -50.572  12.872  23.439  0.00  0.00    -0.307 OA
ATOM      6  C   UNL d   1     -50.194  12.178  23.345  0.00  0.00     0.105 A 
ATOM      7  C   UNL d   1     -48.658  14.381  23.080  0.00  0.00     0.197 A 
ATOM      8  C   UNL d   1     -50.052  14.282  23.365  0.00  0.00     0.026 A 
ATOM      9  C   UNL d   1     -49.377  14.739  23.237  0.00  0.00     0.041 A 
ATOM     10  O   UNL d   1     -47.987  14.835  22.953  0.00  0.00    -0.286 OA
ATOM     11  C   UNL d   1     -50.566  11.420  23.403  0.00  0.00     0.027 C 
ATOM     12  C   UNL d   1     -50.780  14.646  23.523  0.00  0.00     0.002 A 
ATOM     13  C   UNL d   1     -49.422  15.564  23.265  0.00  0.00     0.003 A 
ATOM     14  C   UNL d   1     -50.141  15.921  23.422  0.00  0.00     0.000 A 
ATOM     15  C   UNL d   1     -50.816  15.465  23.550  0.00  0.00     0.000 A 
ENDROOT
BRANCH   3  16
ATOM     16  C   UNL d   1     -47.862  13.199  22.889  0.00  0.00     0.102 C 
BRANCH  16  17
ATOM     17  N   UNL d   1     -47.173  13.660  22.784  0.00  0.00    -0.241 NA
BRANCH  17  18
ATOM     18  C   UNL d   1     -46.501  13.478  23.207  0.00  0.00     0.118 C 
BRANCH  18  19
ATOM     19  C   UNL d   1     -45.810  13.233  22.799  0.00  0.00     0.101 A 
ATOM     20  N   UNL d   1     -45.441  12.525  22.988  0.00  0.00    -0.242 NA
ATOM     21  C   UNL d   1     -44.762  12.284  22.587  0.00  0.00     0.099 A 
ATOM     22  C   UNL d   1     -44.444  12.748  21.993  0.00  0.00     0.021 A 
ATOM     23  C   UNL d   1     -44.809  13.458  21.799  0.00  0.00     0.003 A 
ATOM     24  C   UNL d   1     -45.489  13.700  22.201  0.00  0.00     0.021 A 
ENDBRANCH  18  19
ENDBRANCH  17  18
ENDBRANCH  16  17
ENDBRANCH   3  16
BRANCH   4  25
ATOM     25  C   UNL d   1     -48.847  11.656  23.055  0.00  0.00     0.302 C 
ATOM     26  O   UNL d   1     -48.429  11.355  23.698  0.00  0.00    -0.259 OA
BRANCH  25  27
ATOM     27  O   UNL d   1     -48.732  11.369  22.321  0.00  0.00    -0.271 OA
BRANCH  27  28
ATOM     28  C   UNL d   1     -48.269  10.700  22.195  0.00  0.00     0.126 C 
ATOM     29  C   UNL d   1     -48.020  10.498  21.428  0.00  0.00     0.029 C 
ENDBRANCH  27  28
ENDBRANCH  25  27
ENDBRANCH   4  25
TORSDOF 7
ENDMDL
MODEL 4
REMARK VINA RESULT:      -4.0      1.518      4.092
REMARK  7 active torsions:
REMARK  status: ('A' for Active; 'I' for Inactive)
REMARK    1  A    between atoms: C_11  and  C_3 
REMARK    2  A    between atoms: C_10  and  C_4 
REMARK    3  A    between atoms: O_16  and  C_10 
REMARK    4  A    between atoms: N_15  and  C_11 
REMARK    5  A    between atoms: C_21  and  N_15 
REMARK    6  A    between atoms: C_23  and  O_16 
REMARK    7  A    between atoms: C_18  and  C_21 
ROOT
ATOM      1  C   UNL d   1     -49.306  13.615  23.037  0.00  0.00     0.035 A 
ATOM      2  C   UNL d   1     -50.075  13.320  23.088  0.00  0.00     0.100 A 
ATOM      3  C   UNL d   1     -48.659  13.126  23.188  0.00  0.00     0.060 A 
ATOM      4  C   UNL d   1     -49.358  14.415  22.825  0.00  0.00     0.088 A 
ATOM      5  O   UNL d   1     -50.589  13.931  22.909  0.00  0.00    -0.307 OA
ATOM      6  C   UNL d   1     -50.146  14.573  22.756  0.00  0.00     0.105 A 
ATOM      7  C   UNL d   1     -48.773  12.338  23.391  0.00  0.00     0.197 A 
ATOM      8  C   UNL d   1     -50.182  12.533  23.291  0.00  0.00     0.026 A 
ATOM      9  C   UNL d   1     -49.535  12.044  23.442  0.00  0.00     0.041 A 
ATOM     10  O   UNL d   1     -48.130  11.852  23.541  0.00  0.00    -0.286 OA
ATOM     11  C   UNL d   1     -50.458  15.331  22.546  0.00  0.00     0.027 C 
ATOM     12  C   UNL d   1     -50.954  12.235  23.342  0.00  0.00     0.002 A 
ATOM     13  C   UNL d   1     -49.652  11.252  23.646  0.00  0.00     0.003 A 
ATOM     14  C   UNL d   1     -50.414  10.959  23.696  0.00  0.00     0.000 A 
ATOM     15  C   UNL d   1     -51.061  11.447  23.545  0.00  0.00     0.000 A 
ENDROOT
BRANCH   3  16
ATOM     16  C   UNL d   1     -47.862  13.421  23.138  0.00  0.00     0.102 C 
BRANCH  16  17
ATOM     17  N   UNL d   1     -47.208  12.902  23.121  0.00  0.00    -0.241 NA
BRANCH  17  18
ATOM     18  C   UNL d   1     -46.461  13.192  23.271  0.00  0.00     0.118 C 
BRANCH  18  19
ATOM     19  C   UNL d   1     -45.800  12.854  22.881  0.00  0.00     0.101 A 
ATOM     20  N   UNL d   1     -45.459  12.161  23.158  0.00  0.00    -0.242 NA
ATOM     21  C   UNL d   1     -44.809  11.828  22.774  0.00  0.00     0.099 A 
ATOM     22  C   UNL d   1     -44.493  12.184  22.109  0.00  0.00     0.021 A 
ATOM     23  C   UNL d   1     -44.831  12.879  21.827  0.00  0.00     0.003 A 
ATOM     24  C   UNL d   1     -45.481  13.212  22.211  0.00  0.00     0.021 A 
ENDBRANCH  18  19
ENDBRANCH  17  18
ENDBRANCH  16  17
ENDBRANCH   3  16
BRANCH   4  25
ATOM     25  C   UNL d   1     -48.731  14.980  22.699  0.00  0.00     0.302 C 
ATOM     26  O   UNL d   1     -48.345  15.301  23.351  0.00  0.00    -0.259 OA
BRANCH  25  27
ATOM     27  O   UNL d   1     -48.527  15.190  21.958  0.00  0.00    -0.271 OA
BRANCH  27  28
ATOM     28  C   UNL d   1     -48.148  15.907  21.810  0.00  0.00     0.126 C 
ATOM     29  C   UNL d   1     -47.359  15.920  21.547  0.00  0.00     0.029 C 
ENDBRANCH  27  28
ENDBRANCH  25  27
ENDBRANCH   4  25
TORSDOF 7
ENDMDL
MODEL 5
REMARK VINA RESULT:      -3.9      1.817      4.909
REMARK  7 active torsions:
REMARK  status: ('A' for Active; 'I' for Inactive)
REMARK    1  A    between atoms: C_11  and  C_3 
REMARK    2  A    between atoms: C_10  and  C_4 
REMARK    3  A    between atoms: O_16  and  C_10 
REMARK    4  A    between atoms: N_15  and  C_11 
REMARK    5  A    between atoms: C_21  and  N_15 
REMARK    6  A    between atoms: C_23  and  O_16 
REMARK    7  A    between atoms: C_18  and  C_21 
ROOT
ATOM      1  C   UNL d   1     -47.431  12.737  22.953  0.00  0.00     0.035 A 
ATOM      2  C   UNL d   1     -48.133  13.114  23.167  0.00  0.00     0.100 A 
ATOM      3  C   UNL d   1     -46.807  13.167  22.628  0.00  0.00     0.060 A 
ATOM      4  C   UNL d   1     -47.516  11.931  23.129  0.00  0.00     0.088 A 
ATOM      5  O   UNL d   1     -48.640  12.547  23.469  0.00  0.00    -0.307 OA
ATOM      6  C   UNL d   1     -48.256  11.851  23.438  0.00  0.00     0.105 A 
ATOM      7  C   UNL d   1     -46.877  13.978  22.513  0.00  0.00     0.197 A 
ATOM      8  C   UNL d   1     -48.197  13.923  23.050  0.00  0.00     0.026 A 
ATOM      9  C   UNL d   1     -47.572  14.353  22.725  0.00  0.00     0.041 A 
ATOM     10  O   UNL d   1     -46.256  14.406  22.190  0.00  0.00    -0.286 OA
ATOM     11  C   UNL d   1     -48.582  11.114  23.698  0.00  0.00     0.027 C 
ATOM     12  C   UNL d   1     -48.901  14.304  23.264  0.00  0.00     0.002 A 
ATOM     13  C   UNL d   1     -47.645  15.168  22.611  0.00  0.00     0.003 A 
ATOM     14  C   UNL d   1     -48.341  15.543  22.822  0.00  0.00     0.000 A 
ATOM     15  C   UNL d   1     -48.966  15.113  23.147  0.00  0.00     0.000 A 
ENDROOT
BRANCH   3  16
ATOM     16  C   UNL d   1     -46.078  12.787  22.404  0.00  0.00     0.102 C 
BRANCH  16  17
ATOM     17  N   UNL d   1     -45.385  13.230  22.259  0.00  0.00    -0.241 NA
BRANCH  17  18
ATOM     18  C   UNL d   1     -44.972  13.112  21.566  0.00  0.00     0.118 C 
BRANCH  18  19
ATOM     19  C   UNL d   1     -44.156  12.921  21.600  0.00  0.00     0.101 A 
ATOM     20  N   UNL d   1     -43.879  12.354  22.125  0.00  0.00    -0.242 NA
ATOM     21  C   UNL d   1     -43.077  12.166  22.158  0.00  0.00     0.099 A 
ATOM     22  C   UNL d   1     -42.542  12.543  21.668  0.00  0.00     0.021 A 
ATOM     23  C   UNL d   1     -42.813  13.113  21.140  0.00  0.00     0.003 A 
ATOM     24  C   UNL d   1     -43.616  13.301  21.106  0.00  0.00     0.021 A 
ENDBRANCH  18  19
ENDBRANCH  17  18
ENDBRANCH  16  17
ENDBRANCH   3  16
BRANCH   4  25
ATOM     25  C   UNL d   1     -46.958  11.294  23.018  0.00  0.00     0.302 C 
ATOM     26  O   UNL d   1     -46.981  10.861  22.319  0.00  0.00    -0.259 OA
BRANCH  25  27
ATOM     27  O   UNL d   1     -46.426  11.127  23.587  0.00  0.00    -0.271 OA
BRANCH  27  28
ATOM     28  C   UNL d   1     -46.140  10.361  23.687  0.00  0.00     0.126 C 
ATOM     29  C   UNL d   1     -45.322  10.214  23.695  0.00  0.00     0.029 C 
ENDBRANCH  27  28
ENDBRANCH  25  27
ENDBRANCH   4  25
TORSDOF 7
ENDMDL
MODEL 6
REMARK VINA RESULT:      -3.6      6.259      8.218
REMARK  7 active torsions:
REMARK  status: ('A' for Active; 'I' for Inactive)
REMARK    1  A    between atoms: C_11  and  C_3 
REMARK    2  A    between atoms: C_10  and  C_4 
REMARK    3  A    between atoms: O_16  and  C_10 
REMARK    4  A    between atoms: N_15  and  C_11 
REMARK    5  A    between atoms: C_21  and  N_15 
REMARK    6  A    between atoms: C_23  and  O_16 
REMARK    7  A    between atoms: C_18  and  C_21 
ROOT
ATOM      1  C   UNL d   1     -39.608  14.901  19.973  0.00  0.00     0.035 A 
ATOM      2  C   UNL d   1     -39.290  15.274  19.310  0.00  0.00     0.100 A 
ATOM      3  C   UNL d   1     -40.282  14.430  19.905  0.00  0.00     0.060 A 
ATOM      4  C   UNL d   1     -39.136  15.102  20.624  0.00  0.00     0.088 A 
ATOM      5  O   UNL d   1     -38.632  15.696  19.552  0.00  0.00    -0.307 OA
ATOM      6  C   UNL d   1     -38.557  15.582  20.335  0.00  0.00     0.105 A 
ATOM      7  C   UNL d   1     -40.644  14.326  19.174  0.00  0.00     0.197 A 
ATOM      8  C   UNL d   1     -39.655  15.167  18.583  0.00  0.00     0.026 A 
ATOM      9  C   UNL d   1     -40.329  14.695  18.516  0.00  0.00     0.041 A 
ATOM     10  O   UNL d   1     -41.314  13.857  19.107  0.00  0.00    -0.286 OA
ATOM     11  C   UNL d   1     -37.945  15.921  20.811  0.00  0.00     0.027 C 
ATOM     12  C   UNL d   1     -39.337  15.540  17.916  0.00  0.00     0.002 A 
ATOM     13  C   UNL d   1     -40.691  14.592  17.780  0.00  0.00     0.003 A 
ATOM     14  C   UNL d   1     -40.376  14.962  17.122  0.00  0.00     0.000 A 
ATOM     15  C   UNL d   1     -39.702  15.433  17.189  0.00  0.00     0.000 A 
ENDROOT
BRANCH   3  16
ATOM     16  C   UNL d   1     -40.619  14.041  20.584  0.00  0.00     0.102 C 
BRANCH  16  17
ATOM     17  N   UNL d   1     -41.426  13.829  20.605  0.00  0.00    -0.241 NA
BRANCH  17  18
ATOM     18  C   UNL d   1     -41.673  13.242  21.115  0.00  0.00     0.118 C 
BRANCH  18  19
ATOM     19  C   UNL d   1     -42.489  13.172  21.299  0.00  0.00     0.101 A 
ATOM     20  N   UNL d   1     -42.974  13.834  21.314  0.00  0.00    -0.242 NA
ATOM     21  C   UNL d   1     -43.776  13.765  21.494  0.00  0.00     0.099 A 
ATOM     22  C   UNL d   1     -44.102  13.033  21.662  0.00  0.00     0.021 A 
ATOM     23  C   UNL d   1     -43.620  12.367  21.649  0.00  0.00     0.003 A 
ATOM     24  C   UNL d   1     -42.818  12.436  21.469  0.00  0.00     0.021 A 
ENDBRANCH  18  19
ENDBRANCH  17  18
ENDBRANCH  16  17
ENDBRANCH   3  16
BRANCH   4  25
ATOM     25  C   UNL d   1     -39.218  14.867  21.441  0.00  0.00     0.302 C 
ATOM     26  O   UNL d   1     -39.841  15.173  21.884  0.00  0.00    -0.259 OA
BRANCH  25  27
ATOM     27  O   UNL d   1     -38.696  14.360  21.764  0.00  0.00    -0.271 OA
BRANCH  27  28
ATOM     28  C   UNL d   1     -38.777  14.109  22.544  0.00  0.00     0.126 C 
ATOM     29  C   UNL d   1     -38.119  13.825  22.966  0.00  0.00     0.029 C 
ENDBRANCH  27  28
ENDBRANCH  25  27
ENDBRANCH   4  25
TORSDOF 7
ENDMDL
