MODEL 1
REMARK VINA RESULT:      -3.5      0.000      0.000
REMARK  4 active torsions:
REMARK  status: ('A' for Active; 'I' for Inactive)
REMARK    1  A    between atoms: S_16  and  C_7 
REMARK    2  A    between atoms: C_10  and  N_11 
REMARK       I    between atoms: N_11  and  C_14 
REMARK    3  A    between atoms: C_14  and  C_20 
REMARK    4  A    between atoms: C_20  and  S_16 
ROOT
ATOM      1  N   UNL d   1      31.983  17.709 -23.873  0.00  0.00    -0.167 N 
ATOM      2  C   UNL d   1      32.540  17.276 -23.454  0.00  0.00     0.220 A 
ATOM      3  C   UNL d   1      31.429  17.329 -24.358  0.00  0.00     0.301 A 
ATOM      4  S   UNL d   1      33.005  17.812 -23.029  0.00  0.00    -0.019 SA
ATOM      5  N   UNL d   1      32.094  18.504 -23.715  0.00  0.00    -0.147 NA
ATOM      6  N   UNL d   1      32.555  16.455 -23.511  0.00  0.00    -0.121 NA
ATOM      7  C   UNL d   1      32.727  18.568 -23.192  0.00  0.00     0.164 A 
ATOM      8  N   UNL d   1      32.011  16.066 -23.989  0.00  0.00    -0.141 NA
ATOM      9  C   UNL d   1      31.451  16.501 -24.410  0.00  0.00     0.161 A 
ATOM     10  O   UNL d   1      30.874  17.760 -24.776  0.00  0.00    -0.263 OA
ATOM     11  C   UNL d   1      30.904  16.115 -24.890  0.00  0.00     0.028 C 
ENDROOT
BRANCH   7  12
ATOM     12  S   UNL d   1      33.032  19.270 -22.883  0.00  0.00    -0.054 SA
BRANCH  12  13
ATOM     13  C   UNL d   1      32.879  19.483 -22.106  0.00  0.00     0.100 C 
BRANCH  13  14
ATOM     14  C   UNL d   1      32.881  20.282 -21.892  0.00  0.00     0.288 C 
ATOM     15  N   UNL d   1      32.552  20.517 -21.169  0.00  0.00    -0.182 NA
ATOM     16  O   UNL d   1      33.210  20.843 -22.400  0.00  0.00    -0.265 OA
BRANCH  15  17
ATOM     17  C   UNL d   1      32.555  21.315 -20.957  0.00  0.00     0.197 A 
ATOM     18  N   UNL d   1      31.920  21.845 -21.035  0.00  0.00    -0.219 NA
ATOM     19  C   UNL d   1      32.166  22.577 -20.757  0.00  0.00     0.108 A 
ATOM     20  C   UNL d   1      32.956  22.504 -20.506  0.00  0.00     0.059 A 
ATOM     21  S   UNL d   1      33.187  21.728 -20.632  0.00  0.00    -0.046 SA
ENDBRANCH  15  17
ENDBRANCH  13  14
ENDBRANCH  12  13
ENDBRANCH   7  12
TORSDOF 4
ENDMDL
MODEL 2
REMARK VINA RESULT:      -3.4      1.325      5.269
REMARK  4 active torsions:
REMARK  status: ('A' for Active; 'I' for Inactive)
REMARK    1  A    between atoms: S_16  and  C_7 
REMARK    2  A    between atoms: C_10  and  N_11 
REMARK       I    between atoms: N_11  and  C_14 
REMARK    3  A    between atoms: C_14  and  C_20 
REMARK    4  A    between atoms: C_20  and  S_16 
ROOT
ATOM      1  N   UNL d   1      32.522  21.531 -21.425  0.00  0.00    -0.167 N 
ATOM      2  C   UNL d   1      32.985  21.729 -22.073  0.00  0.00     0.220 A 
ATOM      3  C   UNL d   1      32.182  22.119 -20.950  0.00  0.00     0.301 A 
ATOM      4  S   UNL d   1      33.237  21.025 -22.425  0.00  0.00    -0.019 SA
ATOM      5  N   UNL d   1      32.484  20.716 -21.369  0.00  0.00    -0.147 NA
ATOM      6  N   UNL d   1      33.117  22.520 -22.259  0.00  0.00    -0.121 NA
ATOM      7  C   UNL d   1      32.927  20.402 -21.989  0.00  0.00     0.164 A 
ATOM      8  N   UNL d   1      32.785  23.113 -21.797  0.00  0.00    -0.141 NA
ATOM      9  C   UNL d   1      32.320  22.914 -21.146  0.00  0.00     0.161 A 
ATOM     10  O   UNL d   1      31.721  21.922 -20.305  0.00  0.00    -0.263 OA
ATOM     11  C   UNL d   1      31.986  23.505 -20.680  0.00  0.00     0.028 C 
ENDROOT
BRANCH   7  12
ATOM     12  S   UNL d   1      33.041  19.601 -22.146  0.00  0.00    -0.054 SA
BRANCH  12  13
ATOM     13  C   UNL d   1      32.881  19.297 -22.892  0.00  0.00     0.100 C 
BRANCH  13  14
ATOM     14  C   UNL d   1      32.832  18.478 -22.998  0.00  0.00     0.288 C 
ATOM     15  N   UNL d   1      32.372  18.168 -23.614  0.00  0.00    -0.182 NA
ATOM     16  O   UNL d   1      33.241  17.972 -22.491  0.00  0.00    -0.265 OA
BRANCH  15  17
ATOM     17  C   UNL d   1      32.324  17.351 -23.719  0.00  0.00     0.197 A 
ATOM     18  N   UNL d   1      31.943  16.813 -23.214  0.00  0.00    -0.219 NA
ATOM     19  C   UNL d   1      32.033  16.061 -23.530  0.00  0.00     0.108 A 
ATOM     20  C   UNL d   1      32.470  16.130 -24.234  0.00  0.00     0.059 A 
ATOM     21  S   UNL d   1      32.645  16.923 -24.343  0.00  0.00    -0.046 SA
ENDBRANCH  15  17
ENDBRANCH  13  14
ENDBRANCH  12  13
ENDBRANCH   7  12
TORSDOF 4
ENDMDL
MODEL 3
REMARK VINA RESULT:      -3.0      1.190      5.297
REMARK  4 active torsions:
REMARK  status: ('A' for Active; 'I' for Inactive)
REMARK    1  A    between atoms: S_16  and  C_7 
REMARK    2  A    between atoms: C_10  and  N_11 
REMARK       I    between atoms: N_11  and  C_14 
REMARK    3  A    between atoms: C_14  and  C_20 
REMARK    4  A    between atoms: C_20  and  S_16 
ROOT
ATOM      1  N   UNL d   1      32.576  21.938 -21.393  0.00  0.00    -0.167 N 
ATOM      2  C   UNL d   1      32.965  21.514 -20.809  0.00  0.00     0.220 A 
ATOM      3  C   UNL d   1      32.232  22.674 -21.227  0.00  0.00     0.301 A 
ATOM      4  S   UNL d   1      33.240  20.814 -21.150  0.00  0.00    -0.019 SA
ATOM      5  N   UNL d   1      32.605  21.512 -22.091  0.00  0.00    -0.147 NA
ATOM      6  N   UNL d   1      33.019  21.818 -20.046  0.00  0.00    -0.121 NA
ATOM      7  C   UNL d   1      33.017  20.815 -21.940  0.00  0.00     0.164 A 
ATOM      8  N   UNL d   1      32.684  22.546 -19.867  0.00  0.00    -0.141 NA
ATOM      9  C   UNL d   1      32.292  22.972 -20.455  0.00  0.00     0.161 A 
ATOM     10  O   UNL d   1      31.844  23.096 -21.809  0.00  0.00    -0.263 OA
ATOM     11  C   UNL d   1      31.954  23.702 -20.280  0.00  0.00     0.028 C 
ENDROOT
BRANCH   7  12
ATOM     12  S   UNL d   1      33.178  20.219 -22.487  0.00  0.00    -0.054 SA
BRANCH  12  13
ATOM     13  C   UNL d   1      32.878  19.463 -22.380  0.00  0.00     0.100 C 
BRANCH  13  14
ATOM     14  C   UNL d   1      32.845  18.940 -23.020  0.00  0.00     0.288 C 
ATOM     15  N   UNL d   1      32.685  18.138 -22.891  0.00  0.00    -0.182 NA
ATOM     16  O   UNL d   1      32.972  19.220 -23.786  0.00  0.00    -0.265 OA
BRANCH  15  17
ATOM     17  C   UNL d   1      32.652  17.618 -23.530  0.00  0.00     0.197 A 
ATOM     18  N   UNL d   1      32.090  17.627 -24.141  0.00  0.00    -0.219 NA
ATOM     19  C   UNL d   1      32.267  17.013 -24.658  0.00  0.00     0.108 A 
ATOM     20  C   UNL d   1      32.941  16.621 -24.368  0.00  0.00     0.059 A 
ATOM     21  S   UNL d   1      33.171  16.997 -23.677  0.00  0.00    -0.046 SA
ENDBRANCH  15  17
ENDBRANCH  13  14
ENDBRANCH  12  13
ENDBRANCH   7  12
TORSDOF 4
ENDMDL
MODEL 4
REMARK VINA RESULT:      -1.2      1.894      2.783
REMARK  4 active torsions:
REMARK  status: ('A' for Active; 'I' for Inactive)
REMARK    1  A    between atoms: S_16  and  C_7 
REMARK    2  A    between atoms: C_10  and  N_11 
REMARK       I    between atoms: N_11  and  C_14 
REMARK    3  A    between atoms: C_14  and  C_20 
REMARK    4  A    between atoms: C_20  and  S_16 
ROOT
ATOM      1  N   UNL d   1      32.988  20.165 -22.951  0.00  0.00    -0.167 N 
ATOM      2  C   UNL d   1      32.928  19.576 -22.384  0.00  0.00     0.220 A 
ATOM      3  C   UNL d   1      32.923  19.986 -23.758  0.00  0.00     0.301 A 
ATOM      4  S   UNL d   1      33.016  19.933 -21.643  0.00  0.00    -0.019 SA
ATOM      5  N   UNL d   1      33.111  20.881 -22.575  0.00  0.00    -0.147 NA
ATOM      6  N   UNL d   1      32.802  18.795 -22.611  0.00  0.00    -0.121 NA
ATOM      7  C   UNL d   1      33.129  20.737 -21.765  0.00  0.00     0.164 A 
ATOM      8  N   UNL d   1      32.735  18.603 -23.407  0.00  0.00    -0.141 NA
ATOM      9  C   UNL d   1      32.795  19.195 -23.978  0.00  0.00     0.161 A 
ATOM     10  O   UNL d   1      32.982  20.572 -24.324  0.00  0.00    -0.263 OA
ATOM     11  C   UNL d   1      32.730  19.007 -24.776  0.00  0.00     0.028 C 
ENDROOT
BRANCH   7  12
ATOM     12  S   UNL d   1      33.241  21.302 -21.174  0.00  0.00    -0.054 SA
BRANCH  12  13
ATOM     13  C   UNL d   1      32.608  21.748 -20.900  0.00  0.00     0.100 C 
BRANCH  13  14
ATOM     14  C   UNL d   1      32.726  22.294 -20.290  0.00  0.00     0.288 C 
ATOM     15  N   UNL d   1      32.575  22.075 -19.505  0.00  0.00    -0.182 NA
ATOM     16  O   UNL d   1      32.993  23.054 -20.464  0.00  0.00    -0.265 OA
BRANCH  15  17
ATOM     17  C   UNL d   1      32.692  22.621 -18.898  0.00  0.00     0.197 A 
ATOM     18  N   UNL d   1      32.283  23.336 -18.794  0.00  0.00    -0.219 NA
ATOM     19  C   UNL d   1      32.578  23.702 -18.121  0.00  0.00     0.108 A 
ATOM     20  C   UNL d   1      33.173  23.215 -17.804  0.00  0.00     0.059 A 
ATOM     21  S   UNL d   1      33.237  22.555 -18.285  0.00  0.00    -0.046 SA
ENDBRANCH  15  17
ENDBRANCH  13  14
ENDBRANCH  12  13
ENDBRANCH   7  12
TORSDOF 4
ENDMDL
MODEL 5
REMARK VINA RESULT:      -1.0      1.745      2.449
REMARK  4 active torsions:
REMARK  status: ('A' for Active; 'I' for Inactive)
REMARK    1  A    between atoms: S_16  and  C_7 
REMARK    2  A    between atoms: C_10  and  N_11 
REMARK       I    between atoms: N_11  and  C_14 
REMARK    3  A    between atoms: C_14  and  C_20 
REMARK    4  A    between atoms: C_20  and  S_16 
ROOT
ATOM      1  N   UNL d   1      30.176  16.842 -24.383  0.00  0.00    -0.167 N 
ATOM      2  C   UNL d   1      30.592  16.278 -24.808  0.00  0.00     0.220 A 
ATOM      3  C   UNL d   1      29.379  16.723 -24.186  0.00  0.00     0.301 A 
ATOM      4  S   UNL d   1      31.362  16.560 -24.911  0.00  0.00    -0.019 SA
ATOM      5  N   UNL d   1      30.675  17.469 -24.219  0.00  0.00    -0.147 NA
ATOM      6  N   UNL d   1      30.220  15.583 -25.047  0.00  0.00    -0.121 NA
ATOM      7  C   UNL d   1      31.410  17.295 -24.547  0.00  0.00     0.164 A 
ATOM      8  N   UNL d   1      29.431  15.453 -24.860  0.00  0.00    -0.141 NA
ATOM      9  C   UNL d   1      29.012  16.020 -24.432  0.00  0.00     0.161 A 
ATOM     10  O   UNL d   1      28.964  17.285 -23.762  0.00  0.00    -0.263 OA
ATOM     11  C   UNL d   1      28.222  15.893 -24.242  0.00  0.00     0.028 C 
ENDROOT
BRANCH   7  12
ATOM     12  S   UNL d   1      32.080  17.774 -24.516  0.00  0.00    -0.054 SA
BRANCH  12  13
ATOM     13  C   UNL d   1      32.484  17.879 -23.809  0.00  0.00     0.100 C 
BRANCH  13  14
ATOM     14  C   UNL d   1      32.726  18.638 -23.584  0.00  0.00     0.288 C 
ATOM     15  N   UNL d   1      32.628  18.887 -22.800  0.00  0.00    -0.182 NA
ATOM     16  O   UNL d   1      33.064  19.144 -24.141  0.00  0.00    -0.265 OA
BRANCH  15  17
ATOM     17  C   UNL d   1      32.870  19.643 -22.577  0.00  0.00     0.197 A 
ATOM     18  N   UNL d   1      33.012  20.283 -23.087  0.00  0.00    -0.219 NA
ATOM     19  C   UNL d   1      33.241  20.926 -22.630  0.00  0.00     0.108 A 
ATOM     20  C   UNL d   1      33.241  20.687 -21.834  0.00  0.00     0.059 A 
ATOM     21  S   UNL d   1      33.012  19.900 -21.809  0.00  0.00    -0.046 SA
ENDBRANCH  15  17
ENDBRANCH  13  14
ENDBRANCH  12  13
ENDBRANCH   7  12
TORSDOF 4
ENDMDL
