MODEL 1
REMARK VINA RESULT:      28.0      0.000      0.000
REMARK  3 active torsions:
REMARK  status: ('A' for Active; 'I' for Inactive)
REMARK    1  A    between atoms: C_2  and  C_4 
REMARK    2  A    between atoms: N_3  and  C_2 
REMARK    3  A    between atoms: C_5  and  N_3 
ROOT
ATOM      1  C   UNL d   1      13.785  12.117  -2.047  0.00  0.00     0.153 C 
ATOM      2  S   UNL d   1      13.192  11.780  -1.585  0.00  0.00    -0.056 SA
ENDROOT
BRANCH   1   3
ATOM      3  C   UNL d   1      13.598  12.445  -2.780  0.00  0.00     0.109 A 
ATOM      4  N   UNL d   1      13.459  11.946  -3.437  0.00  0.00    -0.243 NA
ATOM      5  C   UNL d   1      13.271  12.277  -4.172  0.00  0.00     0.081 A 
ATOM      6  C   UNL d   1      13.222  13.101  -4.253  0.00  0.00     0.018 A 
ATOM      7  C   UNL d   1      13.134  11.790  -4.821  0.00  0.00     0.019 A 
ATOM      8  C   UNL d   1      13.359  13.594  -3.603  0.00  0.00     0.003 A 
ATOM      9  C   UNL d   1      13.035  13.425  -4.984  0.00  0.00     0.002 A 
ATOM     10  C   UNL d   1      13.547  13.266  -2.870  0.00  0.00     0.021 A 
ATOM     11  C   UNL d   1      12.898  12.943  -5.632  0.00  0.00     0.000 A 
ATOM     12  C   UNL d   1      12.947  12.126  -5.550  0.00  0.00     0.002 A 
ENDBRANCH   1   3
BRANCH   1  13
ATOM     13  N   UNL d   1      14.564  12.127  -1.780  0.00  0.00    -0.233 NA
BRANCH  13  14
ATOM     14  C   UNL d   1      14.839  12.772  -1.339  0.00  0.00     0.082 A 
ATOM     15  C   UNL d   1      15.466  12.660  -0.805  0.00  0.00     0.018 A 
ATOM     16  C   UNL d   1      15.735  13.309  -0.367  0.00  0.00     0.002 A 
ATOM     17  C   UNL d   1      15.811  11.920  -0.713  0.00  0.00     0.002 C 
ATOM     18  C   UNL d   1      15.390  14.050  -0.459  0.00  0.00     0.000 A 
ATOM     19  C   UNL d   1      14.767  14.153  -0.992  0.00  0.00     0.002 A 
ATOM     20  C   UNL d   1      15.666  14.694  -0.017  0.00  0.00     0.000 C 
ATOM     21  C   UNL d   1      14.491  13.512  -1.433  0.00  0.00     0.019 A 
ENDBRANCH  13  14
ENDBRANCH   1  13
TORSDOF 3
ENDMDL
