MODEL 1
REMARK VINA RESULT:      -8.1      0.000      0.000
REMARK  3 active torsions:
REMARK  status: ('A' for Active; 'I' for Inactive)
REMARK    1  A    between atoms: C_2  and  N_1 
REMARK    2  A    between atoms: C_4  and  N_1 
REMARK    3  A    between atoms: C_3  and  C_2 
ROOT
ATOM      1  N   UNL d   1      53.623  32.677  53.539  0.00  0.00    -0.182 N 
ATOM      2  O   UNL d   1      54.411  32.425  53.546  0.00  0.00    -0.080 OA
ENDROOT
BRANCH   1   3
ATOM      3  C   UNL d   1      53.030  32.163  53.285  0.00  0.00     0.133 C 
BRANCH   3   4
ATOM      4  C   UNL d   1      53.130  31.351  53.356  0.00  0.00     0.120 A 
ATOM      5  O   UNL d   1      53.596  30.891  53.867  0.00  0.00    -0.304 OA
ATOM      6  C   UNL d   1      53.471  30.093  53.680  0.00  0.00     0.123 A 
ATOM      7  C   UNL d   1      52.928  30.057  53.052  0.00  0.00     0.029 A 
ATOM      8  C   UNL d   1      52.721  30.831  52.856  0.00  0.00     0.028 A 
ENDBRANCH   3   4
ENDBRANCH   1   3
BRANCH   1   9
ATOM      9  C   UNL d   1      53.429  33.455  53.790  0.00  0.00     0.090 A 
ATOM     10  C   UNL d   1      53.646  33.695  54.541  0.00  0.00     0.021 A 
ATOM     11  C   UNL d   1      53.453  34.466  54.790  0.00  0.00     0.013 A 
ATOM     12  C   UNL d   1      53.049  34.971  54.279  0.00  0.00     0.058 A 
ATOM     13  C   UNL d   1      52.835  34.719  53.526  0.00  0.00     0.013 A 
ATOM     14 CL   UNL d   1      52.859  35.730  54.524  0.00  0.00    -0.082 Cl
ATOM     15  C   UNL d   1      53.028  33.948  53.277  0.00  0.00     0.021 A 
ENDBRANCH   1   9
TORSDOF 3
ENDMDL
MODEL 2
REMARK VINA RESULT:      -8.0      1.818      3.639
REMARK  3 active torsions:
REMARK  status: ('A' for Active; 'I' for Inactive)
REMARK    1  A    between atoms: C_2  and  N_1 
REMARK    2  A    between atoms: C_4  and  N_1 
REMARK    3  A    between atoms: C_3  and  C_2 
ROOT
ATOM      1  N   UNL d   1      53.450  32.768  53.430  0.00  0.00    -0.182 N 
ATOM      2  O   UNL d   1      54.217  33.068  53.358  0.00  0.00    -0.080 OA
ENDROOT
BRANCH   1   3
ATOM      3  C   UNL d   1      52.816  33.284  53.543  0.00  0.00     0.133 C 
BRANCH   3   4
ATOM      4  C   UNL d   1      52.933  34.004  53.922  0.00  0.00     0.120 A 
ATOM      5  O   UNL d   1      53.259  34.196  54.661  0.00  0.00    -0.304 OA
ATOM      6  C   UNL d   1      53.232  35.020  54.747  0.00  0.00     0.123 A 
ATOM      7  C   UNL d   1      52.890  35.341  54.062  0.00  0.00     0.029 A 
ATOM      8  C   UNL d   1      52.707  34.714  53.557  0.00  0.00     0.028 A 
ENDBRANCH   3   4
ENDBRANCH   1   3
BRANCH   1   9
ATOM      9  C   UNL d   1      53.316  31.940  53.387  0.00  0.00     0.090 A 
ATOM     10  C   UNL d   1      53.789  31.439  53.828  0.00  0.00     0.021 A 
ATOM     11  C   UNL d   1      53.657  30.618  53.786  0.00  0.00     0.013 A 
ATOM     12  C   UNL d   1      53.056  30.325  53.303  0.00  0.00     0.058 A 
ATOM     13  C   UNL d   1      52.587  30.838  52.863  0.00  0.00     0.013 A 
ATOM     14 CL   UNL d   1      52.926  29.517  53.261  0.00  0.00    -0.082 Cl
ATOM     15  C   UNL d   1      52.719  31.659  52.906  0.00  0.00     0.021 A 
ENDBRANCH   1   9
TORSDOF 3
ENDMDL
MODEL 3
REMARK VINA RESULT:      -7.7      2.186      2.870
REMARK  3 active torsions:
REMARK  status: ('A' for Active; 'I' for Inactive)
REMARK    1  A    between atoms: C_2  and  N_1 
REMARK    2  A    between atoms: C_4  and  N_1 
REMARK    3  A    between atoms: C_3  and  C_2 
ROOT
ATOM      1  N   UNL d   1      52.668  33.395  53.505  0.00  0.00    -0.182 N 
ATOM      2  O   UNL d   1      53.003  32.673  53.280  0.00  0.00    -0.080 OA
ENDROOT
BRANCH   1   3
ATOM      3  C   UNL d   1      53.040  33.860  54.076  0.00  0.00     0.133 C 
BRANCH   3   4
ATOM      4  C   UNL d   1      53.629  33.538  54.550  0.00  0.00     0.120 A 
ATOM      5  O   UNL d   1      53.693  32.805  54.935  0.00  0.00    -0.304 OA
ATOM      6  C   UNL d   1      54.418  32.790  55.337  0.00  0.00     0.123 A 
ATOM      7  C   UNL d   1      54.804  33.512  55.203  0.00  0.00     0.029 A 
ATOM      8  C   UNL d   1      54.316  33.970  54.719  0.00  0.00     0.028 A 
ENDBRANCH   3   4
ENDBRANCH   1   3
BRANCH   1   9
ATOM      9  C   UNL d   1      51.950  33.653  53.153  0.00  0.00     0.090 A 
ATOM     10  C   UNL d   1      51.984  34.143  52.498  0.00  0.00     0.021 A 
ATOM     11  C   UNL d   1      51.272  34.399  52.149  0.00  0.00     0.013 A 
ATOM     12  C   UNL d   1      50.551  34.156  52.467  0.00  0.00     0.058 A 
ATOM     13  C   UNL d   1      50.529  33.664  53.125  0.00  0.00     0.013 A 
ATOM     14 CL   UNL d   1      49.851  34.408  52.124  0.00  0.00    -0.082 Cl
ATOM     15  C   UNL d   1      51.241  33.407  53.474  0.00  0.00     0.021 A 
ENDBRANCH   1   9
TORSDOF 3
ENDMDL
MODEL 4
REMARK VINA RESULT:      -7.6      1.980      2.984
REMARK  3 active torsions:
REMARK  status: ('A' for Active; 'I' for Inactive)
REMARK    1  A    between atoms: C_2  and  N_1 
REMARK    2  A    between atoms: C_4  and  N_1 
REMARK    3  A    between atoms: C_3  and  C_2 
ROOT
ATOM      1  N   UNL d   1      52.516  33.326  53.511  0.00  0.00    -0.182 N 
ATOM      2  O   UNL d   1      52.360  32.643  53.072  0.00  0.00    -0.080 OA
ENDROOT
BRANCH   1   3
ATOM      3  C   UNL d   1      51.967  33.943  53.520  0.00  0.00     0.133 C 
BRANCH   3   4
ATOM      4  C   UNL d   1      51.454  34.047  52.886  0.00  0.00     0.120 A 
ATOM      5  O   UNL d   1      51.585  34.087  52.067  0.00  0.00    -0.304 OA
ATOM      6  C   UNL d   1      50.852  34.200  51.696  0.00  0.00     0.123 A 
ATOM      7  C   UNL d   1      50.266  34.230  52.284  0.00  0.00     0.029 A 
ATOM      8  C   UNL d   1      50.640  34.136  53.014  0.00  0.00     0.028 A 
ENDBRANCH   3   4
ENDBRANCH   1   3
BRANCH   1   9
ATOM      9  C   UNL d   1      53.230  33.391  53.948  0.00  0.00     0.090 A 
ATOM     10  C   UNL d   1      53.897  33.000  53.678  0.00  0.00     0.021 A 
ATOM     11  C   UNL d   1      54.605  33.065  54.111  0.00  0.00     0.013 A 
ATOM     12  C   UNL d   1      54.624  33.519  54.799  0.00  0.00     0.058 A 
ATOM     13  C   UNL d   1      53.948  33.908  55.061  0.00  0.00     0.013 A 
ATOM     14 CL   UNL d   1      55.321  33.583  55.225  0.00  0.00    -0.082 Cl
ATOM     15  C   UNL d   1      53.239  33.843  54.628  0.00  0.00     0.021 A 
ENDBRANCH   1   9
TORSDOF 3
ENDMDL
