MODEL 1
REMARK VINA RESULT:      -5.8      0.000      0.000
REMARK  3 active torsions:
REMARK  status: ('A' for Active; 'I' for Inactive)
REMARK    1  A    between atoms: C_3  and  C_1 
REMARK       I    between atoms: N_6  and  C_3 
REMARK    2  A    between atoms: C_12  and  N_5 
REMARK    3  A    between atoms: C_8  and  N_6 
ROOT
ATOM      1  C   UNL d   1     -41.384-121.952 -52.063  0.00  0.00     0.348 C 
ATOM      2  N   UNL d   1     -41.546-122.439 -51.407  0.00  0.00    -0.362 NA
ATOM      3  O   UNL d   1     -41.124-121.149 -51.945  0.00  0.00    -0.249 OA
ENDROOT
BRANCH   1   4
ATOM      4  C   UNL d   1     -41.481-122.260 -52.833  0.00  0.00     0.173 A 
ATOM      5  N   UNL d   1     -41.942-121.921 -53.438  0.00  0.00    -0.159 NA
ATOM      6  N   UNL d   1     -41.875-122.416 -54.105  0.00  0.00    -0.227 N 
ATOM      7  C   UNL d   1     -41.382-123.045 -53.911  0.00  0.00     0.102 A 
ATOM      8  C   UNL d   1     -41.135-122.954 -53.125  0.00  0.00     0.048 A 
BRANCH   6   9
ATOM      9  C   UNL d   1     -42.243-122.292 -54.835  0.00  0.00     0.101 C 
ATOM     10  C   UNL d   1     -42.029-121.915 -55.537  0.00  0.00     0.022 C 
ENDBRANCH   6   9
ENDBRANCH   1   4
BRANCH   2  11
ATOM     11  C   UNL d   1     -41.677-122.831 -50.690  0.00  0.00     0.146 A 
ATOM     12  C   UNL d   1     -42.366-122.674 -50.244  0.00  0.00     0.087 A 
ATOM     13 CL   UNL d   1     -42.922-122.120 -50.528  0.00  0.00    -0.080 Cl
ATOM     14  C   UNL d   1     -42.494-123.058 -49.542  0.00  0.00     0.014 A 
ATOM     15  C   UNL d   1     -41.940-123.604 -49.270  0.00  0.00     0.001 A 
ATOM     16  C   UNL d   1     -41.256-123.765 -49.703  0.00  0.00     0.003 A 
ATOM     17  C   UNL d   1     -41.123-123.377 -50.418  0.00  0.00     0.033 A 
ENDBRANCH   2  11
TORSDOF 3
ENDMDL
MODEL 2
REMARK VINA RESULT:      -5.7      1.161      3.812
REMARK  3 active torsions:
REMARK  status: ('A' for Active; 'I' for Inactive)
REMARK    1  A    between atoms: C_3  and  C_1 
REMARK       I    between atoms: N_6  and  C_3 
REMARK    2  A    between atoms: C_12  and  N_5 
REMARK    3  A    between atoms: C_8  and  N_6 
ROOT
ATOM      1  C   UNL d   1     -41.395-121.911 -51.961  0.00  0.00     0.348 C 
ATOM      2  N   UNL d   1     -41.457-122.355 -52.662  0.00  0.00    -0.362 NA
ATOM      3  O   UNL d   1     -41.123-121.103 -51.989  0.00  0.00    -0.249 OA
ENDROOT
BRANCH   1   4
ATOM      4  C   UNL d   1     -41.600-122.267 -51.234  0.00  0.00     0.173 A 
ATOM      5  N   UNL d   1     -42.317-122.159 -50.824  0.00  0.00    -0.159 NA
ATOM      6  N   UNL d   1     -42.277-122.619 -50.131  0.00  0.00    -0.227 N 
ATOM      7  C   UNL d   1     -41.548-123.002 -50.117  0.00  0.00     0.102 A 
ATOM      8  C   UNL d   1     -41.126-122.787 -50.797  0.00  0.00     0.048 A 
BRANCH   6   9
ATOM      9  C   UNL d   1     -42.870-122.678 -49.558  0.00  0.00     0.101 C 
ATOM     10  C   UNL d   1     -43.021-123.190 -48.929  0.00  0.00     0.022 C 
ENDBRANCH   6   9
ENDBRANCH   1   4
BRANCH   2  11
ATOM     11  C   UNL d   1     -41.482-122.700 -53.415  0.00  0.00     0.146 A 
ATOM     12  C   UNL d   1     -41.862-122.307 -54.046  0.00  0.00     0.087 A 
ATOM     13 CL   UNL d   1     -42.218-121.564 -53.913  0.00  0.00    -0.080 Cl
ATOM     14  C   UNL d   1     -41.886-122.645 -54.782  0.00  0.00     0.014 A 
ATOM     15  C   UNL d   1     -41.532-123.380 -54.905  0.00  0.00     0.001 A 
ATOM     16  C   UNL d   1     -41.154-123.775 -54.286  0.00  0.00     0.003 A 
ATOM     17  C   UNL d   1     -41.128-123.434 -53.536  0.00  0.00     0.033 A 
ENDBRANCH   2  11
TORSDOF 3
ENDMDL
MODEL 3
REMARK VINA RESULT:      -4.5      1.391      2.003
REMARK  3 active torsions:
REMARK  status: ('A' for Active; 'I' for Inactive)
REMARK    1  A    between atoms: C_3  and  C_1 
REMARK       I    between atoms: N_6  and  C_3 
REMARK    2  A    between atoms: C_12  and  N_5 
REMARK    3  A    between atoms: C_8  and  N_6 
ROOT
ATOM      1  C   UNL d   1     -42.518-122.461 -50.511  0.00  0.00     0.348 C 
ATOM      2  N   UNL d   1     -42.242-122.814 -49.810  0.00  0.00    -0.362 NA
ATOM      3  O   UNL d   1     -43.303-122.132 -50.543  0.00  0.00    -0.249 OA
ENDROOT
BRANCH   1   4
ATOM      4  C   UNL d   1     -42.017-122.435 -51.179  0.00  0.00     0.173 A 
ATOM      5  N   UNL d   1     -41.931-123.039 -51.747  0.00  0.00    -0.159 NA
ATOM      6  N   UNL d   1     -41.377-122.772 -52.308  0.00  0.00    -0.227 N 
ATOM      7  C   UNL d   1     -41.129-122.019 -52.088  0.00  0.00     0.102 A 
ATOM      8  C   UNL d   1     -41.522-121.806 -51.389  0.00  0.00     0.048 A 
BRANCH   6   9
ATOM      9  C   UNL d   1     -41.123-123.194 -52.972  0.00  0.00     0.101 C 
ATOM     10  C   UNL d   1     -41.202-123.098 -53.787  0.00  0.00     0.022 C 
ENDBRANCH   6   9
ENDBRANCH   1   4
BRANCH   2  11
ATOM     11  C   UNL d   1     -42.071-123.138 -49.067  0.00  0.00     0.146 A 
ATOM     12  C   UNL d   1     -42.676-123.497 -48.615  0.00  0.00     0.087 A 
ATOM     13 CL   UNL d   1     -43.452-123.526 -48.918  0.00  0.00    -0.080 Cl
ATOM     14  C   UNL d   1     -42.508-123.814 -47.888  0.00  0.00     0.014 A 
ATOM     15  C   UNL d   1     -41.738-123.780 -47.597  0.00  0.00     0.001 A 
ATOM     16  C   UNL d   1     -41.134-123.428 -48.036  0.00  0.00     0.003 A 
ATOM     17  C   UNL d   1     -41.301-123.105 -48.776  0.00  0.00     0.033 A 
ENDBRANCH   2  11
TORSDOF 3
ENDMDL
