MODEL 1
REMARK VINA RESULT:      -8.0      0.000      0.000
REMARK  6 active torsions:
REMARK  status: ('A' for Active; 'I' for Inactive)
REMARK    1  A    between atoms: C_3  and  N_1 
REMARK    2  A    between atoms: N_7  and  C_3 
REMARK    3  A    between atoms: C_9  and  C_4 
REMARK    4  A    between atoms: C_10  and  C_5 
REMARK    5  A    between atoms: C_15  and  N_7 
REMARK    6  A    between atoms: O_23  and  C_17 
ROOT
ATOM      1  N   UNL d   1      53.036  32.551  53.387  0.00  0.00    -0.203 N 
ATOM      2  N   UNL d   1      52.574  33.221  53.183  0.00  0.00    -0.163 NA
ATOM      3  C   UNL d   1      51.825  32.953  52.985  0.00  0.00     0.103 A 
ATOM      4  C   UNL d   1      52.556  31.874  53.311  0.00  0.00     0.087 A 
ATOM      5  C   UNL d   1      51.792  32.150  53.055  0.00  0.00     0.040 A 
ENDROOT
BRANCH   1   6
ATOM      6  C   UNL d   1      53.842  32.554  53.629  0.00  0.00     0.222 C 
ATOM      7  S   UNL d   1      54.427  32.571  53.057  0.00  0.00    -0.037 SA
BRANCH   6   8
ATOM      8  N   UNL d   1      54.030  32.540  54.429  0.00  0.00    -0.217 NA
BRANCH   8   9
ATOM      9  C   UNL d   1      54.554  33.092  54.738  0.00  0.00     0.084 A 
ATOM     10  C   UNL d   1      54.420  33.382  55.509  0.00  0.00     0.019 A 
ATOM     11  C   UNL d   1      54.945  33.937  55.822  0.00  0.00     0.002 A 
ATOM     12  C   UNL d   1      55.569  34.180  55.373  0.00  0.00     0.000 A 
ATOM     13  C   UNL d   1      55.698  33.896  54.621  0.00  0.00     0.002 A 
ATOM     14  C   UNL d   1      55.192  33.353  54.304  0.00  0.00     0.019 A 
ENDBRANCH   8   9
ENDBRANCH   6   8
ENDBRANCH   1   6
BRANCH   4  15
ATOM     15  C   UNL d   1      52.743  31.074  53.446  0.00  0.00     0.018 A 
ATOM     16  C   UNL d   1      52.646  30.737  54.192  0.00  0.00     0.004 A 
ATOM     17  C   UNL d   1      52.835  29.941  54.315  0.00  0.00     0.024 A 
ATOM     18  C   UNL d   1      53.116  29.489  53.713  0.00  0.00     0.094 A 
ATOM     19  C   UNL d   1      53.221  29.822  52.943  0.00  0.00     0.024 A 
ATOM     20  C   UNL d   1      53.031  30.614  52.827  0.00  0.00     0.004 A 
BRANCH  18  21
ATOM     21  O   UNL d   1      53.300  28.674  53.881  0.00  0.00    -0.328 OA
ATOM     22  C   UNL d   1      53.575  28.452  54.642  0.00  0.00     0.181 C 
ENDBRANCH  18  21
ENDBRANCH   4  15
BRANCH   3  23
ATOM     23  C   UNL d   1      51.221  33.468  52.752  0.00  0.00     0.019 A 
ATOM     24  C   UNL d   1      51.173  33.747  51.989  0.00  0.00     0.002 A 
ATOM     25  C   UNL d   1      50.572  34.259  51.757  0.00  0.00     0.007 A 
ATOM     26  C   UNL d   1      50.008  34.495  52.312  0.00  0.00     0.035 A 
ATOM     27  C   UNL d   1      50.049  34.215  53.093  0.00  0.00     0.007 A 
ATOM     28 BR   UNL d   1      49.396  35.010  52.097  0.00  0.00    -0.049 Br
ATOM     29  C   UNL d   1      50.653  33.700  53.325  0.00  0.00     0.002 A 
ENDBRANCH   3  23
TORSDOF 6
ENDMDL
MODEL 2
REMARK VINA RESULT:      -7.5      1.490      3.363
REMARK  6 active torsions:
REMARK  status: ('A' for Active; 'I' for Inactive)
REMARK    1  A    between atoms: C_3  and  N_1 
REMARK    2  A    between atoms: N_7  and  C_3 
REMARK    3  A    between atoms: C_9  and  C_4 
REMARK    4  A    between atoms: C_10  and  C_5 
REMARK    5  A    between atoms: C_15  and  N_7 
REMARK    6  A    between atoms: O_23  and  C_17 
ROOT
ATOM      1  N   UNL d   1      52.123  32.982  53.072  0.00  0.00    -0.203 N 
ATOM      2  N   UNL d   1      51.398  33.097  52.665  0.00  0.00    -0.163 NA
ATOM      3  C   UNL d   1      51.170  33.876  52.784  0.00  0.00     0.103 A 
ATOM      4  C   UNL d   1      52.329  33.701  53.439  0.00  0.00     0.087 A 
ATOM      5  C   UNL d   1      51.713  34.254  53.245  0.00  0.00     0.040 A 
ENDROOT
BRANCH   1   6
ATOM      6  C   UNL d   1      52.568  32.269  53.108  0.00  0.00     0.222 C 
ATOM      7  S   UNL d   1      53.224  32.186  52.625  0.00  0.00    -0.037 SA
BRANCH   6   8
ATOM      8  N   UNL d   1      52.341  31.670  53.623  0.00  0.00    -0.217 NA
BRANCH   8   9
ATOM      9  C   UNL d   1      52.639  30.910  53.527  0.00  0.00     0.084 A 
ATOM     10  C   UNL d   1      53.173  30.615  54.096  0.00  0.00     0.019 A 
ATOM     11  C   UNL d   1      53.474  29.852  54.001  0.00  0.00     0.002 A 
ATOM     12  C   UNL d   1      53.241  29.417  53.363  0.00  0.00     0.000 A 
ATOM     13  C   UNL d   1      52.719  29.706  52.809  0.00  0.00     0.002 A 
ATOM     14  C   UNL d   1      52.419  30.451  52.890  0.00  0.00     0.019 A 
ENDBRANCH   8   9
ENDBRANCH   6   8
ENDBRANCH   1   6
BRANCH   4  15
ATOM     15  C   UNL d   1      52.993  33.884  53.908  0.00  0.00     0.018 A 
ATOM     16  C   UNL d   1      53.722  34.053  53.563  0.00  0.00     0.004 A 
ATOM     17  C   UNL d   1      54.374  34.234  54.039  0.00  0.00     0.024 A 
ATOM     18  C   UNL d   1      54.307  34.246  54.839  0.00  0.00     0.094 A 
ATOM     19  C   UNL d   1      53.564  34.075  55.206  0.00  0.00     0.024 A 
ATOM     20  C   UNL d   1      52.920  33.896  54.728  0.00  0.00     0.004 A 
BRANCH  18  21
ATOM     21  O   UNL d   1      55.002  34.437  55.294  0.00  0.00    -0.328 OA
ATOM     22  C   UNL d   1      55.535  33.831  55.521  0.00  0.00     0.181 C 
ENDBRANCH  18  21
ENDBRANCH   4  15
BRANCH   3  23
ATOM     23  C   UNL d   1      50.474  34.184  52.460  0.00  0.00     0.019 A 
ATOM     24  C   UNL d   1      50.318  34.125  51.663  0.00  0.00     0.002 A 
ATOM     25  C   UNL d   1      49.626  34.432  51.340  0.00  0.00     0.007 A 
ATOM     26  C   UNL d   1      49.081  34.807  51.835  0.00  0.00     0.035 A 
ATOM     27  C   UNL d   1      49.234  34.872  52.649  0.00  0.00     0.007 A 
ATOM     28 BR   UNL d   1      48.380  35.122  51.527  0.00  0.00    -0.049 Br
ATOM     29  C   UNL d   1      49.930  34.563  52.973  0.00  0.00     0.002 A 
ENDBRANCH   3  23
TORSDOF 6
ENDMDL
MODEL 3
REMARK VINA RESULT:      -6.0      2.585      5.099
REMARK  6 active torsions:
REMARK  status: ('A' for Active; 'I' for Inactive)
REMARK    1  A    between atoms: C_3  and  N_1 
REMARK    2  A    between atoms: N_7  and  C_3 
REMARK    3  A    between atoms: C_9  and  C_4 
REMARK    4  A    between atoms: C_10  and  C_5 
REMARK    5  A    between atoms: C_15  and  N_7 
REMARK    6  A    between atoms: O_23  and  C_17 
ROOT
ATOM      1  N   UNL d   1      51.871  33.251  52.933  0.00  0.00    -0.203 N 
ATOM      2  N   UNL d   1      51.902  32.417  52.836  0.00  0.00    -0.163 NA
ATOM      3  C   UNL d   1      52.531  32.141  53.284  0.00  0.00     0.103 A 
ATOM      4  C   UNL d   1      52.489  33.473  53.445  0.00  0.00     0.087 A 
ATOM      5  C   UNL d   1      52.895  32.756  53.657  0.00  0.00     0.040 A 
ENDROOT
BRANCH   1   6
ATOM      6  C   UNL d   1      51.316  33.774  52.578  0.00  0.00     0.222 C 
ATOM      7  S   UNL d   1      51.521  34.159  51.886  0.00  0.00    -0.037 SA
BRANCH   6   8
ATOM      8  N   UNL d   1      50.582  33.891  52.928  0.00  0.00    -0.217 NA
BRANCH   8   9
ATOM      9  C   UNL d   1      49.983  34.269  52.511  0.00  0.00     0.084 A 
ATOM     10  C   UNL d   1      49.530  34.852  52.901  0.00  0.00     0.019 A 
ATOM     11  C   UNL d   1      48.928  35.232  52.484  0.00  0.00     0.002 A 
ATOM     12  C   UNL d   1      48.796  35.028  51.715  0.00  0.00     0.000 A 
ATOM     13  C   UNL d   1      49.239  34.459  51.337  0.00  0.00     0.002 A 
ATOM     14  C   UNL d   1      49.830  34.080  51.733  0.00  0.00     0.019 A 
ENDBRANCH   8   9
ENDBRANCH   6   8
ENDBRANCH   1   6
BRANCH   4  15
ATOM     15  C   UNL d   1      52.701  34.231  53.720  0.00  0.00     0.018 A 
ATOM     16  C   UNL d   1      53.133  34.748  53.246  0.00  0.00     0.004 A 
ATOM     17  C   UNL d   1      53.338  35.497  53.529  0.00  0.00     0.024 A 
ATOM     18  C   UNL d   1      53.120  35.731  54.266  0.00  0.00     0.094 A 
ATOM     19  C   UNL d   1      52.676  35.210  54.764  0.00  0.00     0.024 A 
ATOM     20  C   UNL d   1      52.476  34.466  54.476  0.00  0.00     0.004 A 
BRANCH  18  21
ATOM     21  O   UNL d   1      53.351  36.510  54.521  0.00  0.00    -0.328 OA
ATOM     22  C   UNL d   1      53.333  36.709  55.336  0.00  0.00     0.181 C 
ENDBRANCH  18  21
ENDBRANCH   4  15
BRANCH   3  23
ATOM     23  C   UNL d   1      52.726  31.337  53.319  0.00  0.00     0.019 A 
ATOM     24  C   UNL d   1      53.501  31.093  53.367  0.00  0.00     0.002 A 
ATOM     25  C   UNL d   1      53.695  30.294  53.402  0.00  0.00     0.007 A 
ATOM     26  C   UNL d   1      53.091  29.731  53.388  0.00  0.00     0.035 A 
ATOM     27  C   UNL d   1      52.298  29.973  53.339  0.00  0.00     0.007 A 
ATOM     28 BR   UNL d   1      53.268  28.922  53.422  0.00  0.00    -0.049 Br
ATOM     29  C   UNL d   1      52.103  30.776  53.304  0.00  0.00     0.002 A 
ENDBRANCH   3  23
TORSDOF 6
ENDMDL
MODEL 4
REMARK VINA RESULT:      -5.8      2.114      4.000
REMARK  6 active torsions:
REMARK  status: ('A' for Active; 'I' for Inactive)
REMARK    1  A    between atoms: C_3  and  N_1 
REMARK    2  A    between atoms: N_7  and  C_3 
REMARK    3  A    between atoms: C_9  and  C_4 
REMARK    4  A    between atoms: C_10  and  C_5 
REMARK    5  A    between atoms: C_15  and  N_7 
REMARK    6  A    between atoms: O_23  and  C_17 
ROOT
ATOM      1  N   UNL d   1      53.070  32.691  53.472  0.00  0.00    -0.203 N 
ATOM      2  N   UNL d   1      53.396  31.942  53.666  0.00  0.00    -0.163 NA
ATOM      3  C   UNL d   1      52.812  31.380  53.544  0.00  0.00     0.103 A 
ATOM      4  C   UNL d   1      52.281  32.573  53.232  0.00  0.00     0.087 A 
ATOM      5  C   UNL d   1      52.137  31.736  53.284  0.00  0.00     0.040 A 
ENDROOT
BRANCH   1   6
ATOM      6  C   UNL d   1      53.464  33.433  53.511  0.00  0.00     0.222 C 
ATOM      7  S   UNL d   1      53.817  33.731  52.836  0.00  0.00    -0.037 SA
BRANCH   6   8
ATOM      8  N   UNL d   1      53.490  33.846  54.221  0.00  0.00    -0.217 NA
BRANCH   8   9
ATOM      9  C   UNL d   1      54.193  33.895  54.644  0.00  0.00     0.084 A 
ATOM     10  C   UNL d   1      54.180  33.731  55.462  0.00  0.00     0.019 A 
ATOM     11  C   UNL d   1      54.885  33.780  55.888  0.00  0.00     0.002 A 
ATOM     12  C   UNL d   1      55.562  33.984  55.501  0.00  0.00     0.000 A 
ATOM     13  C   UNL d   1      55.573  34.143  54.702  0.00  0.00     0.002 A 
ATOM     14  C   UNL d   1      54.891  34.099  54.274  0.00  0.00     0.019 A 
ENDBRANCH   8   9
ENDBRANCH   6   8
ENDBRANCH   1   6
BRANCH   4  15
ATOM     15  C   UNL d   1      51.715  33.132  52.983  0.00  0.00     0.018 A 
ATOM     16  C   UNL d   1      51.757  33.472  52.233  0.00  0.00     0.004 A 
ATOM     17  C   UNL d   1      51.189  34.025  51.998  0.00  0.00     0.024 A 
ATOM     18  C   UNL d   1      50.593  34.237  52.492  0.00  0.00     0.094 A 
ATOM     19  C   UNL d   1      50.538  33.896  53.264  0.00  0.00     0.024 A 
ATOM     20  C   UNL d   1      51.105  33.346  53.493  0.00  0.00     0.004 A 
BRANCH  18  21
ATOM     21  O   UNL d   1      50.028  34.810  52.211  0.00  0.00    -0.328 OA
ATOM     22  C   UNL d   1      49.248  34.820  52.520  0.00  0.00     0.181 C 
ENDBRANCH  18  21
ENDBRANCH   4  15
BRANCH   3  23
ATOM     23  C   UNL d   1      52.942  30.574  53.682  0.00  0.00     0.019 A 
ATOM     24  C   UNL d   1      52.836  30.023  53.092  0.00  0.00     0.002 A 
ATOM     25  C   UNL d   1      52.965  29.222  53.228  0.00  0.00     0.007 A 
ATOM     26  C   UNL d   1      53.206  28.974  53.979  0.00  0.00     0.035 A 
ATOM     27  C   UNL d   1      53.317  29.531  54.585  0.00  0.00     0.007 A 
ATOM     28 BR   UNL d   1      53.341  28.171  54.133  0.00  0.00    -0.049 Br
ATOM     29  C   UNL d   1      53.187  30.336  54.447  0.00  0.00     0.002 A 
ENDBRANCH   3  23
TORSDOF 6
ENDMDL
