MODEL 1
REMARK VINA RESULT:      49.6      0.000      0.000
REMARK  5 active torsions:
REMARK  status: ('A' for Active; 'I' for Inactive)
REMARK    1  A    between atoms: C_8  and  C_1 
REMARK    2  A    between atoms: C_6  and  O_10 
REMARK       I    between atoms: N_7  and  C_6 
REMARK    3  A    between atoms: C_15  and  C_8 
REMARK    4  A    between atoms: O_10  and  C_12 
REMARK    5  A    between atoms: C_27  and  C_18 
ROOT
ATOM      1  C   UNL d   1      13.235  12.475  -3.502  0.00  0.00     0.139 A 
ATOM      2  C   UNL d   1      13.122  13.278  -4.572  0.00  0.00     0.064 A 
ATOM      3  C   UNL d   1      13.053  12.500  -4.307  0.00  0.00     0.220 A 
ATOM      4  C   UNL d   1      13.347  13.744  -3.934  0.00  0.00     0.105 A 
ATOM      5  O   UNL d   1      13.420  13.251  -3.262  0.00  0.00    -0.304 OA
ATOM      6  C   UNL d   1      13.458  14.551  -4.032  0.00  0.00     0.050 A 
ATOM      7  C   UNL d   1      13.007  13.616  -5.314  0.00  0.00     0.007 A 
ATOM      8  C   UNL d   1      13.345  14.885  -4.765  0.00  0.00     0.107 A 
ATOM      9  O   UNL d   1      12.836  11.839  -4.769  0.00  0.00    -0.284 OA
ATOM     10  C   UNL d   1      13.120  14.426  -5.409  0.00  0.00     0.025 A 
ENDROOT
BRANCH   1  11
ATOM     11  C   UNL d   1      13.236  11.807  -3.015  0.00  0.00     0.028 C 
BRANCH  11  12
ATOM     12  C   UNL d   1      13.626  11.827  -2.289  0.00  0.00     0.002 A 
ATOM     13  C   UNL d   1      13.194  11.790  -1.590  0.00  0.00     0.000 A 
ATOM     14  C   UNL d   1      13.574  11.810  -0.855  0.00  0.00     0.000 A 
ATOM     15  C   UNL d   1      14.402  11.868  -0.831  0.00  0.00     0.000 A 
ATOM     16  C   UNL d   1      14.838  11.906  -1.536  0.00  0.00     0.000 A 
ATOM     17  C   UNL d   1      14.445  11.885  -2.264  0.00  0.00     0.000 A 
BRANCH  15  18
ATOM     18  C   UNL d   1      14.790  11.888  -0.100  0.00  0.00     0.000 C 
ATOM     19  C   UNL d   1      15.489  12.312  -0.015  0.00  0.00     0.000 C 
ENDBRANCH  15  18
ENDBRANCH  11  12
ENDBRANCH   1  11
BRANCH   8  20
ATOM     20  O   UNL d   1      13.456  15.699  -4.870  0.00  0.00    -0.259 OA
BRANCH  20  21
ATOM     21  C   UNL d   1      14.167  15.992  -5.186  0.00  0.00     0.378 C 
ATOM     22  N   UNL d   1      14.709  16.374  -4.703  0.00  0.00    -0.247 N 
ATOM     23  C   UNL d   1      14.549  16.471  -3.889  0.00  0.00     0.112 A 
ATOM     24  C   UNL d   1      15.411  16.665  -5.008  0.00  0.00     0.112 A 
ATOM     25  C   UNL d   1      15.090  16.855  -3.397  0.00  0.00     0.142 A 
ATOM     26  O   UNL d   1      15.802  17.147  -3.723  0.00  0.00    -0.300 OA
ATOM     27  C   UNL d   1      15.960  17.051  -4.524  0.00  0.00     0.142 A 
ATOM     28  O   UNL d   1      14.325  15.897  -5.987  0.00  0.00    -0.237 OA
ENDBRANCH  20  21
ENDBRANCH   8  20
TORSDOF 5
ENDMDL
