MODEL 1
REMARK VINA RESULT:      26.4      0.000      0.000
REMARK  1 active torsions:
REMARK  status: ('A' for Active; 'I' for Inactive)
REMARK    1  A    between atoms: N_9  and  C_4 
ROOT
ATOM      1  N   UNL d   1      46.114 -17.965  43.307  0.00  0.00    -0.195 N 
ATOM      2  C   UNL d   1      46.292 -18.731  43.040  0.00  0.00     0.168 A 
ATOM      3  C   UNL d   1      46.381 -18.884  42.242  0.00  0.00     0.073 A 
ATOM      4  C   UNL d   1      46.029 -17.831  44.109  0.00  0.00     0.154 A 
ATOM      5  N   UNL d   1      46.113 -17.503  41.978  0.00  0.00    -0.143 NA
ATOM      6  C   UNL d   1      46.291 -18.268  41.712  0.00  0.00     0.185 A 
ATOM      7  N   UNL d   1      46.380 -19.341  43.583  0.00  0.00    -0.227 NA
ATOM      8  C   UNL d   1      46.558 -19.641  41.978  0.00  0.00     0.007 A 
ATOM      9  N   UNL d   1      46.379 -18.408  40.900  0.00  0.00    -0.225 NA
ATOM     10  C   UNL d   1      46.115 -18.432  44.649  0.00  0.00     0.057 A 
ATOM     11  C   UNL d   1      46.647 -19.795  41.180  0.00  0.00     0.019 A 
ATOM     12  C   UNL d   1      46.293 -19.198  44.383  0.00  0.00     0.086 A 
ATOM     13  C   UNL d   1      46.557 -19.173  40.633  0.00  0.00     0.083 A 
ATOM     14  C   UNL d   1      46.646 -20.254  42.524  0.00  0.00     0.000 C 
ATOM     15  C   UNL d   1      46.384 -19.830  44.949  0.00  0.00     0.021 C 
ATOM     16  C   UNL d   1      46.644 -19.319  39.837  0.00  0.00     0.021 C 
ENDROOT
BRANCH   4  17
ATOM     17  N   UNL d   1      45.845 -17.039  44.375  0.00  0.00    -0.271 N 
ATOM     18  C   UNL d   1      46.352 -16.355  44.322  0.00  0.00     0.184 A 
ATOM     19  N   UNL d   1      45.938 -15.699  44.654  0.00  0.00    -0.222 NA
ATOM     20  C   UNL d   1      45.166 -15.971  44.917  0.00  0.00     0.120 A 
ATOM     21  C   UNL d   1      45.113 -16.800  44.743  0.00  0.00     0.104 A 
ENDBRANCH   4  17
TORSDOF 1
ENDMDL
