MODEL 1
REMARK VINA RESULT:      -2.1      0.000      0.000
REMARK  11 active torsions:
REMARK  status: ('A' for Active; 'I' for Inactive)
REMARK    1  A    between atoms: C_2  and  C_1 
REMARK       I    between atoms: N_5  and  C_1 
REMARK    2  A    between atoms: C_4  and  C_2 
REMARK    3  A    between atoms: C_3  and  C_4 
REMARK    4  A    between atoms: O_10  and  C_3 
REMARK    5  A    between atoms: N_9  and  C_4 
REMARK    6  A    between atoms: C_8  and  N_5 
REMARK    7  A    between atoms: C_17  and  N_9 
REMARK    8  A    between atoms: O_16  and  C_11 
REMARK    9  A    between atoms: C_19  and  C_17 
REMARK   10  A    between atoms: C_21  and  C_19 
REMARK   11  A    between atoms: C_20  and  C_21 
ROOT
ATOM      1  C   UNK d   1     -42.225-121.970 -51.458  0.00  0.00     0.084 C 
ENDROOT
BRANCH   1   2
ATOM      2  C   UNK d   1     -42.125-122.342 -50.722  0.00  0.00     0.259 C 
ATOM      3  N   UNK d   1     -42.738-122.338 -50.173  0.00  0.00    -0.321 N 
ATOM      4  H   UNK d   1     -43.454-121.967 -50.350  0.00  0.00     0.169 HD
ATOM      5  O   UNK d   1     -41.410-122.709 -50.552  0.00  0.00    -0.267 OA
BRANCH   3   6
ATOM      6  C   UNK d   1     -42.628-122.713 -49.435  0.00  0.00     0.059 A 
ATOM      7  C   UNK d   1     -43.058-123.390 -49.253  0.00  0.00     0.019 A 
ATOM      8  C   UNK d   1     -42.947-123.756 -48.524  0.00  0.00     0.026 A 
ATOM      9  C   UNK d   1     -42.410-123.450 -47.978  0.00  0.00     0.094 A 
ATOM     10  C   UNK d   1     -41.981-122.770 -48.167  0.00  0.00     0.026 A 
ATOM     11  C   UNK d   1     -42.095-122.404 -48.901  0.00  0.00     0.019 A 
BRANCH   9  12
ATOM     12  O   UNK d   1     -42.299-123.817 -47.250  0.00  0.00    -0.328 OA
ATOM     13  C   UNK d   1     -42.897-123.802 -46.687  0.00  0.00     0.181 C 
ENDBRANCH   9  12
ENDBRANCH   3   6
ENDBRANCH   1   2
BRANCH   1  14
ATOM     14  C   UNK d   1     -41.576-121.724 -51.891  0.00  0.00     0.124 C 
BRANCH  14  15
ATOM     15  C   UNK d   1     -41.293-120.955 -51.808  0.00  0.00     0.194 C 
ATOM     16  O   UNK d   1     -41.172-120.478 -52.479  0.00  0.00    -0.645 OA
BRANCH  15  17
ATOM     17  O   UNK d   1     -41.128-120.653 -51.063  0.00  0.00    -0.772 OA
ATOM     18  H   UNK d   1     -41.056-121.163 -50.419  0.00  0.00     0.167 HD
ENDBRANCH  15  17
ENDBRANCH  14  15
BRANCH  14  19
ATOM     19  N   UNK d   1     -41.203-122.251 -52.414  0.00  0.00    -0.347 N 
ATOM     20  H   UNK d   1     -40.683-122.818 -52.119  0.00  0.00     0.166 HD
BRANCH  19  21
ATOM     21  C   UNK d   0     -41.354-122.206 -53.223  0.00  0.00     0.073 C 
BRANCH  21  22
ATOM     22  C   UNK d   0     -41.477-122.896 -53.656  0.00  0.00     0.018 C 
BRANCH  22  23
ATOM     23  C   UNK d   0     -41.455-122.865 -54.483  0.00  0.00     0.002 C 
BRANCH  23  24
ATOM     24  C   UNK d   0     -42.140-122.971 -54.927  0.00  0.00     0.000 C 
ATOM     25  C   UNK d   0     -42.102-122.879 -55.747  0.00  0.00     0.000 C 
ENDBRANCH  23  24
ENDBRANCH  22  23
ENDBRANCH  21  22
ENDBRANCH  19  21
ENDBRANCH  14  19
ENDBRANCH   1  14
TORSDOF 11
ENDMDL
MODEL 2
REMARK VINA RESULT:      -1.0      1.411      5.298
REMARK  11 active torsions:
REMARK  status: ('A' for Active; 'I' for Inactive)
REMARK    1  A    between atoms: C_2  and  C_1 
REMARK       I    between atoms: N_5  and  C_1 
REMARK    2  A    between atoms: C_4  and  C_2 
REMARK    3  A    between atoms: C_3  and  C_4 
REMARK    4  A    between atoms: O_10  and  C_3 
REMARK    5  A    between atoms: N_9  and  C_4 
REMARK    6  A    between atoms: C_8  and  N_5 
REMARK    7  A    between atoms: C_17  and  N_9 
REMARK    8  A    between atoms: O_16  and  C_11 
REMARK    9  A    between atoms: C_19  and  C_17 
REMARK   10  A    between atoms: C_21  and  C_19 
REMARK   11  A    between atoms: C_20  and  C_21 
ROOT
ATOM      1  C   UNK d   1     -41.759-122.324 -50.572  0.00  0.00     0.084 C 
ENDROOT
BRANCH   1   2
ATOM      2  C   UNK d   1     -41.672-122.496 -51.381  0.00  0.00     0.259 C 
ATOM      3  N   UNK d   1     -41.856-121.926 -51.943  0.00  0.00    -0.321 N 
ATOM      4  H   UNK d   1     -42.128-121.182 -51.711  0.00  0.00     0.169 HD
ATOM      5  O   UNK d   1     -41.401-123.239 -51.605  0.00  0.00    -0.267 OA
BRANCH   3   6
ATOM      6  C   UNK d   1     -41.766-122.107 -52.755  0.00  0.00     0.059 A 
ATOM      7  C   UNK d   1     -42.228-121.721 -53.314  0.00  0.00     0.019 A 
ATOM      8  C   UNK d   1     -42.135-121.903 -54.111  0.00  0.00     0.026 A 
ATOM      9  C   UNK d   1     -41.584-122.468 -54.351  0.00  0.00     0.094 A 
ATOM     10  C   UNK d   1     -41.122-122.853 -53.784  0.00  0.00     0.026 A 
ATOM     11  C   UNK d   1     -41.219-122.667 -52.983  0.00  0.00     0.019 A 
BRANCH   9  12
ATOM     12  O   UNK d   1     -41.492-122.649 -55.149  0.00  0.00    -0.328 OA
ATOM     13  C   UNK d   1     -41.771-122.132 -55.723  0.00  0.00     0.181 C 
ENDBRANCH   9  12
ENDBRANCH   3   6
ENDBRANCH   1   2
BRANCH   1  14
ATOM     14  C   UNK d   1     -42.163-122.837 -50.080  0.00  0.00     0.124 C 
BRANCH  14  15
ATOM     15  C   UNK d   1     -42.987-122.842 -50.076  0.00  0.00     0.194 C 
ATOM     16  O   UNK d   1     -43.403-123.552 -50.202  0.00  0.00    -0.645 OA
BRANCH  15  17
ATOM     17  O   UNK d   1     -43.405-122.147 -49.948  0.00  0.00    -0.772 OA
ATOM     18  H   UNK d   1     -44.109-122.163 -49.521  0.00  0.00     0.167 HD
ENDBRANCH  15  17
ENDBRANCH  14  15
BRANCH  14  19
ATOM     19  N   UNK d   1     -41.742-123.353 -49.583  0.00  0.00    -0.347 N 
ATOM     20  H   UNK d   1     -41.628-124.137 -49.813  0.00  0.00     0.166 HD
BRANCH  19  21
ATOM     21  C   UNK d   0     -41.440-123.081 -48.866  0.00  0.00     0.073 C 
BRANCH  21  22
ATOM     22  C   UNK d   0     -41.367-123.600 -48.230  0.00  0.00     0.018 C 
BRANCH  22  23
ATOM     23  C   UNK d   0     -41.138-123.306 -47.491  0.00  0.00     0.002 C 
BRANCH  23  24
ATOM     24  C   UNK d   0     -41.419-123.644 -46.796  0.00  0.00     0.000 C 
ATOM     25  C   UNK d   0     -42.235-123.730 -46.696  0.00  0.00     0.000 C 
ENDBRANCH  23  24
ENDBRANCH  22  23
ENDBRANCH  21  22
ENDBRANCH  19  21
ENDBRANCH  14  19
ENDBRANCH   1  14
TORSDOF 11
ENDMDL
