MODEL 1
REMARK VINA RESULT:      51.1      0.000      0.000
REMARK  5 active torsions:
REMARK  status: ('A' for Active; 'I' for Inactive)
REMARK    1  A    between atoms: N_14  and  C_6 
REMARK    2  A    between atoms: C_20  and  N_14 
REMARK    3  A    between atoms: N_15  and  C_21 
REMARK    4  A    between atoms: C_17  and  C_20 
REMARK    5  A    between atoms: C_21  and  C_17 
ROOT
ATOM      1  N   UNL d   1     -54.816-101.738 -42.325  0.00  0.00    -0.183 N 
ATOM      2  C   UNL d   1     -54.782-101.118 -42.876  0.00  0.00     0.169 A 
ATOM      3  C   UNL d   1     -54.782-101.272 -43.679  0.00  0.00     0.073 A 
ATOM      4  C   UNL d   1     -54.816-102.050 -43.929  0.00  0.00     0.185 A 
ATOM      5  N   UNL d   1     -54.850-102.670 -43.378  0.00  0.00    -0.142 NA
ATOM      6  C   UNL d   1     -54.815-101.563 -41.527  0.00  0.00     0.218 A 
ATOM      7  N   UNL d   1     -54.748-100.340 -42.612  0.00  0.00    -0.226 NA
ATOM      8  C   UNL d   1     -54.749-100.659 -44.223  0.00  0.00     0.007 A 
ATOM      9  N   UNL d   1     -54.817-102.223 -44.739  0.00  0.00    -0.225 NA
ATOM     10  C   UNL d   1     -54.782-100.796 -41.262  0.00  0.00     0.071 A 
ATOM     11  C   UNL d   1     -54.749-100.813 -45.026  0.00  0.00     0.019 A 
ATOM     12  C   UNL d   1     -54.748-100.176 -41.812  0.00  0.00     0.087 A 
ATOM     13  C   UNL d   1     -54.783-101.603 -45.289  0.00  0.00     0.083 A 
ATOM     14  C   UNL d   1     -54.715 -99.878 -43.958  0.00  0.00     0.000 C 
ATOM     15  C   UNL d   1     -54.713 -99.369 -41.535  0.00  0.00     0.021 C 
ATOM     16  C   UNL d   1     -54.784-101.764 -46.087  0.00  0.00     0.021 C 
ENDROOT
BRANCH   6  17
ATOM     17  N   UNL d   1     -54.850-102.209 -40.966  0.00  0.00    -0.380 NA
BRANCH  17  18
ATOM     18  C   UNL d   1     -54.902-102.880 -40.459  0.00  0.00     0.164 C 
BRANCH  18  19
ATOM     19  C   UNL d   1     -54.712-102.797 -39.635  0.00  0.00     0.054 C 
BRANCH  19  20
ATOM     20  C   UNL d   1     -54.746-102.024 -39.273  0.00  0.00     0.083 C 
BRANCH  20  21
ATOM     21  N   UNL d   1     -55.003-101.939 -38.466  0.00  0.00    -0.300 N 
ATOM     22  C   UNL d   1     -55.602-102.538 -38.563  0.00  0.00     0.100 C 
ATOM     23  C   UNL d   1     -54.924-101.558 -37.709  0.00  0.00     0.100 C 
ENDBRANCH  20  21
ENDBRANCH  19  20
ENDBRANCH  18  19
ENDBRANCH  17  18
ENDBRANCH   6  17
TORSDOF 5
ENDMDL
