MODEL 1
REMARK VINA RESULT:      -6.8      0.000      0.000
REMARK  8 active torsions:
REMARK  status: ('A' for Active; 'I' for Inactive)
REMARK    1  A    between atoms: C_2  and  S_1 
REMARK    2  A    between atoms: N_3  and  S_1 
REMARK    3  A    between atoms: C_17  and  N_3 
REMARK    4  A    between atoms: O_21  and  C_8 
REMARK    5  A    between atoms: O_22  and  C_16 
REMARK    6  A    between atoms: C_18  and  C_17 
REMARK    7  A    between atoms: C_23  and  O_21 
REMARK    8  A    between atoms: C_24  and  O_22 
ROOT
ATOM      1  S   UNL d   1      54.138  33.044  53.216  0.00  0.00     0.287 S 
ATOM      2  O   UNL d   1      54.609  33.705  53.086  0.00  0.00    -0.198 OA
ATOM      3  O   UNL d   1      54.756  32.559  52.912  0.00  0.00    -0.198 OA
ENDROOT
BRANCH   1   4
ATOM      4  C   UNL d   1      53.519  33.522  53.518  0.00  0.00     0.130 A 
ATOM      5  C   UNL d   1      52.872  33.715  53.044  0.00  0.00     0.040 A 
ATOM      6  C   UNL d   1      52.274  34.182  53.350  0.00  0.00     0.101 A 
ATOM      7  C   UNL d   1      52.315  34.457  54.121  0.00  0.00     0.027 A 
ATOM      8  C   UNL d   1      52.956  34.273  54.609  0.00  0.00     0.028 A 
ATOM      9  C   UNL d   1      53.560  33.797  54.290  0.00  0.00     0.112 A 
BRANCH   6  10
ATOM     10  O   UNL d   1      51.612  34.375  52.852  0.00  0.00    -0.305 OA
BRANCH  10  11
ATOM     11  C   UNL d   1      50.841  34.104  53.036  0.00  0.00     0.123 C 
ATOM     12  C   UNL d   1      50.217  34.313  52.545  0.00  0.00     0.029 C 
ENDBRANCH  10  11
ENDBRANCH   6  10
BRANCH   9  13
ATOM     13  O   UNL d   1      54.235  33.598  54.792  0.00  0.00    -0.304 OA
BRANCH  13  14
ATOM     14  C   UNL d   1      54.266  33.895  55.579  0.00  0.00     0.123 C 
ATOM     15  C   UNL d   1      54.914  33.708  56.060  0.00  0.00     0.029 C 
ENDBRANCH  13  14
ENDBRANCH   9  13
ENDBRANCH   1   4
BRANCH   1  16
ATOM     16  N   UNL d   1      53.667  32.360  53.343  0.00  0.00    -0.157 NA
BRANCH  16  17
ATOM     17  C   UNL d   1      53.867  31.632  52.973  0.00  0.00     0.112 C 
BRANCH  17  18
ATOM     18  C   UNL d   1      53.483  30.918  53.234  0.00  0.00     0.022 A 
ATOM     19  C   UNL d   1      53.851  30.468  53.826  0.00  0.00     0.028 A 
ATOM     20  C   UNL d   1      53.484  29.775  54.083  0.00  0.00     0.119 A 
ATOM     21  O   UNL d   1      53.709  29.219  54.653  0.00  0.00    -0.300 OA
ATOM     22  C   UNL d   1      52.769  29.535  53.760  0.00  0.00     0.119 A 
ATOM     23  C   UNL d   1      53.124  28.642  54.671  0.00  0.00     0.304 A 
ATOM     24  O   UNL d   1      52.552  28.830  54.131  0.00  0.00    -0.300 OA
ATOM     25  C   UNL d   1      52.408  29.984  53.174  0.00  0.00     0.026 A 
ATOM     26  C   UNL d   1      52.768  30.678  52.912  0.00  0.00     0.004 A 
ENDBRANCH  17  18
ENDBRANCH  16  17
ENDBRANCH   1  16
TORSDOF 8
ENDMDL
MODEL 2
REMARK VINA RESULT:      -6.6      1.138      4.000
REMARK  8 active torsions:
REMARK  status: ('A' for Active; 'I' for Inactive)
REMARK    1  A    between atoms: C_2  and  S_1 
REMARK    2  A    between atoms: N_3  and  S_1 
REMARK    3  A    between atoms: C_17  and  N_3 
REMARK    4  A    between atoms: O_21  and  C_8 
REMARK    5  A    between atoms: O_22  and  C_16 
REMARK    6  A    between atoms: C_18  and  C_17 
REMARK    7  A    between atoms: C_23  and  O_21 
REMARK    8  A    between atoms: C_24  and  O_22 
ROOT
ATOM      1  S   UNL d   1      53.726  33.354  53.085  0.00  0.00     0.287 S 
ATOM      2  O   UNL d   1      54.533  33.210  53.024  0.00  0.00    -0.198 OA
ATOM      3  O   UNL d   1      53.834  34.073  52.661  0.00  0.00    -0.198 OA
ENDROOT
BRANCH   1   4
ATOM      4  C   UNL d   1      53.612  32.639  53.508  0.00  0.00     0.130 A 
ATOM      5  C   UNL d   1      53.250  31.993  53.144  0.00  0.00     0.040 A 
ATOM      6  C   UNL d   1      53.144  31.299  53.566  0.00  0.00     0.101 A 
ATOM      7  C   UNL d   1      53.395  31.245  54.345  0.00  0.00     0.027 A 
ATOM      8  C   UNL d   1      53.759  31.883  54.724  0.00  0.00     0.028 A 
ATOM      9  C   UNL d   1      53.863  32.585  54.287  0.00  0.00     0.112 A 
BRANCH   6  10
ATOM     10  O   UNL d   1      52.770  30.641  53.181  0.00  0.00    -0.305 OA
BRANCH  10  11
ATOM     11  C   UNL d   1      52.946  29.853  53.407  0.00  0.00     0.123 C 
ATOM     12  C   UNL d   1      52.549  29.235  53.040  0.00  0.00     0.029 C 
ENDBRANCH  10  11
ENDBRANCH   6  10
BRANCH   9  13
ATOM     13  O   UNL d   1      54.243  33.258  54.674  0.00  0.00    -0.304 OA
BRANCH  13  14
ATOM     14  C   UNL d   1      54.539  33.170  55.458  0.00  0.00     0.123 C 
ATOM     15  C   UNL d   1      54.937  33.802  55.815  0.00  0.00     0.029 C 
ENDBRANCH  13  14
ENDBRANCH   9  13
ENDBRANCH   1   4
BRANCH   1  16
ATOM     16  N   UNL d   1      52.902  33.513  53.140  0.00  0.00    -0.157 NA
BRANCH  16  17
ATOM     17  C   UNL d   1      52.584  34.219  52.815  0.00  0.00     0.112 C 
BRANCH  17  18
ATOM     18  C   UNL d   1      51.739  34.309  52.773  0.00  0.00     0.022 A 
ATOM     19  C   UNL d   1      51.372  34.228  52.033  0.00  0.00     0.028 A 
ATOM     20  C   UNL d   1      50.552  34.314  51.986  0.00  0.00     0.119 A 
ATOM     21  O   UNL d   1      50.036  34.266  51.341  0.00  0.00    -0.300 OA
ATOM     22  C   UNL d   1      50.108  34.477  52.656  0.00  0.00     0.119 A 
ATOM     23  C   UNL d   1      49.278  34.401  51.628  0.00  0.00     0.304 A 
ATOM     24  O   UNL d   1      49.318  34.529  52.426  0.00  0.00    -0.300 OA
ATOM     25  C   UNL d   1      50.476  34.556  53.387  0.00  0.00     0.026 A 
ATOM     26  C   UNL d   1      51.295  34.471  53.443  0.00  0.00     0.004 A 
ENDBRANCH  17  18
ENDBRANCH  16  17
ENDBRANCH   1  16
TORSDOF 8
ENDMDL
MODEL 3
REMARK VINA RESULT:      -6.1      0.794      2.525
REMARK  8 active torsions:
REMARK  status: ('A' for Active; 'I' for Inactive)
REMARK    1  A    between atoms: C_2  and  S_1 
REMARK    2  A    between atoms: N_3  and  S_1 
REMARK    3  A    between atoms: C_17  and  N_3 
REMARK    4  A    between atoms: O_21  and  C_8 
REMARK    5  A    between atoms: O_22  and  C_16 
REMARK    6  A    between atoms: C_18  and  C_17 
REMARK    7  A    between atoms: C_23  and  O_21 
REMARK    8  A    between atoms: C_24  and  O_22 
ROOT
ATOM      1  S   UNL d   1      52.492  32.936  52.546  0.00  0.00     0.287 S 
ATOM      2  O   UNL d   1      52.333  33.568  52.046  0.00  0.00    -0.198 OA
ATOM      3  O   UNL d   1      52.356  32.408  51.904  0.00  0.00    -0.198 OA
ENDROOT
BRANCH   1   4
ATOM      4  C   UNL d   1      52.627  33.456  53.190  0.00  0.00     0.130 A 
ATOM      5  C   UNL d   1      53.375  33.504  53.536  0.00  0.00     0.040 A 
ATOM      6  C   UNL d   1      53.497  34.015  54.163  0.00  0.00     0.101 A 
ATOM      7  C   UNL d   1      52.882  34.477  54.447  0.00  0.00     0.027 A 
ATOM      8  C   UNL d   1      52.128  34.441  54.112  0.00  0.00     0.028 A 
ATOM      9  C   UNL d   1      52.012  33.918  53.474  0.00  0.00     0.112 A 
BRANCH   6  10
ATOM     10  O   UNL d   1      54.271  34.056  54.511  0.00  0.00    -0.305 OA
BRANCH  10  11
ATOM     11  C   UNL d   1      54.426  33.710  55.259  0.00  0.00     0.123 C 
ATOM     12  C   UNL d   1      55.196  33.709  55.546  0.00  0.00     0.029 C 
ENDBRANCH  10  11
ENDBRANCH   6  10
BRANCH   9  13
ATOM     13  O   UNL d   1      51.227  33.873  53.116  0.00  0.00    -0.304 OA
BRANCH  13  14
ATOM     14  C   UNL d   1      50.639  34.433  53.338  0.00  0.00     0.123 C 
ATOM     15  C   UNL d   1      49.924  34.459  52.921  0.00  0.00     0.029 C 
ENDBRANCH  13  14
ENDBRANCH   9  13
ENDBRANCH   1   4
BRANCH   1  16
ATOM     16  N   UNL d   1      52.651  32.280  53.047  0.00  0.00    -0.157 NA
BRANCH  16  17
ATOM     17  C   UNL d   1      52.565  31.495  52.760  0.00  0.00     0.112 C 
BRANCH  17  18
ATOM     18  C   UNL d   1      52.921  30.856  53.194  0.00  0.00     0.022 A 
ATOM     19  C   UNL d   1      52.433  30.386  53.672  0.00  0.00     0.028 A 
ATOM     20  C   UNL d   1      52.773  29.764  54.096  0.00  0.00     0.119 A 
ATOM     21  O   UNL d   1      52.437  29.209  54.610  0.00  0.00    -0.300 OA
ATOM     22  C   UNL d   1      53.577  29.613  54.046  0.00  0.00     0.119 A 
ATOM     23  C   UNL d   1      53.047  28.722  54.869  0.00  0.00     0.304 A 
ATOM     24  O   UNL d   1      53.740  28.964  54.529  0.00  0.00    -0.300 OA
ATOM     25  C   UNL d   1      54.057  30.081  53.571  0.00  0.00     0.026 A 
ATOM     26  C   UNL d   1      53.726  30.705  53.144  0.00  0.00     0.004 A 
ENDBRANCH  17  18
ENDBRANCH  16  17
ENDBRANCH   1  16
TORSDOF 8
ENDMDL
MODEL 4
REMARK VINA RESULT:      -5.0      1.296      4.356
REMARK  8 active torsions:
REMARK  status: ('A' for Active; 'I' for Inactive)
REMARK    1  A    between atoms: C_2  and  S_1 
REMARK    2  A    between atoms: N_3  and  S_1 
REMARK    3  A    between atoms: C_17  and  N_3 
REMARK    4  A    between atoms: O_21  and  C_8 
REMARK    5  A    between atoms: O_22  and  C_16 
REMARK    6  A    between atoms: C_18  and  C_17 
REMARK    7  A    between atoms: C_23  and  O_21 
REMARK    8  A    between atoms: C_24  and  O_22 
ROOT
ATOM      1  S   UNL d   1      53.107  32.456  52.802  0.00  0.00     0.287 S 
ATOM      2  O   UNL d   1      53.665  31.917  52.532  0.00  0.00    -0.198 OA
ATOM      3  O   UNL d   1      52.840  32.559  52.011  0.00  0.00    -0.198 OA
ENDROOT
BRANCH   1   4
ATOM      4  C   UNL d   1      53.368  32.358  53.593  0.00  0.00     0.130 A 
ATOM      5  C   UNL d   1      53.719  32.986  53.997  0.00  0.00     0.040 A 
ATOM      6  C   UNL d   1      53.971  32.880  54.768  0.00  0.00     0.101 A 
ATOM      7  C   UNL d   1      53.876  32.154  55.139  0.00  0.00     0.027 A 
ATOM      8  C   UNL d   1      53.527  31.515  54.748  0.00  0.00     0.028 A 
ATOM      9  C   UNL d   1      53.274  31.632  53.963  0.00  0.00     0.112 A 
BRANCH   6  10
ATOM     10  O   UNL d   1      54.330  33.534  55.174  0.00  0.00    -0.305 OA
BRANCH  10  11
ATOM     11  C   UNL d   1      55.163  33.623  55.195  0.00  0.00     0.123 C 
ATOM     12  C   UNL d   1      55.482  34.347  55.419  0.00  0.00     0.029 C 
ENDBRANCH  10  11
ENDBRANCH   6  10
BRANCH   9  13
ATOM     13  O   UNL d   1      52.908  30.970  53.547  0.00  0.00    -0.304 OA
BRANCH  13  14
ATOM     14  C   UNL d   1      52.939  30.200  53.886  0.00  0.00     0.123 C 
ATOM     15  C   UNL d   1      52.596  29.563  53.483  0.00  0.00     0.029 C 
ENDBRANCH  13  14
ENDBRANCH   9  13
ENDBRANCH   1   4
BRANCH   1  16
ATOM     16  N   UNL d   1      52.531  33.009  53.065  0.00  0.00    -0.157 NA
BRANCH  16  17
ATOM     17  C   UNL d   1      52.225  33.587  52.537  0.00  0.00     0.112 C 
BRANCH  17  18
ATOM     18  C   UNL d   1      51.491  33.973  52.729  0.00  0.00     0.022 A 
ATOM     19  C   UNL d   1      50.886  33.967  52.162  0.00  0.00     0.028 A 
ATOM     20  C   UNL d   1      50.171  34.340  52.341  0.00  0.00     0.119 A 
ATOM     21  O   UNL d   1      49.477  34.426  51.900  0.00  0.00    -0.300 OA
ATOM     22  C   UNL d   1      50.061  34.708  53.066  0.00  0.00     0.119 A 
ATOM     23  C   UNL d   1      48.947  34.851  52.364  0.00  0.00     0.304 A 
ATOM     24  O   UNL d   1      49.299  35.023  53.073  0.00  0.00    -0.300 OA
ATOM     25  C   UNL d   1      50.664  34.711  53.624  0.00  0.00     0.026 A 
ATOM     26  C   UNL d   1      51.381  34.341  53.453  0.00  0.00     0.004 A 
ENDBRANCH  17  18
ENDBRANCH  16  17
ENDBRANCH   1  16
TORSDOF 8
ENDMDL
MODEL 5
REMARK VINA RESULT:      -4.1      1.229      3.939
REMARK  8 active torsions:
REMARK  status: ('A' for Active; 'I' for Inactive)
REMARK    1  A    between atoms: C_2  and  S_1 
REMARK    2  A    between atoms: N_3  and  S_1 
REMARK    3  A    between atoms: C_17  and  N_3 
REMARK    4  A    between atoms: O_21  and  C_8 
REMARK    5  A    between atoms: O_22  and  C_16 
REMARK    6  A    between atoms: C_18  and  C_17 
REMARK    7  A    between atoms: C_23  and  O_21 
REMARK    8  A    between atoms: C_24  and  O_22 
ROOT
ATOM      1  S   UNL d   1      53.984  31.566  53.344  0.00  0.00     0.287 S 
ATOM      2  O   UNL d   1      54.174  30.978  52.802  0.00  0.00    -0.198 OA
ATOM      3  O   UNL d   1      54.802  31.759  53.402  0.00  0.00    -0.198 OA
ENDROOT
BRANCH   1   4
ATOM      4  C   UNL d   1      53.169  31.378  53.290  0.00  0.00     0.130 A 
ATOM      5  C   UNL d   1      52.636  31.923  52.973  0.00  0.00     0.040 A 
ATOM      6  C   UNL d   1      51.843  31.730  52.925  0.00  0.00     0.101 A 
ATOM      7  C   UNL d   1      51.577  31.000  53.189  0.00  0.00     0.027 A 
ATOM      8  C   UNL d   1      52.097  30.444  53.508  0.00  0.00     0.028 A 
ATOM      9  C   UNL d   1      52.903  30.649  53.554  0.00  0.00     0.112 A 
BRANCH   6  10
ATOM     10  O   UNL d   1      51.303  32.299  52.598  0.00  0.00    -0.305 OA
BRANCH  10  11
ATOM     11  C   UNL d   1      50.824  32.774  53.094  0.00  0.00     0.123 C 
ATOM     12  C   UNL d   1      50.548  33.495  52.812  0.00  0.00     0.029 C 
ENDBRANCH  10  11
ENDBRANCH   6  10
BRANCH   9  13
ATOM     13  O   UNL d   1      53.456  30.073  53.886  0.00  0.00    -0.304 OA
BRANCH  13  14
ATOM     14  C   UNL d   1      53.167  29.327  54.149  0.00  0.00     0.123 C 
ATOM     15  C   UNL d   1      53.630  28.868  54.659  0.00  0.00     0.029 C 
ENDBRANCH  13  14
ENDBRANCH   9  13
ENDBRANCH   1   4
BRANCH   1  16
ATOM     16  N   UNL d   1      53.805  32.170  53.899  0.00  0.00    -0.157 NA
BRANCH  16  17
ATOM     17  C   UNL d   1      54.368  32.771  54.070  0.00  0.00     0.112 C 
BRANCH  17  18
ATOM     18  C   UNL d   1      54.112  33.469  54.484  0.00  0.00     0.022 A 
ATOM     19  C   UNL d   1      53.858  34.119  54.036  0.00  0.00     0.028 A 
ATOM     20  C   UNL d   1      53.609  34.800  54.432  0.00  0.00     0.119 A 
ATOM     21  O   UNL d   1      53.330  35.524  54.145  0.00  0.00    -0.300 OA
ATOM     22  C   UNL d   1      53.613  34.834  55.251  0.00  0.00     0.119 A 
ATOM     23  C   UNL d   1      53.166  35.995  54.800  0.00  0.00     0.304 A 
ATOM     24  O   UNL d   1      53.336  35.579  55.472  0.00  0.00    -0.300 OA
ATOM     25  C   UNL d   1      53.866  34.187  55.691  0.00  0.00     0.026 A 
ATOM     26  C   UNL d   1      54.117  33.503  55.304  0.00  0.00     0.004 A 
ENDBRANCH  17  18
ENDBRANCH  16  17
ENDBRANCH   1  16
TORSDOF 8
ENDMDL
