MODEL 1
REMARK VINA RESULT:      42.2      0.000      0.000
REMARK  3 active torsions:
REMARK  status: ('A' for Active; 'I' for Inactive)
REMARK    1  A    between atoms: C_7  and  N_1 
REMARK    2  A    between atoms: C_11  and  C_4 
REMARK    3  A    between atoms: C_9  and  C_7 
ROOT
ATOM      1  N   UNL d   1      13.878  13.146  -2.582  0.00  0.00    -0.252 N 
ATOM      2  C   UNL d   1      13.778  13.730  -3.196  0.00  0.00     0.354 A 
ATOM      3  C   UNL d   1      14.509  14.165  -1.787  0.00  0.00     0.035 A 
ATOM      4  C   UNL d   1      14.245  13.374  -1.880  0.00  0.00     0.070 A 
ATOM      5  N   UNL d   1      14.047  14.504  -3.076  0.00  0.00    -0.192 NA
ATOM      6  C   UNL d   1      14.414  14.732  -2.375  0.00  0.00     0.087 A 
ATOM      7  C   UNL d   1      14.871  14.358  -1.073  0.00  0.00     0.010 A 
ATOM      8  O   UNL d   1      13.415  13.538  -3.909  0.00  0.00    -0.244 OA
ATOM      9  C   UNL d   1      14.666  15.477  -2.278  0.00  0.00     0.020 A 
ATOM     10  C   UNL d   1      15.144  15.129  -0.945  0.00  0.00     0.035 A 
ATOM     11  C   UNL d   1      15.035  15.713  -1.579  0.00  0.00     0.008 A 
ATOM     12 BR   UNL d   1      15.517  15.328  -0.210  0.00  0.00    -0.049 Br
ENDROOT
BRANCH   4  13
ATOM     13  C   UNL d   1      14.354  12.863  -1.295  0.00  0.00     0.016 A 
ATOM     14  C   UNL d   1      13.837  12.855  -0.657  0.00  0.00     0.001 A 
ATOM     15  C   UNL d   1      13.940  12.320  -0.032  0.00  0.00     0.000 A 
ATOM     16  C   UNL d   1      14.577  11.780  -0.047  0.00  0.00     0.000 A 
ATOM     17  C   UNL d   1      15.101  11.782  -0.684  0.00  0.00     0.000 A 
ATOM     18  C   UNL d   1      14.998  12.299  -1.284  0.00  0.00     0.001 A 
ENDBRANCH   4  13
BRANCH   1  19
ATOM     19  C   UNL d   1      13.618  12.356  -2.668  0.00  0.00     0.155 C 
BRANCH  19  20
ATOM     20  C   UNL d   1      13.515  12.047  -3.428  0.00  0.00     0.230 C 
ATOM     21  O   UNL d   1      14.176  12.017  -3.954  0.00  0.00    -0.643 OA
ATOM     22  O   UNL d   1      12.773  11.779  -3.648  0.00  0.00    -0.643 OA
ENDBRANCH  19  20
ENDBRANCH   1  19
TORSDOF 3
ENDMDL
MODEL 2
REMARK VINA RESULT:      43.8      1.828      2.824
REMARK  3 active torsions:
REMARK  status: ('A' for Active; 'I' for Inactive)
REMARK    1  A    between atoms: C_7  and  N_1 
REMARK    2  A    between atoms: C_11  and  C_4 
REMARK    3  A    between atoms: C_9  and  C_7 
ROOT
ATOM      1  N   UNL d   1      14.314  13.041  -2.094  0.00  0.00    -0.252 N 
ATOM      2  C   UNL d   1      14.637  13.606  -1.541  0.00  0.00     0.354 A 
ATOM      3  C   UNL d   1      14.029  14.142  -2.974  0.00  0.00     0.035 A 
ATOM      4  C   UNL d   1      14.012  13.319  -2.808  0.00  0.00     0.070 A 
ATOM      5  N   UNL d   1      14.640  14.411  -1.731  0.00  0.00    -0.192 NA
ATOM      6  C   UNL d   1      14.338  14.690  -2.445  0.00  0.00     0.087 A 
ATOM      7  C   UNL d   1      13.719  14.384  -3.697  0.00  0.00     0.010 A 
ATOM      8  O   UNL d   1      14.946  13.363  -0.818  0.00  0.00    -0.244 OA
ATOM      9  C   UNL d   1      14.350  15.466  -2.610  0.00  0.00     0.020 A 
ATOM     10  C   UNL d   1      13.719  15.188  -3.895  0.00  0.00     0.035 A 
ATOM     11  C   UNL d   1      14.050  15.752  -3.323  0.00  0.00     0.008 A 
ATOM     12 BR   UNL d   1      13.399  15.438  -4.639  0.00  0.00    -0.049 Br
ENDROOT
BRANCH   4  13
ATOM     13  C   UNL d   1      13.708  12.828  -3.339  0.00  0.00     0.016 A 
ATOM     14  C   UNL d   1      13.100  12.321  -3.125  0.00  0.00     0.001 A 
ATOM     15  C   UNL d   1      12.769  11.796  -3.675  0.00  0.00     0.000 A 
ATOM     16  C   UNL d   1      13.057  11.780  -4.460  0.00  0.00     0.000 A 
ATOM     17  C   UNL d   1      13.669  12.287  -4.683  0.00  0.00     0.000 A 
ATOM     18  C   UNL d   1      13.984  12.790  -4.149  0.00  0.00     0.001 A 
ENDBRANCH   4  13
BRANCH   1  19
ATOM     19  C   UNL d   1      14.295  12.220  -1.935  0.00  0.00     0.155 C 
BRANCH  19  20
ATOM     20  C   UNL d   1      14.657  11.934  -1.249  0.00  0.00     0.230 C 
ATOM     21  O   UNL d   1      14.189  11.809  -0.556  0.00  0.00    -0.643 OA
ATOM     22  O   UNL d   1      15.462  11.780  -1.263  0.00  0.00    -0.643 OA
ENDBRANCH  19  20
ENDBRANCH   1  19
TORSDOF 3
ENDMDL
