MODEL 1
REMARK VINA RESULT:      98.1      0.000      0.000
REMARK  10 active torsions:
REMARK  status: ('A' for Active; 'I' for Inactive)
REMARK    1  A    between atoms: C_5  and  C_1 
REMARK    2  A    between atoms: C_10  and  C_2 
REMARK    3  A    between atoms: S_11  and  C_3 
REMARK    4  A    between atoms: C_9  and  C_4 
REMARK       I    between atoms: N_8  and  C_5 
REMARK    5  A    between atoms: C_15  and  N_8 
REMARK    6  A    between atoms: C_26  and  S_11 
REMARK    7  A    between atoms: C_13  and  C_18 
REMARK    8  A    between atoms: C_16  and  C_26 
REMARK       I    between atoms: N_19  and  C_16 
REMARK    9  A    between atoms: C_29  and  N_19 
REMARK   10  A    between atoms: O_34  and  C_23 
ROOT
ATOM      1  C   UNL d   1     -47.967  30.009  34.865  0.00  0.00     0.076 A 
ATOM      2  C   UNL d   1     -48.108  28.773  35.523  0.00  0.00     0.045 A 
ATOM      3  C   UNL d   1     -48.496  28.457  34.840  0.00  0.00     0.112 A 
ATOM      4  C   UNL d   1     -47.852  29.535  35.526  0.00  0.00     0.016 A 
ATOM      5  C   UNL d   1     -48.349  29.696  34.190  0.00  0.00     0.087 A 
ATOM      6  N   UNL d   1     -48.609  28.917  34.191  0.00  0.00    -0.239 NA
ATOM      7  C   UNL d   1     -48.471  30.162  33.516  0.00  0.00     0.021 C 
ENDROOT
BRANCH   3   8
ATOM      8  S   UNL d   1     -48.782  27.660  34.790  0.00  0.00    -0.062 SA
BRANCH   8   9
ATOM      9  C   UNL d   1     -49.057  27.352  34.068  0.00  0.00     0.099 C 
BRANCH   9  10
ATOM     10  C   UNL d   1     -49.720  26.859  34.060  0.00  0.00     0.286 C 
ATOM     11  N   UNL d   1     -49.869  26.377  33.411  0.00  0.00    -0.208 NA
ATOM     12  O   UNL d   1     -50.227  26.852  34.701  0.00  0.00    -0.265 OA
BRANCH  11  13
ATOM     13  C   UNL d   1     -50.536  25.887  33.414  0.00  0.00     0.085 A 
ATOM     14  C   UNL d   1     -50.448  25.081  33.306  0.00  0.00     0.019 A 
ATOM     15  C   UNL d   1     -51.109  24.592  33.308  0.00  0.00     0.008 A 
ATOM     16  C   UNL d   1     -51.864  24.925  33.422  0.00  0.00     0.065 A 
ATOM     17  C   UNL d   1     -51.951  25.731  33.530  0.00  0.00     0.008 A 
ATOM     18  C   UNL d   1     -51.284  26.221  33.527  0.00  0.00     0.019 A 
BRANCH  16  19
ATOM     19  C   UNL d   1     -52.541  24.435  33.426  0.00  0.00     0.211 C 
ATOM     20  O   UNL d   1     -52.458  23.607  33.436  0.00  0.00    -0.644 OA
ATOM     21  O   UNL d   1     -53.284  24.778  33.421  0.00  0.00    -0.644 OA
ENDBRANCH  16  19
ENDBRANCH  11  13
ENDBRANCH   9  10
ENDBRANCH   8   9
ENDBRANCH   3   8
BRANCH   2  22
ATOM     22  C   UNL d   1     -47.973  28.317  36.220  0.00  0.00     0.124 C 
ATOM     23  N   UNL d   1     -48.602  27.878  36.562  0.00  0.00    -0.146 N 
ENDBRANCH   2  22
BRANCH   4  24
ATOM     24  C   UNL d   1     -47.477  29.842  36.188  0.00  0.00     0.030 A 
ATOM     25  S   UNL d   1     -46.694  29.961  36.370  0.00  0.00    -0.086 SA
ATOM     26  C   UNL d   1     -46.662  30.282  37.106  0.00  0.00     0.035 A 
ATOM     27  C   UNL d   1     -47.403  30.366  37.387  0.00  0.00     0.007 A 
ATOM     28  C   UNL d   1     -47.922  30.097  36.830  0.00  0.00     0.007 A 
ENDBRANCH   4  24
BRANCH   1  29
ATOM     29  C   UNL d   1     -47.702  30.791  34.873  0.00  0.00     0.281 C 
ATOM     30  N   UNL d   1     -48.085  31.357  34.400  0.00  0.00    -0.206 NA
ATOM     31  O   UNL d   1     -47.069  31.005  35.342  0.00  0.00    -0.265 OA
BRANCH  30  32
ATOM     32  C   UNL d   1     -47.817  32.137  34.412  0.00  0.00     0.107 A 
ATOM     33  C   UNL d   1     -48.263  32.719  34.070  0.00  0.00     0.112 A 
ATOM     34  C   UNL d   1     -47.990  33.500  34.084  0.00  0.00     0.026 A 
ATOM     35  C   UNL d   1     -47.285  33.684  34.435  0.00  0.00     0.002 A 
ATOM     36  C   UNL d   1     -46.825  33.094  34.786  0.00  0.00     0.002 A 
ATOM     37  C   UNL d   1     -47.097  32.313  34.773  0.00  0.00     0.021 A 
BRANCH  33  38
ATOM     38  O   UNL d   1     -48.983  32.532  33.712  0.00  0.00    -0.327 OA
ATOM     39  C   UNL d   1     -49.556  33.114  33.604  0.00  0.00     0.181 C 
ENDBRANCH  33  38
ENDBRANCH  30  32
ENDBRANCH   1  29
TORSDOF 10
ENDMDL
