MODEL 1
REMARK VINA RESULT:      99.4      0.000      0.000
REMARK  7 active torsions:
REMARK  status: ('A' for Active; 'I' for Inactive)
REMARK       I    between atoms: C_5  and  N_1 
REMARK    1  A    between atoms: C_11  and  C_3 
REMARK    2  A    between atoms: C_12  and  C_5 
REMARK    3  A    between atoms: N_7  and  C_12 
REMARK    4  A    between atoms: C_13  and  C_8 
REMARK    5  A    between atoms: C_29  and  N_10 
REMARK    6  A    between atoms: O_28  and  C_16 
REMARK    7  A    between atoms: O_30  and  C_23 
ROOT
ATOM      1  N   UNL d   1     -51.148  26.482  34.987  0.00  0.00    -0.193 N 
ATOM      2  N   UNL d   1     -50.645  27.124  34.953  0.00  0.00    -0.162 NA
ATOM      3  C   UNL d   1     -50.417  27.244  34.172  0.00  0.00     0.109 A 
ATOM      4  C   UNL d   1     -51.505  26.171  35.662  0.00  0.00     0.298 C 
ATOM      5  C   UNL d   1     -51.242  26.188  34.222  0.00  0.00     0.088 A 
ATOM      6  C   UNL d   1     -50.787  26.664  33.719  0.00  0.00     0.041 A 
ATOM      7  O   UNL d   1     -51.997  25.520  35.596  0.00  0.00    -0.264 OA
ENDROOT
BRANCH   4   8
ATOM      8  C   UNL d   1     -51.367  26.513  36.387  0.00  0.00     0.146 C 
BRANCH   8   9
ATOM      9  N   UNL d   1     -51.751  26.226  37.053  0.00  0.00    -0.262 N 
ATOM     10  C   UNL d   1     -51.399  26.289  37.790  0.00  0.00     0.322 A 
ATOM     11  C   UNL d   1     -51.785  26.001  38.460  0.00  0.00     0.322 A 
ATOM     12  O   UNL d   1     -50.656  26.643  37.863  0.00  0.00    -0.261 OA
ATOM     13  O   UNL d   1     -51.428  26.066  39.203  0.00  0.00    -0.261 OA
ATOM     14  N   UNL d   1     -52.522  25.649  38.393  0.00  0.00    -0.267 N 
ATOM     15  C   UNL d   1     -52.877  25.584  37.652  0.00  0.00     0.102 A 
ATOM     16  C   UNL d   1     -52.492  25.873  36.982  0.00  0.00     0.102 A 
BRANCH  14  17
ATOM     17  C   UNL d   1     -52.908  25.360  39.063  0.00  0.00     0.083 C 
ATOM     18  C   UNL d   1     -53.476  24.764  38.987  0.00  0.00     0.021 C 
ENDBRANCH  14  17
ENDBRANCH   8   9
ENDBRANCH   4   8
BRANCH   5  19
ATOM     19  C   UNL d   1     -51.695  25.551  33.994  0.00  0.00     0.020 A 
ATOM     20  C   UNL d   1     -51.336  24.834  33.821  0.00  0.00     0.028 A 
ATOM     21  C   UNL d   1     -51.804  24.189  33.589  0.00  0.00     0.116 A 
ATOM     22  C   UNL d   1     -52.615  24.269  33.534  0.00  0.00     0.116 A 
ATOM     23  C   UNL d   1     -52.972  24.993  33.709  0.00  0.00     0.026 A 
ATOM     24  C   UNL d   1     -52.505  25.635  33.940  0.00  0.00     0.004 A 
BRANCH  21  25
ATOM     25  O   UNL d   1     -51.444  23.475  33.418  0.00  0.00    -0.326 OA
ATOM     26  C   UNL d   1     -50.812  23.209  33.860  0.00  0.00     0.181 C 
ENDBRANCH  21  25
BRANCH  22  27
ATOM     27  O   UNL d   1     -53.072  23.637  33.307  0.00  0.00    -0.326 OA
ATOM     28  C   UNL d   1     -53.466  23.192  33.869  0.00  0.00     0.181 C 
ENDBRANCH  22  27
ENDBRANCH   5  19
BRANCH   3  29
ATOM     29  C   UNL d   1     -49.913  27.835  33.897  0.00  0.00     0.049 A 
ATOM     30  S   UNL d   1     -49.224  27.727  33.480  0.00  0.00    -0.085 SA
ATOM     31  C   UNL d   1     -48.891  28.460  33.313  0.00  0.00     0.035 A 
ATOM     32  C   UNL d   1     -49.394  29.034  33.639  0.00  0.00     0.007 A 
ATOM     33  C   UNL d   1     -50.031  28.648  34.003  0.00  0.00     0.009 A 
ENDBRANCH   3  29
TORSDOF 7
ENDMDL
MODEL 2
REMARK VINA RESULT:     100.2      1.726      2.286
REMARK  7 active torsions:
REMARK  status: ('A' for Active; 'I' for Inactive)
REMARK       I    between atoms: C_5  and  N_1 
REMARK    1  A    between atoms: C_11  and  C_3 
REMARK    2  A    between atoms: C_12  and  C_5 
REMARK    3  A    between atoms: N_7  and  C_12 
REMARK    4  A    between atoms: C_13  and  C_8 
REMARK    5  A    between atoms: C_29  and  N_10 
REMARK    6  A    between atoms: O_28  and  C_16 
REMARK    7  A    between atoms: O_30  and  C_23 
ROOT
ATOM      1  N   UNL d   1     -49.524  27.729  35.914  0.00  0.00    -0.193 N 
ATOM      2  N   UNL d   1     -48.967  28.290  36.117  0.00  0.00    -0.162 NA
ATOM      3  C   UNL d   1     -48.601  28.563  35.433  0.00  0.00     0.109 A 
ATOM      4  C   UNL d   1     -50.017  27.315  36.430  0.00  0.00     0.298 C 
ATOM      5  C   UNL d   1     -49.514  27.643  35.093  0.00  0.00     0.088 A 
ATOM      6  C   UNL d   1     -48.940  28.162  34.799  0.00  0.00     0.041 A 
ATOM      7  O   UNL d   1     -50.547  26.768  36.129  0.00  0.00    -0.264 OA
ENDROOT
BRANCH   4   8
ATOM      8  C   UNL d   1     -49.972  27.452  37.229  0.00  0.00     0.146 C 
BRANCH   8   9
ATOM      9  N   UNL d   1     -50.516  27.101  37.735  0.00  0.00    -0.262 N 
ATOM     10  C   UNL d   1     -50.769  27.497  38.406  0.00  0.00     0.322 A 
ATOM     11  C   UNL d   1     -51.315  27.145  38.914  0.00  0.00     0.322 A 
ATOM     12  O   UNL d   1     -50.475  28.250  38.575  0.00  0.00    -0.261 OA
ATOM     13  O   UNL d   1     -51.568  27.546  39.591  0.00  0.00    -0.261 OA
ATOM     14  N   UNL d   1     -51.609  26.397  38.750  0.00  0.00    -0.267 N 
ATOM     15  C   UNL d   1     -51.356  25.998  38.075  0.00  0.00     0.102 A 
ATOM     16  C   UNL d   1     -50.810  26.350  37.567  0.00  0.00     0.102 A 
BRANCH  14  17
ATOM     17  C   UNL d   1     -52.156  26.045  39.258  0.00  0.00     0.083 C 
ATOM     18  C   UNL d   1     -52.515  25.331  39.046  0.00  0.00     0.021 C 
ENDBRANCH  14  17
ENDBRANCH   8   9
ENDBRANCH   4   8
BRANCH   5  19
ATOM     19  C   UNL d   1     -49.978  27.143  34.648  0.00  0.00     0.020 A 
ATOM     20  C   UNL d   1     -49.645  26.485  34.290  0.00  0.00     0.028 A 
ATOM     21  C   UNL d   1     -50.124  25.981  33.837  0.00  0.00     0.116 A 
ATOM     22  C   UNL d   1     -50.921  26.139  33.751  0.00  0.00     0.116 A 
ATOM     23  C   UNL d   1     -51.252  26.803  34.114  0.00  0.00     0.026 A 
ATOM     24  C   UNL d   1     -50.774  27.305  34.564  0.00  0.00     0.004 A 
BRANCH  21  25
ATOM     25  O   UNL d   1     -49.790  25.325  33.481  0.00  0.00    -0.326 OA
ATOM     26  C   UNL d   1     -48.992  25.306  33.306  0.00  0.00     0.181 C 
ENDBRANCH  21  25
BRANCH  22  27
ATOM     27  O   UNL d   1     -51.388  25.644  33.308  0.00  0.00    -0.326 OA
ATOM     28  C   UNL d   1     -52.203  25.698  33.354  0.00  0.00     0.181 C 
ENDBRANCH  22  27
ENDBRANCH   5  19
BRANCH   3  29
ATOM     29  C   UNL d   1     -48.006  29.132  35.392  0.00  0.00     0.049 A 
ATOM     30  S   UNL d   1     -47.233  29.041  35.624  0.00  0.00    -0.085 SA
ATOM     31  C   UNL d   1     -46.826  29.742  35.489  0.00  0.00     0.035 A 
ATOM     32  C   UNL d   1     -47.369  30.279  35.164  0.00  0.00     0.007 A 
ATOM     33  C   UNL d   1     -48.105  29.902  35.103  0.00  0.00     0.009 A 
ENDBRANCH   3  29
TORSDOF 7
ENDMDL
