MODEL 1
REMARK VINA RESULT:      56.9      0.000      0.000
REMARK  2 active torsions:
REMARK  status: ('A' for Active; 'I' for Inactive)
REMARK       I    between atoms: C_6  and  N_1 
REMARK    1  A    between atoms: C_7  and  C_3 
REMARK    2  A    between atoms: C_8  and  C_4 
ROOT
ATOM      1  N   UNL d   1     -55.114-101.590 -43.664  0.00  0.00    -0.195 N 
ATOM      2  N   UNL d   1     -55.086-102.068 -43.007  0.00  0.00    -0.163 NA
ATOM      3  C   UNL d   1     -54.934-101.581 -42.358  0.00  0.00     0.106 A 
ATOM      4  C   UNL d   1     -54.980-100.812 -43.426  0.00  0.00     0.088 A 
ATOM      5  C   UNL d   1     -54.870-100.814 -42.620  0.00  0.00     0.040 A 
ATOM      6  C   UNL d   1     -55.257-101.839 -44.468  0.00  0.00     0.281 C 
ATOM      7  O   UNL d   1     -55.270-101.308 -45.065  0.00  0.00    -0.265 OA
ATOM      8  C   UNL d   1     -55.381-102.643 -44.610  0.00  0.00     0.068 C 
ENDROOT
BRANCH   3   9
ATOM      9  C   UNL d   1     -54.859-101.832 -41.576  0.00  0.00     0.058 A 
ATOM     10  C   UNL d   1     -54.806-101.277 -40.967  0.00  0.00     0.197 A 
ATOM     11  O   UNL d   1     -54.830-100.491 -41.163  0.00  0.00    -0.286 OA
ATOM     12  C   UNL d   1     -54.734-101.548 -40.207  0.00  0.00     0.042 A 
ATOM     13  C   UNL d   1     -54.711-102.315 -40.029  0.00  0.00     0.003 A 
ATOM     14  C   UNL d   1     -54.764-102.870 -40.638  0.00  0.00     0.000 A 
ATOM     15  C   UNL d   1     -54.837-102.638 -41.403  0.00  0.00     0.005 A 
ENDBRANCH   3   9
BRANCH   4  16
ATOM     16  C   UNL d   1     -54.963-100.151 -43.927  0.00  0.00     0.018 A 
ATOM     17  C   UNL d   1     -55.154 -99.402 -43.657  0.00  0.00     0.002 A 
ATOM     18  C   UNL d   1     -55.367 -99.331 -42.861  0.00  0.00     0.000 C 
ATOM     19  C   UNL d   1     -55.140 -98.758 -44.133  0.00  0.00     0.000 A 
ATOM     20  C   UNL d   1     -54.927 -98.831 -44.928  0.00  0.00     0.000 A 
ATOM     21  C   UNL d   1     -54.726 -99.574 -45.241  0.00  0.00     0.000 A 
ATOM     22  C   UNL d   1     -54.750-100.218 -44.723  0.00  0.00     0.002 A 
ENDBRANCH   4  16
TORSDOF 2
ENDMDL
