MODEL 1
REMARK VINA RESULT:      10.5      0.000      0.000
REMARK  10 active torsions:
REMARK  status: ('A' for Active; 'I' for Inactive)
REMARK    1  A    between atoms: C_5  and  C_1 
REMARK    2  A    between atoms: N_6  and  C_2 
REMARK    3  A    between atoms: C_7  and  C_5 
REMARK    4  A    between atoms: C_8  and  C_5 
REMARK    5  A    between atoms: O_13  and  C_7 
REMARK    6  A    between atoms: C_20  and  N_12 
REMARK    7  A    between atoms: C_19  and  O_13 
REMARK    8  A    between atoms: C_23  and  C_19 
REMARK    9  A    between atoms: C_24  and  C_23 
REMARK   10  A    between atoms: C_25  and  C_23 
ROOT
ATOM      1  C   UNL d   1     -41.614-121.304 -52.048  0.00  0.00     0.122 A 
ATOM      2  C   UNL d   1     -41.617-121.193 -51.234  0.00  0.00     0.166 A 
ATOM      3  N   UNL d   1     -41.494-120.438 -50.935  0.00  0.00    -0.225 NA
ATOM      4  N   UNL d   1     -41.490-120.668 -52.559  0.00  0.00    -0.241 NA
ATOM      5  C   UNL d   1     -41.371-119.804 -51.432  0.00  0.00     0.101 A 
ATOM      6  C   UNL d   1     -41.369-119.920 -52.251  0.00  0.00     0.099 A 
ATOM      7  C   UNL d   1     -41.248-119.049 -51.125  0.00  0.00     0.021 A 
ATOM      8  C   UNL d   1     -41.246-119.287 -52.753  0.00  0.00     0.021 A 
ATOM      9  C   UNL d   1     -41.124-118.413 -51.635  0.00  0.00     0.002 A 
ATOM     10  C   UNL d   1     -41.123-118.531 -52.446  0.00  0.00     0.002 A 
ENDROOT
BRANCH   1  11
ATOM     11  C   UNL d   1     -41.737-122.062 -52.368  0.00  0.00     0.105 C 
BRANCH  11  12
ATOM     12  C   UNL d   1     -42.434-122.242 -52.775  0.00  0.00     0.303 C 
ATOM     13  O   UNL d   1     -43.067-122.539 -52.357  0.00  0.00    -0.259 OA
BRANCH  12  14
ATOM     14  O   UNL d   1     -42.472-122.119 -53.580  0.00  0.00    -0.271 OA
BRANCH  14  15
ATOM     15  C   UNL d   1     -42.097-121.901 -54.273  0.00  0.00     0.126 C 
BRANCH  15  16
ATOM     16  C   UNL d   1     -42.367-122.194 -54.982  0.00  0.00     0.025 C 
BRANCH  16  17
ATOM     17  C   UNL d   1     -42.782-122.889 -55.002  0.00  0.00     0.002 C 
ATOM     18  C   UNL d   1     -42.787-123.349 -55.689  0.00  0.00     0.000 C 
ENDBRANCH  16  17
BRANCH  16  19
ATOM     19  C   UNL d   1     -42.216-121.780 -55.676  0.00  0.00     0.002 C 
ATOM     20  C   UNL d   1     -41.515-121.891 -56.089  0.00  0.00     0.000 C 
ENDBRANCH  16  19
ENDBRANCH  15  16
ENDBRANCH  14  15
ENDBRANCH  12  14
ENDBRANCH  11  12
BRANCH  11  21
ATOM     21  C   UNL d   1     -41.151-122.644 -52.276  0.00  0.00     0.129 C 
ATOM     22  N   UNL d   1     -41.318-123.568 -52.429  0.00  0.00    -0.146 N 
ENDBRANCH  11  21
ENDBRANCH   1  11
BRANCH   2  23
ATOM     23  N   UNL d   1     -41.741-121.830 -50.732  0.00  0.00    -0.285 N 
ATOM     24  C   UNL d   1     -41.124-122.336 -50.551  0.00  0.00     0.101 A 
ATOM     25  C   UNL d   1     -41.255-122.974 -50.045  0.00  0.00     0.100 A 
ATOM     26  N   UNL d   1     -42.007-123.101 -49.724  0.00  0.00    -0.300 N 
ATOM     27  C   UNL d   1     -42.626-122.588 -49.909  0.00  0.00     0.100 A 
ATOM     28  C   UNL d   1     -42.492-121.956 -50.411  0.00  0.00     0.101 A 
BRANCH  26  29
ATOM     29  C   UNL d   1     -42.136-123.745 -49.215  0.00  0.00     0.080 C 
ATOM     30  C   UNL d   1     -42.864-123.817 -48.830  0.00  0.00     0.021 C 
ENDBRANCH  26  29
ENDBRANCH   2  23
TORSDOF 10
ENDMDL
MODEL 2
REMARK VINA RESULT:      11.1      0.997      3.926
REMARK  10 active torsions:
REMARK  status: ('A' for Active; 'I' for Inactive)
REMARK    1  A    between atoms: C_5  and  C_1 
REMARK    2  A    between atoms: N_6  and  C_2 
REMARK    3  A    between atoms: C_7  and  C_5 
REMARK    4  A    between atoms: C_8  and  C_5 
REMARK    5  A    between atoms: O_13  and  C_7 
REMARK    6  A    between atoms: C_20  and  N_12 
REMARK    7  A    between atoms: C_19  and  O_13 
REMARK    8  A    between atoms: C_23  and  C_19 
REMARK    9  A    between atoms: C_24  and  C_23 
REMARK   10  A    between atoms: C_25  and  C_23 
ROOT
ATOM      1  C   UNL d   1     -41.530-121.608 -52.529  0.00  0.00     0.122 A 
ATOM      2  C   UNL d   1     -41.698-121.201 -53.224  0.00  0.00     0.166 A 
ATOM      3  N   UNL d   1     -41.679-120.381 -53.219  0.00  0.00    -0.225 NA
ATOM      4  N   UNL d   1     -41.344-121.199 -51.838  0.00  0.00    -0.241 NA
ATOM      5  C   UNL d   1     -41.496-119.969 -52.540  0.00  0.00     0.101 A 
ATOM      6  C   UNL d   1     -41.327-120.381 -51.844  0.00  0.00     0.099 A 
ATOM      7  C   UNL d   1     -41.478-119.144 -52.542  0.00  0.00     0.021 A 
ATOM      8  C   UNL d   1     -41.143-119.972 -51.161  0.00  0.00     0.021 A 
ATOM      9  C   UNL d   1     -41.292-118.735 -51.850  0.00  0.00     0.002 A 
ATOM     10  C   UNL d   1     -41.125-119.147 -51.163  0.00  0.00     0.002 A 
ENDROOT
BRANCH   1  11
ATOM     11  C   UNL d   1     -41.545-122.439 -52.516  0.00  0.00     0.105 C 
BRANCH  11  12
ATOM     12  C   UNL d   1     -41.973-122.846 -51.938  0.00  0.00     0.303 C 
ATOM     13  O   UNL d   1     -42.449-123.467 -52.166  0.00  0.00    -0.259 OA
BRANCH  12  14
ATOM     14  O   UNL d   1     -41.911-122.619 -51.158  0.00  0.00    -0.271 OA
BRANCH  14  15
ATOM     15  C   UNL d   1     -42.230-122.604 -50.405  0.00  0.00     0.126 C 
BRANCH  15  16
ATOM     16  C   UNL d   1     -42.155-123.259 -49.927  0.00  0.00     0.025 C 
BRANCH  16  17
ATOM     17  C   UNL d   1     -41.461-123.395 -49.533  0.00  0.00     0.002 C 
ATOM     18  C   UNL d   1     -41.474-123.600 -48.732  0.00  0.00     0.000 C 
ENDBRANCH  16  17
BRANCH  16  19
ATOM     19  C   UNL d   1     -42.788-123.778 -49.849  0.00  0.00     0.002 C 
ATOM     20  C   UNL d   1     -43.364-123.657 -49.277  0.00  0.00     0.000 C 
ENDBRANCH  16  19
ENDBRANCH  15  16
ENDBRANCH  14  15
ENDBRANCH  12  14
ENDBRANCH  11  12
BRANCH  11  21
ATOM     21  C   UNL d   1     -41.124-122.864 -53.094  0.00  0.00     0.129 C 
ATOM     22  N   UNL d   1     -41.124-123.816 -53.131  0.00  0.00    -0.146 N 
ENDBRANCH  11  21
ENDBRANCH   1  11
BRANCH   2  23
ATOM     23  N   UNL d   1     -41.883-121.614 -53.909  0.00  0.00    -0.285 N 
ATOM     24  C   UNL d   1     -41.290-121.833 -54.428  0.00  0.00     0.101 A 
ATOM     25  C   UNL d   1     -41.482-122.248 -55.114  0.00  0.00     0.100 A 
ATOM     26  N   UNL d   1     -42.270-122.441 -55.275  0.00  0.00    -0.300 N 
ATOM     27  C   UNL d   1     -42.865-122.218 -54.749  0.00  0.00     0.100 A 
ATOM     28  C   UNL d   1     -42.671-121.807 -54.069  0.00  0.00     0.101 A 
BRANCH  26  29
ATOM     29  C   UNL d   1     -42.460-122.859 -55.968  0.00  0.00     0.080 C 
ATOM     30  C   UNL d   1     -42.959-123.517 -55.919  0.00  0.00     0.021 C 
ENDBRANCH  26  29
ENDBRANCH   2  23
TORSDOF 10
ENDMDL
