MODEL 1
REMARK VINA RESULT:      -6.0      0.000      0.000
REMARK  5 active torsions:
REMARK  status: ('A' for Active; 'I' for Inactive)
REMARK    1  A    between atoms: N_3  and  C_1 
REMARK       I    between atoms: C_7  and  N_3 
REMARK    2  A    between atoms: S_9  and  C_4 
REMARK    3  A    between atoms: C_8  and  C_7 
REMARK    4  A    between atoms: C_13  and  S_9 
REMARK    5  A    between atoms: C_16  and  C_13 
ROOT
ATOM      1  C   UNL d   1     -44.367  12.908  21.743  0.00  0.00     0.219 A 
ATOM      2  S   UNL d   1     -43.756  13.367  21.350  0.00  0.00    -0.019 SA
ATOM      3  C   UNL d   1     -43.020  12.914  21.444  0.00  0.00     0.165 A 
ATOM      4  N   UNL d   1     -44.024  12.333  21.992  0.00  0.00    -0.120 NA
ATOM      5  N   UNL d   1     -43.184  12.346  21.800  0.00  0.00    -0.133 NA
ENDROOT
BRANCH   1   6
ATOM      6  N   UNL d   1     -45.257  13.136  21.809  0.00  0.00    -0.181 NA
ATOM      7  C   UNL d   1     -45.689  13.009  22.536  0.00  0.00     0.281 C 
ATOM      8  O   UNL d   1     -45.347  12.731  23.071  0.00  0.00    -0.265 OA
BRANCH   7   9
ATOM      9  C   UNL d   1     -46.472  13.167  22.721  0.00  0.00     0.058 A 
ATOM     10  C   UNL d   1     -46.745  13.943  22.714  0.00  0.00     0.006 A 
ATOM     11  C   UNL d   1     -47.539  14.099  22.902  0.00  0.00     0.012 A 
ATOM     12  C   UNL d   1     -48.045  13.467  23.094  0.00  0.00     0.058 A 
ATOM     13  C   UNL d   1     -47.751  12.696  23.095  0.00  0.00     0.012 A 
ATOM     14 CL   UNL d   1     -48.865  13.728  23.278  0.00  0.00    -0.082 Cl
ATOM     15  C   UNL d   1     -46.966  12.550  22.909  0.00  0.00     0.006 A 
ENDBRANCH   7   9
ENDBRANCH   1   6
BRANCH   3  16
ATOM     16  S   UNL d   1     -42.163  13.049  21.180  0.00  0.00    -0.059 SA
BRANCH  16  17
ATOM     17  C   UNL d   1     -42.008  13.775  21.121  0.00  0.00     0.037 C 
BRANCH  17  18
ATOM     18  C   UNL d   1     -41.262  14.018  20.897  0.00  0.00     0.007 A 
ATOM     19  C   UNL d   1     -40.654  14.082  21.443  0.00  0.00     0.001 A 
ATOM     20  C   UNL d   1     -39.897  14.328  21.215  0.00  0.00     0.007 A 
ATOM     21  C   UNL d   1     -39.756  14.512  20.420  0.00  0.00     0.035 A 
ATOM     22  C   UNL d   1     -40.377  14.449  19.854  0.00  0.00     0.007 A 
ATOM     23 BR   UNL d   1     -38.836  14.818  20.108  0.00  0.00    -0.049 Br
ATOM     24  C   UNL d   1     -41.126  14.197  20.121  0.00  0.00     0.001 A 
ENDBRANCH  17  18
ENDBRANCH  16  17
ENDBRANCH   3  16
TORSDOF 5
ENDMDL
MODEL 2
REMARK VINA RESULT:      -5.4      3.169      6.141
REMARK  5 active torsions:
REMARK  status: ('A' for Active; 'I' for Inactive)
REMARK    1  A    between atoms: N_3  and  C_1 
REMARK       I    between atoms: C_7  and  N_3 
REMARK    2  A    between atoms: S_9  and  C_4 
REMARK    3  A    between atoms: C_8  and  C_7 
REMARK    4  A    between atoms: C_13  and  S_9 
REMARK    5  A    between atoms: C_16  and  C_13 
ROOT
ATOM      1  C   UNL d   1     -43.093  12.772  21.316  0.00  0.00     0.219 A 
ATOM      2  S   UNL d   1     -43.889  13.094  21.282  0.00  0.00    -0.019 SA
ATOM      3  C   UNL d   1     -44.347  12.664  21.883  0.00  0.00     0.165 A 
ATOM      4  N   UNL d   1     -43.125  12.275  21.828  0.00  0.00    -0.120 NA
ATOM      5  N   UNL d   1     -43.912  12.215  22.175  0.00  0.00    -0.133 NA
ENDROOT
BRANCH   1   6
ATOM      6  N   UNL d   1     -42.381  13.033  20.793  0.00  0.00    -0.181 NA
ATOM      7  C   UNL d   1     -41.869  13.672  21.038  0.00  0.00     0.281 C 
ATOM      8  O   UNL d   1     -42.009  13.986  21.640  0.00  0.00    -0.265 OA
BRANCH   7   9
ATOM      9  C   UNL d   1     -41.213  13.995  20.669  0.00  0.00     0.058 A 
ATOM     10  C   UNL d   1     -41.236  14.160  19.863  0.00  0.00     0.006 A 
ATOM     11  C   UNL d   1     -40.568  14.486  19.492  0.00  0.00     0.012 A 
ATOM     12  C   UNL d   1     -39.887  14.642  19.942  0.00  0.00     0.058 A 
ATOM     13  C   UNL d   1     -39.883  14.469  20.749  0.00  0.00     0.012 A 
ATOM     14 CL   UNL d   1     -39.232  14.986  19.466  0.00  0.00    -0.082 Cl
ATOM     15  C   UNL d   1     -40.546  14.147  21.108  0.00  0.00     0.006 A 
ENDBRANCH   7   9
ENDBRANCH   1   6
BRANCH   3  16
ATOM     16  S   UNL d   1     -45.209  12.701  22.160  0.00  0.00    -0.059 SA
BRANCH  16  17
ATOM     17  C   UNL d   1     -45.464  13.401  22.162  0.00  0.00     0.037 C 
BRANCH  17  18
ATOM     18  C   UNL d   1     -46.240  13.554  22.360  0.00  0.00     0.007 A 
ATOM     19  C   UNL d   1     -46.834  13.011  22.203  0.00  0.00     0.001 A 
ATOM     20  C   UNL d   1     -47.622  13.166  22.404  0.00  0.00     0.007 A 
ATOM     21  C   UNL d   1     -47.809  13.885  22.770  0.00  0.00     0.035 A 
ATOM     22  C   UNL d   1     -47.204  14.448  22.934  0.00  0.00     0.007 A 
ATOM     23 BR   UNL d   1     -48.769  14.107  23.030  0.00  0.00    -0.049 Br
ATOM     24  C   UNL d   1     -46.422  14.256  22.717  0.00  0.00     0.001 A 
ENDBRANCH  17  18
ENDBRANCH  16  17
ENDBRANCH   3  16
TORSDOF 5
ENDMDL
MODEL 3
REMARK VINA RESULT:      -4.1      3.335      6.422
REMARK  5 active torsions:
REMARK  status: ('A' for Active; 'I' for Inactive)
REMARK    1  A    between atoms: N_3  and  C_1 
REMARK       I    between atoms: C_7  and  N_3 
REMARK    2  A    between atoms: S_9  and  C_4 
REMARK    3  A    between atoms: C_8  and  C_7 
REMARK    4  A    between atoms: C_13  and  S_9 
REMARK    5  A    between atoms: C_16  and  C_13 
ROOT
ATOM      1  C   UNL d   1     -44.343  13.002  21.938  0.00  0.00     0.219 A 
ATOM      2  S   UNL d   1     -45.111  13.286  22.201  0.00  0.00    -0.019 SA
ATOM      3  C   UNL d   1     -45.474  12.625  22.634  0.00  0.00     0.165 A 
ATOM      4  N   UNL d   1     -44.309  12.332  22.182  0.00  0.00    -0.120 NA
ATOM      5  N   UNL d   1     -45.020  12.106  22.615  0.00  0.00    -0.133 NA
ENDROOT
BRANCH   1   6
ATOM      6  N   UNL d   1     -43.726  13.482  21.451  0.00  0.00    -0.181 NA
ATOM      7  C   UNL d   1     -42.902  13.254  21.441  0.00  0.00     0.281 C 
ATOM      8  O   UNL d   1     -42.716  12.697  21.811  0.00  0.00    -0.265 OA
BRANCH   7   9
ATOM      9  C   UNL d   1     -42.265  13.592  21.054  0.00  0.00     0.058 A 
ATOM     10  C   UNL d   1     -42.103  13.386  20.274  0.00  0.00     0.006 A 
ATOM     11  C   UNL d   1     -41.456  13.732  19.885  0.00  0.00     0.012 A 
ATOM     12  C   UNL d   1     -40.981  14.281  20.291  0.00  0.00     0.058 A 
ATOM     13  C   UNL d   1     -41.159  14.474  21.073  0.00  0.00     0.012 A 
ATOM     14 CL   UNL d   1     -40.321  14.592  19.800  0.00  0.00    -0.082 Cl
ATOM     15  C   UNL d   1     -41.800  14.129  21.450  0.00  0.00     0.006 A 
ENDBRANCH   7   9
ENDBRANCH   1   6
BRANCH   3  16
ATOM     16  S   UNL d   1     -46.266  12.516  23.062  0.00  0.00    -0.059 SA
BRANCH  16  17
ATOM     17  C   UNL d   1     -46.840  12.589  22.593  0.00  0.00     0.037 C 
BRANCH  17  18
ATOM     18  C   UNL d   1     -47.603  12.468  22.857  0.00  0.00     0.007 A 
ATOM     19  C   UNL d   1     -47.804  11.795  23.280  0.00  0.00     0.001 A 
ATOM     20  C   UNL d   1     -48.578  11.672  23.547  0.00  0.00     0.007 A 
ATOM     21  C   UNL d   1     -49.156  12.242  23.382  0.00  0.00     0.035 A 
ATOM     22  C   UNL d   1     -48.955  12.935  22.948  0.00  0.00     0.007 A 
ATOM     23 BR   UNL d   1     -50.117  12.121  23.697  0.00  0.00    -0.049 Br
ATOM     24  C   UNL d   1     -48.165  13.025  22.695  0.00  0.00     0.001 A 
ENDBRANCH  17  18
ENDBRANCH  16  17
ENDBRANCH   3  16
TORSDOF 5
ENDMDL
MODEL 4
REMARK VINA RESULT:      -3.3      6.053      6.962
REMARK  5 active torsions:
REMARK  status: ('A' for Active; 'I' for Inactive)
REMARK    1  A    between atoms: N_3  and  C_1 
REMARK       I    between atoms: C_7  and  N_3 
REMARK    2  A    between atoms: S_9  and  C_4 
REMARK    3  A    between atoms: C_8  and  C_7 
REMARK    4  A    between atoms: C_13  and  S_9 
REMARK    5  A    between atoms: C_16  and  C_13 
ROOT
ATOM      1  C   UNL d   1     -39.856  15.502  19.084  0.00  0.00     0.219 A 
ATOM      2  S   UNL d   1     -39.225  15.500  18.501  0.00  0.00    -0.019 SA
ATOM      3  C   UNL d   1     -39.613  15.415  17.728  0.00  0.00     0.165 A 
ATOM      4  N   UNL d   1     -40.453  15.431  18.699  0.00  0.00    -0.120 NA
ATOM      5  N   UNL d   1     -40.291  15.378  17.854  0.00  0.00    -0.133 NA
ENDROOT
BRANCH   1   6
ATOM      6  N   UNL d   1     -39.751  15.578  19.996  0.00  0.00    -0.181 NA
ATOM      7  C   UNL d   1     -39.285  15.010  20.433  0.00  0.00     0.281 C 
ATOM      8  O   UNL d   1     -38.990  14.492  20.078  0.00  0.00    -0.265 OA
BRANCH   7   9
ATOM      9  C   UNL d   1     -39.117  14.968  21.234  0.00  0.00     0.058 A 
ATOM     10  C   UNL d   1     -39.154  14.243  21.621  0.00  0.00     0.006 A 
ATOM     11  C   UNL d   1     -38.983  14.204  22.434  0.00  0.00     0.012 A 
ATOM     12  C   UNL d   1     -38.777  14.899  22.841  0.00  0.00     0.058 A 
ATOM     13  C   UNL d   1     -38.745  15.616  22.435  0.00  0.00     0.012 A 
ATOM     14 CL   UNL d   1     -38.614  14.760  23.694  0.00  0.00    -0.082 Cl
ATOM     15  C   UNL d   1     -38.915  15.646  21.633  0.00  0.00     0.006 A 
ENDBRANCH   7   9
ENDBRANCH   1   6
BRANCH   3  16
ATOM     16  S   UNL d   1     -39.310  15.370  16.875  0.00  0.00    -0.059 SA
BRANCH  16  17
ATOM     17  C   UNL d   1     -38.706  14.937  16.824  0.00  0.00     0.037 C 
BRANCH  17  18
ATOM     18  C   UNL d   1     -38.529  14.562  16.121  0.00  0.00     0.007 A 
ATOM     19  C   UNL d   1     -38.501  13.745  16.071  0.00  0.00     0.001 A 
ATOM     20  C   UNL d   1     -38.321  13.364  15.358  0.00  0.00     0.007 A 
ATOM     21  C   UNL d   1     -38.169  13.822  14.685  0.00  0.00     0.035 A 
ATOM     22  C   UNL d   1     -38.197  14.663  14.730  0.00  0.00     0.007 A 
ATOM     23 BR   UNL d   1     -37.945  13.385  13.793  0.00  0.00    -0.049 Br
ATOM     24  C   UNL d   1     -38.381  15.010  15.466  0.00  0.00     0.001 A 
ENDBRANCH  17  18
ENDBRANCH  16  17
ENDBRANCH   3  16
TORSDOF 5
ENDMDL
MODEL 5
REMARK VINA RESULT:      -3.1      2.003      2.923
REMARK  5 active torsions:
REMARK  status: ('A' for Active; 'I' for Inactive)
REMARK    1  A    between atoms: N_3  and  C_1 
REMARK       I    between atoms: C_7  and  N_3 
REMARK    2  A    between atoms: S_9  and  C_4 
REMARK    3  A    between atoms: C_8  and  C_7 
REMARK    4  A    between atoms: C_13  and  S_9 
REMARK    5  A    between atoms: C_16  and  C_13 
ROOT
ATOM      1  C   UNL d   1     -42.054  13.788  21.121  0.00  0.00     0.219 A 
ATOM      2  S   UNL d   1     -41.840  14.374  20.530  0.00  0.00    -0.019 SA
ATOM      3  C   UNL d   1     -41.031  14.177  20.280  0.00  0.00     0.165 A 
ATOM      4  N   UNL d   1     -41.478  13.369  21.171  0.00  0.00    -0.120 NA
ATOM      5  N   UNL d   1     -40.845  13.620  20.642  0.00  0.00    -0.133 NA
ENDROOT
BRANCH   1   6
ATOM      6  N   UNL d   1     -42.857  13.739  21.570  0.00  0.00    -0.181 NA
ATOM      7  C   UNL d   1     -43.345  13.039  21.521  0.00  0.00     0.281 C 
ATOM      8  O   UNL d   1     -43.116  12.512  21.133  0.00  0.00    -0.265 OA
BRANCH   7   9
ATOM      9  C   UNL d   1     -44.068  12.874  21.867  0.00  0.00     0.058 A 
ATOM     10  C   UNL d   1     -44.157  12.194  22.323  0.00  0.00     0.006 A 
ATOM     11  C   UNL d   1     -44.893  12.030  22.673  0.00  0.00     0.012 A 
ATOM     12  C   UNL d   1     -45.527  12.555  22.556  0.00  0.00     0.058 A 
ATOM     13  C   UNL d   1     -45.418  13.231  22.096  0.00  0.00     0.012 A 
ATOM     14 CL   UNL d   1     -46.264  12.300  22.964  0.00  0.00    -0.082 Cl
ATOM     15  C   UNL d   1     -44.689  13.386  21.754  0.00  0.00     0.006 A 
ENDBRANCH   7   9
ENDBRANCH   1   6
BRANCH   3  16
ATOM     16  S   UNL d   1     -40.453  14.542  19.685  0.00  0.00    -0.059 SA
BRANCH  16  17
ATOM     17  C   UNL d   1     -40.633  14.362  18.985  0.00  0.00     0.037 C 
BRANCH  17  18
ATOM     18  C   UNL d   1     -40.158  14.600  18.365  0.00  0.00     0.007 A 
ATOM     19  C   UNL d   1     -39.891  15.373  18.307  0.00  0.00     0.001 A 
ATOM     20  C   UNL d   1     -39.409  15.614  17.678  0.00  0.00     0.007 A 
ATOM     21  C   UNL d   1     -39.196  15.061  17.100  0.00  0.00     0.035 A 
ATOM     22  C   UNL d   1     -39.467  14.265  17.155  0.00  0.00     0.007 A 
ATOM     23 BR   UNL d   1     -38.604  15.325  16.314  0.00  0.00    -0.049 Br
ATOM     24  C   UNL d   1     -39.951  14.059  17.802  0.00  0.00     0.001 A 
ENDBRANCH  17  18
ENDBRANCH  16  17
ENDBRANCH   3  16
TORSDOF 5
ENDMDL
