MODEL 1
REMARK VINA RESULT:      47.0      0.000      0.000
REMARK  4 active torsions:
REMARK  status: ('A' for Active; 'I' for Inactive)
REMARK    1  A    between atoms: N_7  and  C_1 
REMARK    2  A    between atoms: C_9  and  N_3 
REMARK       I    between atoms: C_11  and  N_7 
REMARK    3  A    between atoms: C_15  and  C_11 
REMARK    4  A    between atoms: C_17  and  C_15 
ROOT
ATOM      1  C   UNL d   1      14.037  12.669  -2.905  0.00  0.00     0.169 A 
ATOM      2  C   UNL d   1      13.715  12.619  -3.672  0.00  0.00     0.065 A 
ATOM      3  N   UNL d   1      13.618  12.153  -2.412  0.00  0.00    -0.212 N 
ATOM      4  N   UNL d   1      13.036  11.783  -2.871  0.00  0.00    -0.163 NA
ATOM      5  C   UNL d   1      13.097  12.071  -3.647  0.00  0.00     0.114 A 
ATOM      6  S   UNL d   1      13.188  12.529  -4.900  0.00  0.00     0.091 S 
ATOM      7  C   UNL d   1      12.769  12.014  -4.407  0.00  0.00     0.090 A 
ATOM      8  C   UNL d   1      13.772  12.902  -4.442  0.00  0.00     0.073 A 
ATOM      9  O   UNL d   1      13.050  12.654  -5.709  0.00  0.00    -0.247 OA
ENDROOT
BRANCH   1  10
ATOM     10  N   UNL d   1      14.671  13.155  -2.680  0.00  0.00    -0.189 NA
ATOM     11  C   UNL d   1      14.583  13.969  -2.658  0.00  0.00     0.281 C 
ATOM     12  O   UNL d   1      13.851  14.319  -2.863  0.00  0.00    -0.265 OA
BRANCH  11  13
ATOM     13  C   UNL d   1      15.212  14.455  -2.434  0.00  0.00     0.063 C 
BRANCH  13  14
ATOM     14  C   UNL d   1      15.054  15.187  -2.094  0.00  0.00     0.005 A 
ATOM     15  C   UNL d   1      15.087  15.270  -1.276  0.00  0.00     0.003 A 
ATOM     16  C   UNL d   1      14.929  16.003  -0.932  0.00  0.00     0.030 A 
ATOM     17  C   UNL d   1      14.738  16.654  -1.408  0.00  0.00     0.140 A 
ATOM     18  C   UNL d   1      14.707  16.563  -2.224  0.00  0.00     0.030 A 
ATOM     19  F   UNL d   1      14.580  17.388  -1.064  0.00  0.00    -0.204 F 
ATOM     20  C   UNL d   1      14.864  15.832  -2.569  0.00  0.00     0.003 A 
ENDBRANCH  13  14
ENDBRANCH  11  13
ENDBRANCH   1  10
BRANCH   3  21
ATOM     21  C   UNL d   1      13.753  12.027  -1.606  0.00  0.00     0.085 A 
ATOM     22  C   UNL d   1      14.529  11.999  -1.326  0.00  0.00     0.031 A 
ATOM     23  C   UNL d   1      14.654  11.875  -0.532  0.00  0.00     0.059 A 
ATOM     24 CL   UNL d   1      15.420  11.845  -0.243  0.00  0.00    -0.082 Cl
ATOM     25  C   UNL d   1      14.019  11.779  -0.014  0.00  0.00     0.011 A 
ATOM     26  C   UNL d   1      13.252  11.808  -0.293  0.00  0.00     0.002 A 
ATOM     27  C   UNL d   1      13.117  11.933  -1.098  0.00  0.00     0.019 A 
ENDBRANCH   3  21
TORSDOF 4
ENDMDL
