MODEL 1
REMARK VINA RESULT:      80.3      0.000      0.000
REMARK  6 active torsions:
REMARK  status: ('A' for Active; 'I' for Inactive)
REMARK    1  A    between atoms: S_3  and  C_1 
REMARK    2  A    between atoms: C_11  and  S_3 
REMARK    3  A    between atoms: N_8  and  C_4 
REMARK    4  A    between atoms: C_7  and  C_5 
REMARK    5  A    between atoms: C_18  and  N_8 
REMARK    6  A    between atoms: C_17  and  C_18 
ROOT
ATOM      1  C   UNL d   1     -49.700  27.581  36.202  0.00  0.00     0.212 A 
ATOM      2  N   UNL d   1     -49.171  28.199  36.327  0.00  0.00    -0.205 NA
ATOM      3  C   UNL d   1     -49.633  27.341  35.414  0.00  0.00     0.213 A 
ATOM      4  C   UNL d   1     -48.776  28.342  35.617  0.00  0.00     0.208 A 
ATOM      5  O   UNL d   1     -49.061  27.815  35.056  0.00  0.00    -0.267 OA
ENDROOT
BRANCH   1   6
ATOM      6  S   UNL d   1     -50.179  27.309  36.815  0.00  0.00     0.230 S 
ATOM      7  O   UNL d   1     -50.960  27.093  36.671  0.00  0.00    -0.215 OA
ATOM      8  O   UNL d   1     -49.872  27.253  37.586  0.00  0.00    -0.215 OA
BRANCH   6   9
ATOM      9  C   UNL d   1     -50.651  27.038  37.434  0.00  0.00     0.090 A 
ATOM     10  C   UNL d   1     -51.128  26.369  37.333  0.00  0.00     0.011 A 
ATOM     11  C   UNL d   1     -51.601  26.100  37.957  0.00  0.00     0.001 A 
ATOM     12  C   UNL d   1     -51.596  26.502  38.683  0.00  0.00     0.000 A 
ATOM     13  C   UNL d   1     -51.119  27.172  38.784  0.00  0.00     0.001 A 
ATOM     14  C   UNL d   1     -50.647  27.437  38.154  0.00  0.00     0.011 A 
ENDBRANCH   6   9
ENDBRANCH   1   6
BRANCH   3  15
ATOM     15  N   UNL d   1     -50.061  26.736  35.049  0.00  0.00    -0.219 NA
BRANCH  15  16
ATOM     16  C   UNL d   1     -50.200  26.754  34.240  0.00  0.00     0.103 C 
BRANCH  16  17
ATOM     17  C   UNL d   1     -50.805  26.289  33.929  0.00  0.00     0.038 A 
ATOM     18  C   UNL d   1     -50.732  25.465  33.914  0.00  0.00     0.101 A 
ATOM     19  N   UNL d   1     -51.339  25.005  33.601  0.00  0.00    -0.242 NA
ATOM     20  C   UNL d   1     -52.012  25.371  33.307  0.00  0.00     0.099 A 
ATOM     21  C   UNL d   1     -52.088  26.187  33.321  0.00  0.00     0.021 A 
ATOM     22  C   UNL d   1     -51.479  26.651  33.634  0.00  0.00     0.005 A 
ENDBRANCH  16  17
ENDBRANCH  15  16
ENDBRANCH   3  15
BRANCH   4  23
ATOM     23  C   UNL d   1     -48.251  28.956  35.741  0.00  0.00     0.141 A 
ATOM     24  O   UNL d   1     -47.971  29.490  36.300  0.00  0.00    -0.302 OA
ATOM     25  C   UNL d   1     -47.393  29.958  35.944  0.00  0.00     0.123 A 
ATOM     26  C   UNL d   1     -47.318  29.709  35.160  0.00  0.00     0.029 A 
ATOM     27  C   UNL d   1     -47.846  29.092  35.035  0.00  0.00     0.030 A 
ENDBRANCH   4  23
TORSDOF 6
ENDMDL
MODEL 2
REMARK VINA RESULT:      81.6      1.198      3.424
REMARK  6 active torsions:
REMARK  status: ('A' for Active; 'I' for Inactive)
REMARK    1  A    between atoms: S_3  and  C_1 
REMARK    2  A    between atoms: C_11  and  S_3 
REMARK    3  A    between atoms: N_8  and  C_4 
REMARK    4  A    between atoms: C_7  and  C_5 
REMARK    5  A    between atoms: C_18  and  N_8 
REMARK    6  A    between atoms: C_17  and  C_18 
ROOT
ATOM      1  C   UNL d   1     -49.570  27.551  35.378  0.00  0.00     0.212 A 
ATOM      2  N   UNL d   1     -48.952  28.026  35.114  0.00  0.00    -0.205 NA
ATOM      3  C   UNL d   1     -49.676  27.692  36.185  0.00  0.00     0.213 A 
ATOM      4  C   UNL d   1     -48.675  28.462  35.757  0.00  0.00     0.208 A 
ATOM      5  O   UNL d   1     -49.121  28.257  36.415  0.00  0.00    -0.267 OA
ENDROOT
BRANCH   1   6
ATOM      6  S   UNL d   1     -49.963  27.047  34.858  0.00  0.00     0.230 S 
ATOM      7  O   UNL d   1     -49.585  26.766  34.182  0.00  0.00    -0.215 OA
ATOM      8  O   UNL d   1     -50.747  26.819  35.015  0.00  0.00    -0.215 OA
BRANCH   6   9
ATOM      9  C   UNL d   1     -50.362  26.543  34.343  0.00  0.00     0.090 A 
ATOM     10  C   UNL d   1     -51.171  26.650  34.196  0.00  0.00     0.011 A 
ATOM     11  C   UNL d   1     -51.569  26.143  33.679  0.00  0.00     0.001 A 
ATOM     12  C   UNL d   1     -51.157  25.526  33.306  0.00  0.00     0.000 A 
ATOM     13  C   UNL d   1     -50.349  25.418  33.451  0.00  0.00     0.001 A 
ATOM     14  C   UNL d   1     -49.955  25.931  33.973  0.00  0.00     0.011 A 
ENDBRANCH   6   9
ENDBRANCH   1   6
BRANCH   3  15
ATOM     15  N   UNL d   1     -50.237  27.334  36.675  0.00  0.00    -0.219 NA
BRANCH  15  16
ATOM     16  C   UNL d   1     -50.122  27.304  37.487  0.00  0.00     0.103 C 
BRANCH  16  17
ATOM     17  C   UNL d   1     -50.718  26.993  37.964  0.00  0.00     0.038 A 
ATOM     18  C   UNL d   1     -51.029  27.439  38.587  0.00  0.00     0.101 A 
ATOM     19  N   UNL d   1     -51.625  27.123  39.060  0.00  0.00    -0.242 NA
ATOM     20  C   UNL d   1     -51.902  26.366  38.907  0.00  0.00     0.099 A 
ATOM     21  C   UNL d   1     -51.595  25.921  38.291  0.00  0.00     0.021 A 
ATOM     22  C   UNL d   1     -50.997  26.237  37.814  0.00  0.00     0.005 A 
ENDBRANCH  16  17
ENDBRANCH  15  16
ENDBRANCH   3  15
BRANCH   4  23
ATOM     23  C   UNL d   1     -48.061  28.934  35.495  0.00  0.00     0.141 A 
ATOM     24  O   UNL d   1     -47.559  29.081  34.862  0.00  0.00    -0.302 OA
ATOM     25  C   UNL d   1     -47.060  29.705  35.067  0.00  0.00     0.123 A 
ATOM     26  C   UNL d   1     -47.258  29.942  35.833  0.00  0.00     0.029 A 
ATOM     27  C   UNL d   1     -47.876  29.467  36.097  0.00  0.00     0.030 A 
ENDBRANCH   4  23
TORSDOF 6
ENDMDL
