MODEL 1
REMARK VINA RESULT:      -9.2      0.000      0.000
REMARK  3 active torsions:
REMARK  status: ('A' for Active; 'I' for Inactive)
REMARK    1  A    between atoms: C_11  and  C_3 
REMARK    2  A    between atoms: O_13  and  C_10 
REMARK    3  A    between atoms: C_21  and  O_13 
ROOT
ATOM      1  C   UNL d   1      53.049  33.061  53.688  0.00  0.00     0.203 A 
ATOM      2  C   UNL d   1      53.162  32.252  53.583  0.00  0.00     0.101 A 
ATOM      3  C   UNL d   1      53.472  33.462  54.269  0.00  0.00     0.064 A 
ATOM      4  C   UNL d   1      53.698  31.845  54.060  0.00  0.00     0.108 A 
ATOM      5  C   UNL d   1      52.739  31.851  53.002  0.00  0.00     0.203 A 
ATOM      6  C   UNL d   1      54.008  33.055  54.746  0.00  0.00     0.126 A 
ATOM      7  O   UNL d   1      54.122  32.246  54.642  0.00  0.00    -0.305 OA
ATOM      8  C   UNL d   1      53.812  31.036  53.956  0.00  0.00     0.050 A 
ATOM      9  C   UNL d   1      52.852  31.039  52.896  0.00  0.00     0.067 A 
ATOM     10  C   UNL d   1      53.388  30.631  53.372  0.00  0.00     0.105 A 
ATOM     11  O   UNL d   1      52.513  33.468  53.212  0.00  0.00    -0.286 OA
ATOM     12  O   UNL d   1      52.203  32.258  52.526  0.00  0.00    -0.286 OA
ENDROOT
BRANCH   3  13
ATOM     13  C   UNL d   1      53.358  34.272  54.373  0.00  0.00     0.005 A 
ATOM     14  C   UNL d   1      52.984  34.558  55.062  0.00  0.00     0.003 A 
ATOM     15  C   UNL d   1      52.871  35.367  55.166  0.00  0.00     0.042 A 
ATOM     16  C   UNL d   1      53.129  35.901  54.586  0.00  0.00     0.196 A 
ATOM     17  C   UNL d   1      53.503  35.614  53.899  0.00  0.00     0.042 A 
ATOM     18  O   UNL d   1      53.015  36.710  54.692  0.00  0.00    -0.287 OA
ATOM     19  C   UNL d   1      53.616  34.806  53.794  0.00  0.00     0.003 A 
ENDBRANCH   3  13
BRANCH  10  20
ATOM     20  O   UNL d   1      53.500  29.815  53.264  0.00  0.00    -0.307 OA
BRANCH  20  21
ATOM     21  C   UNL d   1      53.124  29.271  53.753  0.00  0.00     0.100 C 
ATOM     22  C   UNL d   1      53.527  28.941  54.394  0.00  0.00     0.027 C 
ATOM     23  C   UNL d   1      52.342  29.052  53.605  0.00  0.00     0.027 C 
ENDBRANCH  20  21
ENDBRANCH  10  20
TORSDOF 3
ENDMDL
MODEL 2
REMARK VINA RESULT:      -9.1      2.379      3.586
REMARK  3 active torsions:
REMARK  status: ('A' for Active; 'I' for Inactive)
REMARK    1  A    between atoms: C_11  and  C_3 
REMARK    2  A    between atoms: O_13  and  C_10 
REMARK    3  A    between atoms: C_21  and  O_13 
ROOT
ATOM      1  C   UNL d   1      51.769  33.431  52.861  0.00  0.00     0.203 A 
ATOM      2  C   UNL d   1      52.502  33.321  53.221  0.00  0.00     0.101 A 
ATOM      3  C   UNL d   1      51.488  34.194  52.729  0.00  0.00     0.064 A 
ATOM      4  C   UNL d   1      52.953  33.973  53.449  0.00  0.00     0.108 A 
ATOM      5  C   UNL d   1      52.782  32.559  53.353  0.00  0.00     0.203 A 
ATOM      6  C   UNL d   1      51.939  34.846  52.957  0.00  0.00     0.126 A 
ATOM      7  O   UNL d   1      52.671  34.736  53.317  0.00  0.00    -0.305 OA
ATOM      8  C   UNL d   1      53.685  33.864  53.808  0.00  0.00     0.050 A 
ATOM      9  C   UNL d   1      53.518  32.446  53.714  0.00  0.00     0.067 A 
ATOM     10  C   UNL d   1      53.969  33.098  53.942  0.00  0.00     0.105 A 
ATOM     11  O   UNL d   1      51.318  32.780  52.634  0.00  0.00    -0.286 OA
ATOM     12  O   UNL d   1      52.332  31.907  53.125  0.00  0.00    -0.286 OA
ENDROOT
BRANCH   3  13
ATOM     13  C   UNL d   1      50.755  34.304  52.369  0.00  0.00     0.005 A 
ATOM     14  C   UNL d   1      50.680  34.242  51.541  0.00  0.00     0.003 A 
ATOM     15  C   UNL d   1      49.948  34.352  51.181  0.00  0.00     0.042 A 
ATOM     16  C   UNL d   1      49.281  34.525  51.642  0.00  0.00     0.196 A 
ATOM     17  C   UNL d   1      49.356  34.588  52.470  0.00  0.00     0.042 A 
ATOM     18  O   UNL d   1      48.549  34.635  51.281  0.00  0.00    -0.287 OA
ATOM     19  C   UNL d   1      50.088  34.478  52.830  0.00  0.00     0.003 A 
ENDBRANCH   3  13
BRANCH  10  20
ATOM     20  O   UNL d   1      54.708  32.983  54.305  0.00  0.00    -0.307 OA
BRANCH  20  21
ATOM     21  C   UNL d   1      54.866  33.304  55.045  0.00  0.00     0.100 C 
ATOM     22  C   UNL d   1      54.480  33.013  55.715  0.00  0.00     0.027 C 
ATOM     23  C   UNL d   1      55.412  33.918  55.122  0.00  0.00     0.027 C 
ENDBRANCH  20  21
ENDBRANCH  10  20
TORSDOF 3
ENDMDL
MODEL 3
REMARK VINA RESULT:      -7.8      1.039      4.682
REMARK  3 active torsions:
REMARK  status: ('A' for Active; 'I' for Inactive)
REMARK    1  A    between atoms: C_11  and  C_3 
REMARK    2  A    between atoms: O_13  and  C_10 
REMARK    3  A    between atoms: C_21  and  O_13 
ROOT
ATOM      1  C   UNL d   1      53.553  31.506  54.203  0.00  0.00     0.203 A 
ATOM      2  C   UNL d   1      53.456  32.286  53.956  0.00  0.00     0.101 A 
ATOM      3  C   UNL d   1      53.222  30.894  53.764  0.00  0.00     0.064 A 
ATOM      4  C   UNL d   1      53.028  32.452  53.270  0.00  0.00     0.108 A 
ATOM      5  C   UNL d   1      53.787  32.899  54.395  0.00  0.00     0.203 A 
ATOM      6  C   UNL d   1      52.794  31.060  53.078  0.00  0.00     0.126 A 
ATOM      7  O   UNL d   1      52.697  31.839  52.831  0.00  0.00    -0.305 OA
ATOM      8  C   UNL d   1      52.931  33.231  53.022  0.00  0.00     0.050 A 
ATOM      9  C   UNL d   1      53.691  33.683  54.148  0.00  0.00     0.067 A 
ATOM     10  C   UNL d   1      53.263  33.849  53.462  0.00  0.00     0.105 A 
ATOM     11  O   UNL d   1      53.980  31.340  54.888  0.00  0.00    -0.286 OA
ATOM     12  O   UNL d   1      54.214  32.733  55.080  0.00  0.00    -0.286 OA
ENDROOT
BRANCH   3  13
ATOM     13  C   UNL d   1      53.319  30.114  54.012  0.00  0.00     0.005 A 
ATOM     14  C   UNL d   1      52.872  29.817  54.651  0.00  0.00     0.003 A 
ATOM     15  C   UNL d   1      52.970  29.038  54.898  0.00  0.00     0.042 A 
ATOM     16  C   UNL d   1      53.512  28.544  54.512  0.00  0.00     0.196 A 
ATOM     17  C   UNL d   1      53.957  28.841  53.873  0.00  0.00     0.042 A 
ATOM     18  O   UNL d   1      53.608  27.765  54.760  0.00  0.00    -0.287 OA
ATOM     19  C   UNL d   1      53.861  29.620  53.626  0.00  0.00     0.003 A 
ENDBRANCH   3  13
BRANCH  10  20
ATOM     20  O   UNL d   1      53.168  34.637  53.215  0.00  0.00    -0.307 OA
BRANCH  20  21
ATOM     21  C   UNL d   1      52.623  35.129  53.586  0.00  0.00     0.100 C 
ATOM     22  C   UNL d   1      52.874  35.670  54.158  0.00  0.00     0.027 C 
ATOM     23  C   UNL d   1      51.823  35.086  53.388  0.00  0.00     0.027 C 
ENDBRANCH  20  21
ENDBRANCH  10  20
TORSDOF 3
ENDMDL
MODEL 4
REMARK VINA RESULT:      -7.6      4.930      6.297
REMARK  3 active torsions:
REMARK  status: ('A' for Active; 'I' for Inactive)
REMARK    1  A    between atoms: C_11  and  C_3 
REMARK    2  A    between atoms: O_13  and  C_10 
REMARK    3  A    between atoms: C_21  and  O_13 
ROOT
ATOM      1  C   UNL d   1      49.443  35.051  52.803  0.00  0.00     0.203 A 
ATOM      2  C   UNL d   1      48.733  35.361  52.523  0.00  0.00     0.101 A 
ATOM      3  C   UNL d   1      49.861  34.509  52.345  0.00  0.00     0.064 A 
ATOM      4  C   UNL d   1      48.442  35.130  51.786  0.00  0.00     0.108 A 
ATOM      5  C   UNL d   1      48.314  35.903  52.981  0.00  0.00     0.203 A 
ATOM      6  C   UNL d   1      49.570  34.278  51.609  0.00  0.00     0.126 A 
ATOM      7  O   UNL d   1      48.861  34.588  51.329  0.00  0.00    -0.305 OA
ATOM      8  C   UNL d   1      47.732  35.440  51.507  0.00  0.00     0.050 A 
ATOM      9  C   UNL d   1      47.601  36.216  52.701  0.00  0.00     0.067 A 
ATOM     10  C   UNL d   1      47.310  35.984  51.965  0.00  0.00     0.105 A 
ATOM     11  O   UNL d   1      49.733  35.282  53.538  0.00  0.00    -0.286 OA
ATOM     12  O   UNL d   1      48.605  36.134  53.716  0.00  0.00    -0.286 OA
ENDROOT
BRANCH   3  13
ATOM     13  C   UNL d   1      50.571  34.199  52.625  0.00  0.00     0.005 A 
ATOM     14  C   UNL d   1      50.569  33.535  53.130  0.00  0.00     0.003 A 
ATOM     15  C   UNL d   1      51.279  33.225  53.409  0.00  0.00     0.042 A 
ATOM     16  C   UNL d   1      51.999  33.572  53.190  0.00  0.00     0.196 A 
ATOM     17  C   UNL d   1      52.000  34.235  52.685  0.00  0.00     0.042 A 
ATOM     18  O   UNL d   1      52.709  33.261  53.470  0.00  0.00    -0.287 OA
ATOM     19  C   UNL d   1      51.291  34.546  52.405  0.00  0.00     0.003 A 
ENDBRANCH   3  13
BRANCH  10  20
ATOM     20  O   UNL d   1      46.594  36.300  51.686  0.00  0.00    -0.307 OA
BRANCH  20  21
ATOM     21  C   UNL d   1      45.916  35.835  51.650  0.00  0.00     0.100 C 
ATOM     22  C   UNL d   1      45.493  35.662  52.338  0.00  0.00     0.027 C 
ATOM     23  C   UNL d   1      45.656  35.538  50.925  0.00  0.00     0.027 C 
ENDBRANCH  20  21
ENDBRANCH  10  20
TORSDOF 3
ENDMDL
MODEL 5
REMARK VINA RESULT:      -7.2      2.398      3.820
REMARK  3 active torsions:
REMARK  status: ('A' for Active; 'I' for Inactive)
REMARK    1  A    between atoms: C_11  and  C_3 
REMARK    2  A    between atoms: O_13  and  C_10 
REMARK    3  A    between atoms: C_21  and  O_13 
ROOT
ATOM      1  C   UNL d   1      52.468  34.100  53.760  0.00  0.00     0.203 A 
ATOM      2  C   UNL d   1      51.747  34.043  53.366  0.00  0.00     0.101 A 
ATOM      3  C   UNL d   1      52.957  33.440  53.814  0.00  0.00     0.064 A 
ATOM      4  C   UNL d   1      51.516  33.328  53.026  0.00  0.00     0.108 A 
ATOM      5  C   UNL d   1      51.258  34.703  53.311  0.00  0.00     0.203 A 
ATOM      6  C   UNL d   1      52.726  32.724  53.475  0.00  0.00     0.126 A 
ATOM      7  O   UNL d   1      52.006  32.668  53.081  0.00  0.00    -0.305 OA
ATOM      8  C   UNL d   1      50.795  33.271  52.632  0.00  0.00     0.050 A 
ATOM      9  C   UNL d   1      50.533  34.648  52.916  0.00  0.00     0.067 A 
ATOM     10  C   UNL d   1      50.302  33.933  52.576  0.00  0.00     0.105 A 
ATOM     11  O   UNL d   1      52.699  34.814  54.099  0.00  0.00    -0.286 OA
ATOM     12  O   UNL d   1      51.488  35.418  53.650  0.00  0.00    -0.286 OA
ENDROOT
BRANCH   3  13
ATOM     13  C   UNL d   1      53.679  33.496  54.208  0.00  0.00     0.005 A 
ATOM     14  C   UNL d   1      53.705  33.471  55.042  0.00  0.00     0.003 A 
ATOM     15  C   UNL d   1      54.426  33.528  55.435  0.00  0.00     0.042 A 
ATOM     16  C   UNL d   1      55.130  33.609  55.005  0.00  0.00     0.196 A 
ATOM     17  C   UNL d   1      55.102  33.634  54.172  0.00  0.00     0.042 A 
ATOM     18  O   UNL d   1      55.850  33.666  55.400  0.00  0.00    -0.287 OA
ATOM     19  C   UNL d   1      54.382  33.578  53.778  0.00  0.00     0.003 A 
ENDBRANCH   3  13
BRANCH  10  20
ATOM     20  O   UNL d   1      49.574  33.880  52.180  0.00  0.00    -0.307 OA
BRANCH  20  21
ATOM     21  C   UNL d   1      49.383  34.409  51.579  0.00  0.00     0.100 C 
ATOM     22  C   UNL d   1      49.749  34.349  50.841  0.00  0.00     0.027 C 
ATOM     23  C   UNL d   1      48.825  35.002  51.712  0.00  0.00     0.027 C 
ENDBRANCH  20  21
ENDBRANCH  10  20
TORSDOF 3
ENDMDL
