MODEL 1
REMARK VINA RESULT:      86.3      0.000      0.000
REMARK  7 active torsions:
REMARK  status: ('A' for Active; 'I' for Inactive)
REMARK    1  A    between atoms: C_6  and  N_1 
REMARK    2  A    between atoms: C_9  and  C_5 
REMARK    3  A    between atoms: C_7  and  C_6 
REMARK       I    between atoms: N_10  and  C_7 
REMARK    4  A    between atoms: C_12  and  C_9 
REMARK    5  A    between atoms: C_15  and  N_10 
REMARK    6  A    between atoms: C_14  and  C_12 
REMARK    7  A    between atoms: C_17  and  C_14 
ROOT
ATOM      1  N   UNL d   1     -56.302 -98.887 -42.800  0.00  0.00    -0.230 N 
ATOM      2  C   UNL d   1     -55.837 -98.841 -42.131  0.00  0.00     0.299 A 
ATOM      3  C   UNL d   1     -55.801 -98.964 -43.454  0.00  0.00     0.274 A 
ATOM      4  S   UNL d   1     -55.055 -98.890 -42.367  0.00  0.00    -0.022 SA
ATOM      5  C   UNL d   1     -55.032 -98.966 -43.181  0.00  0.00     0.090 A 
ATOM      6  O   UNL d   1     -56.116 -98.760 -41.355  0.00  0.00    -0.259 OA
ATOM      7  O   UNL d   1     -56.034 -99.028 -44.234  0.00  0.00    -0.266 OA
ENDROOT
BRANCH   1   8
ATOM      8  C   UNL d   1     -57.126 -98.860 -42.816  0.00  0.00     0.149 C 
BRANCH   8   9
ATOM      9  C   UNL d   1     -57.524 -98.868 -43.548  0.00  0.00     0.297 C 
ATOM     10  N   UNL d   1     -58.349 -98.867 -43.569  0.00  0.00    -0.207 NA
ATOM     11  O   UNL d   1     -57.084 -98.876 -44.253  0.00  0.00    -0.264 OA
BRANCH  10  12
ATOM     12  C   UNL d   1     -58.742 -98.875 -44.296  0.00  0.00     0.085 A 
ATOM     13  C   UNL d   1     -59.560 -99.001 -44.327  0.00  0.00     0.022 A 
ATOM     14  C   UNL d   1     -59.952 -99.009 -45.052  0.00  0.00     0.044 A 
ATOM     15  C   UNL d   1     -59.524 -98.889 -45.755  0.00  0.00     0.196 A 
ATOM     16  C   UNL d   1     -58.702 -98.762 -45.724  0.00  0.00     0.044 A 
ATOM     17  O   UNL d   1     -59.917 -98.896 -46.484  0.00  0.00    -0.287 OA
ATOM     18  C   UNL d   1     -58.312 -98.756 -44.990  0.00  0.00     0.022 A 
ENDBRANCH  10  12
ENDBRANCH   8   9
ENDBRANCH   1   8
BRANCH   5  19
ATOM     19  C   UNL d   1     -54.720 -99.046 -43.937  0.00  0.00     0.011 C 
BRANCH  19  20
ATOM     20  C   UNL d   1     -54.830 -99.756 -44.355  0.00  0.00     0.001 C 
BRANCH  20  21
ATOM     21  C   UNL d   1     -55.170-100.403 -43.977  0.00  0.00     0.000 C 
BRANCH  21  22
ATOM     22  C   UNL d   1     -55.251-101.120 -44.376  0.00  0.00     0.000 A 
ATOM     23  C   UNL d   1     -54.713-101.312 -44.977  0.00  0.00     0.000 A 
ATOM     24  C   UNL d   1     -54.790-102.033 -45.382  0.00  0.00     0.000 A 
ATOM     25  C   UNL d   1     -55.399-102.549 -45.185  0.00  0.00     0.000 A 
ATOM     26  C   UNL d   1     -55.933-102.348 -44.582  0.00  0.00     0.000 A 
ATOM     27  C   UNL d   1     -55.852-101.636 -44.186  0.00  0.00     0.000 A 
ENDBRANCH  21  22
ENDBRANCH  20  21
ENDBRANCH  19  20
ENDBRANCH   5  19
TORSDOF 7
ENDMDL
