MODEL 1
REMARK VINA RESULT:      -3.0      0.000      0.000
REMARK  4 active torsions:
REMARK  status: ('A' for Active; 'I' for Inactive)
REMARK    1  A    between atoms: N_6  and  S_1 
REMARK    2  A    between atoms: C_7  and  S_1 
REMARK    3  A    between atoms: C_13  and  N_6 
REMARK    4  A    between atoms: O_18  and  C_15 
ROOT
ATOM      1  S   UNL d   1      32.645  17.400 -23.469  0.00  0.00     0.285 S 
ATOM      2  O   UNL d   1      33.216  17.224 -22.911  0.00  0.00    -0.198 OA
ATOM      3  O   UNL d   1      32.455  16.599 -23.525  0.00  0.00    -0.198 OA
ENDROOT
BRANCH   1   4
ATOM      4  N   UNL d   1      32.068  17.573 -24.032  0.00  0.00    -0.158 NA
BRANCH   4   5
ATOM      5  C   UNL d   1      31.471  17.020 -24.199  0.00  0.00     0.095 A 
ATOM      6  C   UNL d   1      30.748  17.067 -23.804  0.00  0.00     0.040 A 
ATOM      7  C   UNL d   1      30.163  16.517 -23.975  0.00  0.00     0.089 A 
ATOM      8  N   UNL d   1      29.394  16.426 -23.673  0.00  0.00    -0.238 NA
ATOM      9  C   UNL d   1      30.284  15.924 -24.527  0.00  0.00     0.049 A 
ATOM     10  C   UNL d   1      29.051  15.779 -24.042  0.00  0.00     0.111 A 
ATOM     11  C   UNL d   1      28.282  15.484 -23.910  0.00  0.00     0.028 C 
ATOM     12  S   UNL d   1      29.602  15.466 -24.573  0.00  0.00    -0.066 SA
ATOM     13  C   UNL d   1      31.016  15.880 -24.923  0.00  0.00     0.010 A 
ATOM     14  C   UNL d   1      31.606  16.433 -24.753  0.00  0.00     0.021 A 
ENDBRANCH   4   5
ENDBRANCH   1   4
BRANCH   1  15
ATOM     15  C   UNL d   1      32.830  18.202 -23.418  0.00  0.00     0.107 A 
ATOM     16  C   UNL d   1      32.810  18.591 -22.688  0.00  0.00     0.037 A 
ATOM     17  C   UNL d   1      32.996  19.394 -22.645  0.00  0.00     0.095 A 
ATOM     18  C   UNL d   1      33.203  19.807 -23.331  0.00  0.00     0.024 A 
ATOM     19  C   UNL d   1      33.222  19.417 -24.057  0.00  0.00     0.003 A 
ATOM     20  C   UNL d   1      33.036  18.614 -24.100  0.00  0.00     0.013 A 
BRANCH  17  21
ATOM     21  O   UNL d   1      32.976  19.784 -21.921  0.00  0.00    -0.328 OA
ATOM     22  C   UNL d   1      32.602  20.516 -21.855  0.00  0.00     0.181 C 
ENDBRANCH  17  21
ENDBRANCH   1  15
TORSDOF 4
ENDMDL
MODEL 2
REMARK VINA RESULT:      -2.4      1.845      4.596
REMARK  4 active torsions:
REMARK  status: ('A' for Active; 'I' for Inactive)
REMARK    1  A    between atoms: N_6  and  S_1 
REMARK    2  A    between atoms: C_7  and  S_1 
REMARK    3  A    between atoms: C_13  and  N_6 
REMARK    4  A    between atoms: O_18  and  C_15 
ROOT
ATOM      1  S   UNL d   1      32.861  18.542 -24.052  0.00  0.00     0.285 S 
ATOM      2  O   UNL d   1      32.672  18.459 -24.843  0.00  0.00    -0.198 OA
ATOM      3  O   UNL d   1      33.087  19.323 -24.189  0.00  0.00    -0.198 OA
ENDROOT
BRANCH   1   4
ATOM      4  N   UNL d   1      33.052  18.629 -23.255  0.00  0.00    -0.158 NA
BRANCH   4   5
ATOM      5  C   UNL d   1      33.073  19.386 -22.913  0.00  0.00     0.095 A 
ATOM      6  C   UNL d   1      32.945  19.473 -22.103  0.00  0.00     0.040 A 
ATOM      7  C   UNL d   1      32.967  20.224 -21.772  0.00  0.00     0.089 A 
ATOM      8  N   UNL d   1      32.862  20.479 -20.989  0.00  0.00    -0.238 NA
ATOM      9  C   UNL d   1      33.113  20.886 -22.232  0.00  0.00     0.049 A 
ATOM     10  C   UNL d   1      32.944  21.295 -20.975  0.00  0.00     0.111 A 
ATOM     11  C   UNL d   1      32.882  21.787 -20.303  0.00  0.00     0.028 C 
ATOM     12  S   UNL d   1      33.099  21.550 -21.745  0.00  0.00    -0.066 SA
ATOM     13  C   UNL d   1      33.241  20.794 -23.050  0.00  0.00     0.010 A 
ATOM     14  C   UNL d   1      33.219  20.039 -23.384  0.00  0.00     0.021 A 
ENDBRANCH   4   5
ENDBRANCH   1   4
BRANCH   1  15
ATOM     15  C   UNL d   1      32.636  17.761 -23.909  0.00  0.00     0.107 A 
ATOM     16  C   UNL d   1      31.836  17.552 -23.892  0.00  0.00     0.037 A 
ATOM     17  C   UNL d   1      31.619  16.769 -23.747  0.00  0.00     0.095 A 
ATOM     18  C   UNL d   1      32.201  16.196 -23.620  0.00  0.00     0.024 A 
ATOM     19  C   UNL d   1      32.997  16.407 -23.637  0.00  0.00     0.003 A 
ATOM     20  C   UNL d   1      33.215  17.190 -23.781  0.00  0.00     0.013 A 
BRANCH  17  21
ATOM     21  O   UNL d   1      30.823  16.558 -23.730  0.00  0.00    -0.328 OA
ATOM     22  C   UNL d   1      30.603  15.791 -23.519  0.00  0.00     0.181 C 
ENDBRANCH  17  21
ENDBRANCH   1  15
TORSDOF 4
ENDMDL
MODEL 3
REMARK VINA RESULT:      -1.0      1.346      1.893
REMARK  4 active torsions:
REMARK  status: ('A' for Active; 'I' for Inactive)
REMARK    1  A    between atoms: N_6  and  S_1 
REMARK    2  A    between atoms: C_7  and  S_1 
REMARK    3  A    between atoms: C_13  and  N_6 
REMARK    4  A    between atoms: O_18  and  C_15 
ROOT
ATOM      1  S   UNL d   1      30.930  17.417 -24.496  0.00  0.00     0.285 S 
ATOM      2  O   UNL d   1      31.170  17.916 -25.096  0.00  0.00    -0.198 OA
ATOM      3  O   UNL d   1      30.186  17.351 -24.847  0.00  0.00    -0.198 OA
ENDROOT
BRANCH   1   4
ATOM      4  N   UNL d   1      30.685  16.912 -23.891  0.00  0.00    -0.158 NA
BRANCH   4   5
ATOM      5  C   UNL d   1      29.955  16.519 -23.948  0.00  0.00     0.095 A 
ATOM      6  C   UNL d   1      29.333  16.737 -23.453  0.00  0.00     0.040 A 
ATOM      7  C   UNL d   1      28.615  16.344 -23.515  0.00  0.00     0.089 A 
ATOM      8  N   UNL d   1      27.902  16.440 -23.099  0.00  0.00    -0.238 NA
ATOM      9  C   UNL d   1      28.507  15.741 -24.059  0.00  0.00     0.049 A 
ATOM     10  C   UNL d   1      27.363  15.895 -23.392  0.00  0.00     0.111 A 
ATOM     11  C   UNL d   1      26.575  15.792 -23.136  0.00  0.00     0.028 C 
ATOM     12  S   UNL d   1      27.736  15.460 -23.987  0.00  0.00    -0.066 SA
ATOM     13  C   UNL d   1      29.137  15.524 -24.558  0.00  0.00     0.010 A 
ATOM     14  C   UNL d   1      29.861  15.919 -24.496  0.00  0.00     0.021 A 
ENDBRANCH   4   5
ENDBRANCH   1   4
BRANCH   1  15
ATOM     15  C   UNL d   1      31.672  17.477 -24.139  0.00  0.00     0.107 A 
ATOM     16  C   UNL d   1      31.768  17.917 -23.445  0.00  0.00     0.037 A 
ATOM     17  C   UNL d   1      32.512  17.973 -23.094  0.00  0.00     0.095 A 
ATOM     18  C   UNL d   1      33.160  17.590 -23.436  0.00  0.00     0.024 A 
ATOM     19  C   UNL d   1      33.062  17.152 -24.128  0.00  0.00     0.003 A 
ATOM     20  C   UNL d   1      32.317  17.096 -24.479  0.00  0.00     0.013 A 
BRANCH  17  21
ATOM     21  O   UNL d   1      32.611  18.410 -22.403  0.00  0.00    -0.328 OA
ATOM     22  C   UNL d   1      32.686  19.231 -22.440  0.00  0.00     0.181 C 
ENDBRANCH  17  21
ENDBRANCH   1  15
TORSDOF 4
ENDMDL
MODEL 4
REMARK VINA RESULT:      -0.7      1.523      2.908
REMARK  4 active torsions:
REMARK  status: ('A' for Active; 'I' for Inactive)
REMARK    1  A    between atoms: N_6  and  S_1 
REMARK    2  A    between atoms: C_7  and  S_1 
REMARK    3  A    between atoms: C_13  and  N_6 
REMARK    4  A    between atoms: O_18  and  C_15 
ROOT
ATOM      1  S   UNL d   1      33.136  19.900 -22.025  0.00  0.00     0.285 S 
ATOM      2  O   UNL d   1      33.226  19.836 -21.215  0.00  0.00    -0.198 OA
ATOM      3  O   UNL d   1      33.239  19.085 -22.101  0.00  0.00    -0.198 OA
ENDROOT
BRANCH   1   4
ATOM      4  N   UNL d   1      33.045  19.961 -22.843  0.00  0.00    -0.158 NA
BRANCH   4   5
ATOM      5  C   UNL d   1      32.849  19.289 -23.290  0.00  0.00     0.095 A 
ATOM      6  C   UNL d   1      32.262  18.775 -23.021  0.00  0.00     0.040 A 
ATOM      7  C   UNL d   1      32.074  18.113 -23.469  0.00  0.00     0.089 A 
ATOM      8  N   UNL d   1      31.519  17.508 -23.342  0.00  0.00    -0.238 NA
ATOM      9  C   UNL d   1      32.458  17.955 -24.175  0.00  0.00     0.049 A 
ATOM     10  C   UNL d   1      31.568  16.984 -23.972  0.00  0.00     0.111 A 
ATOM     11  C   UNL d   1      31.112  16.293 -24.076  0.00  0.00     0.028 C 
ATOM     12  S   UNL d   1      32.150  17.259 -24.490  0.00  0.00    -0.066 SA
ATOM     13  C   UNL d   1      33.050  18.476 -24.443  0.00  0.00     0.010 A 
ATOM     14  C   UNL d   1      33.241  19.143 -23.993  0.00  0.00     0.021 A 
ENDBRANCH   4   5
ENDBRANCH   1   4
BRANCH   1  15
ATOM     15  C   UNL d   1      33.031  20.716 -21.957  0.00  0.00     0.107 A 
ATOM     16  C   UNL d   1      32.718  21.042 -21.264  0.00  0.00     0.037 A 
ATOM     17  C   UNL d   1      32.616  21.858 -21.204  0.00  0.00     0.095 A 
ATOM     18  C   UNL d   1      32.827  22.349 -21.836  0.00  0.00     0.024 A 
ATOM     19  C   UNL d   1      33.139  22.021 -22.524  0.00  0.00     0.003 A 
ATOM     20  C   UNL d   1      33.241  21.205 -22.585  0.00  0.00     0.013 A 
BRANCH  17  21
ATOM     21  O   UNL d   1      32.304  22.186 -20.516  0.00  0.00    -0.328 OA
ATOM     22  C   UNL d   1      31.988  22.947 -20.526  0.00  0.00     0.181 C 
ENDBRANCH  17  21
ENDBRANCH   1  15
TORSDOF 4
ENDMDL
MODEL 5
REMARK VINA RESULT:      -0.7      2.287      5.073
REMARK  4 active torsions:
REMARK  status: ('A' for Active; 'I' for Inactive)
REMARK    1  A    between atoms: N_6  and  S_1 
REMARK    2  A    between atoms: C_7  and  S_1 
REMARK    3  A    between atoms: C_13  and  N_6 
REMARK    4  A    between atoms: O_18  and  C_15 
ROOT
ATOM      1  S   UNL d   1      33.023  19.443 -22.405  0.00  0.00     0.285 S 
ATOM      2  O   UNL d   1      33.196  18.721 -22.065  0.00  0.00    -0.198 OA
ATOM      3  O   UNL d   1      33.233  19.823 -21.704  0.00  0.00    -0.198 OA
ENDROOT
BRANCH   1   4
ATOM      4  N   UNL d   1      32.850  20.175 -22.745  0.00  0.00    -0.158 NA
BRANCH   4   5
ATOM      5  C   UNL d   1      32.794  20.852 -22.268  0.00  0.00     0.095 A 
ATOM      6  C   UNL d   1      32.290  20.852 -21.615  0.00  0.00     0.040 A 
ATOM      7  C   UNL d   1      32.241  21.526 -21.148  0.00  0.00     0.089 A 
ATOM      8  N   UNL d   1      31.790  21.687 -20.469  0.00  0.00    -0.238 NA
ATOM      9  C   UNL d   1      32.682  22.194 -21.319  0.00  0.00     0.049 A 
ATOM     10  C   UNL d   1      31.959  22.453 -20.229  0.00  0.00     0.111 A 
ATOM     11  C   UNL d   1      31.633  22.849 -19.570  0.00  0.00     0.028 C 
ATOM     12  S   UNL d   1      32.512  22.770 -20.755  0.00  0.00    -0.066 SA
ATOM     13  C   UNL d   1      33.190  22.190 -21.979  0.00  0.00     0.010 A 
ATOM     14  C   UNL d   1      33.241  21.513 -22.450  0.00  0.00     0.021 A 
ENDBRANCH   4   5
ENDBRANCH   1   4
BRANCH   1  15
ATOM     15  C   UNL d   1      32.811  19.070 -23.110  0.00  0.00     0.107 A 
ATOM     16  C   UNL d   1      32.288  18.430 -23.104  0.00  0.00     0.037 A 
ATOM     17  C   UNL d   1      32.081  18.062 -23.813  0.00  0.00     0.095 A 
ATOM     18  C   UNL d   1      32.397  18.334 -24.527  0.00  0.00     0.024 A 
ATOM     19  C   UNL d   1      32.918  18.972 -24.530  0.00  0.00     0.003 A 
ATOM     20  C   UNL d   1      33.125  19.340 -23.822  0.00  0.00     0.013 A 
BRANCH  17  21
ATOM     21  O   UNL d   1      31.560  17.424 -23.810  0.00  0.00    -0.328 OA
ATOM     22  C   UNL d   1      31.851  16.652 -23.807  0.00  0.00     0.181 C 
ENDBRANCH  17  21
ENDBRANCH   1  15
TORSDOF 4
ENDMDL
MODEL 6
REMARK VINA RESULT:      -0.5      4.815      7.152
REMARK  4 active torsions:
REMARK  status: ('A' for Active; 'I' for Inactive)
REMARK    1  A    between atoms: N_6  and  S_1 
REMARK    2  A    between atoms: C_7  and  S_1 
REMARK    3  A    between atoms: C_13  and  N_6 
REMARK    4  A    between atoms: O_18  and  C_15 
ROOT
ATOM      1  S   UNL d   1      32.521  21.435 -20.518  0.00  0.00     0.285 S 
ATOM      2  O   UNL d   1      31.913  20.911 -20.671  0.00  0.00    -0.198 OA
ATOM      3  O   UNL d   1      32.295  21.466 -19.725  0.00  0.00    -0.198 OA
ENDROOT
BRANCH   1   4
ATOM      4  N   UNL d   1      33.133  21.965 -20.360  0.00  0.00    -0.158 NA
BRANCH   4   5
ATOM      5  C   UNL d   1      33.116  22.426 -19.670  0.00  0.00     0.095 A 
ATOM      6  C   UNL d   1      33.186  22.063 -18.933  0.00  0.00     0.040 A 
ATOM      7  C   UNL d   1      33.168  22.526 -18.255  0.00  0.00     0.089 A 
ATOM      8  N   UNL d   1      33.225  22.320 -17.452  0.00  0.00    -0.238 NA
ATOM      9  C   UNL d   1      33.082  23.339 -18.298  0.00  0.00     0.049 A 
ATOM     10  C   UNL d   1      33.173  23.009 -17.010  0.00  0.00     0.111 A 
ATOM     11  C   UNL d   1      33.204  23.067 -16.178  0.00  0.00     0.028 C 
ATOM     12  S   UNL d   1      33.084  23.643 -17.533  0.00  0.00    -0.066 SA
ATOM     13  C   UNL d   1      33.011  23.702 -19.044  0.00  0.00     0.010 A 
ATOM     14  C   UNL d   1      33.029  23.238 -19.728  0.00  0.00     0.021 A 
ENDBRANCH   4   5
ENDBRANCH   1   4
BRANCH   1  15
ATOM     15  C   UNL d   1      32.753  21.409 -21.309  0.00  0.00     0.107 A 
ATOM     16  C   UNL d   1      32.806  22.105 -21.753  0.00  0.00     0.037 A 
ATOM     17  C   UNL d   1      33.039  22.071 -22.544  0.00  0.00     0.095 A 
ATOM     18  C   UNL d   1      33.218  21.341 -22.891  0.00  0.00     0.024 A 
ATOM     19  C   UNL d   1      33.164  20.649 -22.446  0.00  0.00     0.003 A 
ATOM     20  C   UNL d   1      32.932  20.683 -21.655  0.00  0.00     0.013 A 
BRANCH  17  21
ATOM     21  O   UNL d   1      33.093  22.761 -22.989  0.00  0.00    -0.328 OA
ATOM     22  C   UNL d   1      33.138  22.721 -23.812  0.00  0.00     0.181 C 
ENDBRANCH  17  21
ENDBRANCH   1  15
TORSDOF 4
ENDMDL
