MODEL 1
REMARK VINA RESULT:      37.7      0.000      0.000
REMARK  7 active torsions:
REMARK  status: ('A' for Active; 'I' for Inactive)
REMARK    1  A    between atoms: C_6  and  C_13 
REMARK       I    between atoms: N_12  and  C_6 
REMARK    2  A    between atoms: O_8  and  C_7 
REMARK    3  A    between atoms: C_13  and  O_8 
REMARK    4  A    between atoms: O_14  and  C_10 
REMARK    5  A    between atoms: C_11  and  C_20 
REMARK    6  A    between atoms: C_15  and  N_12 
REMARK    7  A    between atoms: C_20  and  C_15 
ROOT
ATOM      1  C   UNL d   1     -56.055 -99.416 -44.185  0.00  0.00     0.304 C 
ATOM      2  O   UNL d   1     -56.257-100.123 -44.565  0.00  0.00    -0.263 OA
ATOM      3  N   UNL d   1     -55.297 -99.289 -43.898  0.00  0.00    -0.205 NA
ENDROOT
BRANCH   1   4
ATOM      4  C   UNL d   1     -56.630 -98.828 -44.093  0.00  0.00     0.185 C 
BRANCH   4   5
ATOM      5  O   UNL d   1     -57.091 -98.809 -43.412  0.00  0.00    -0.298 OA
BRANCH   5   6
ATOM      6  C   UNL d   1     -57.906 -98.802 -43.473  0.00  0.00     0.122 A 
ATOM      7  C   UNL d   1     -58.266 -98.793 -44.216  0.00  0.00     0.117 A 
ATOM      8  O   UNL d   1     -57.945 -98.789 -44.983  0.00  0.00    -0.330 OA
ATOM      9  C   UNL d   1     -59.090 -98.786 -44.277  0.00  0.00     0.022 A 
ATOM     10  C   UNL d   1     -58.579 -98.780 -45.520  0.00  0.00     0.117 A 
ATOM     11  C   UNL d   1     -59.252 -98.771 -45.972  0.00  0.00     0.035 C 
ATOM     12  C   UNL d   1     -57.952 -98.780 -46.051  0.00  0.00     0.035 C 
ATOM     13  C   UNL d   1     -59.281 -98.778 -45.083  0.00  0.00     0.003 A 
ATOM     14  C   UNL d   1     -59.551 -98.788 -43.596  0.00  0.00     0.002 A 
ATOM     15  C   UNL d   1     -59.195 -98.797 -42.865  0.00  0.00     0.002 A 
ATOM     16  C   UNL d   1     -58.372 -98.804 -42.804  0.00  0.00     0.027 A 
ENDBRANCH   5   6
ENDBRANCH   4   5
ENDBRANCH   1   4
BRANCH   3  17
ATOM     17  C   UNL d   1     -54.728 -99.870 -43.989  0.00  0.00     0.102 C 
BRANCH  17  18
ATOM     18  C   UNL d   1     -54.935-100.622 -44.271  0.00  0.00     0.023 C 
BRANCH  18  19
ATOM     19  C   UNL d   1     -54.866-101.281 -43.790  0.00  0.00     0.024 A 
ATOM     20  C   UNL d   1     -54.780-102.030 -44.125  0.00  0.00     0.094 A 
ATOM     21  C   UNL d   1     -54.711-102.688 -43.628  0.00  0.00     0.024 A 
ATOM     22  C   UNL d   1     -54.728-102.604 -42.808  0.00  0.00     0.002 A 
ATOM     23  C   UNL d   1     -54.814-101.863 -42.471  0.00  0.00     0.000 A 
ATOM     24  C   UNL d   1     -54.883-101.200 -42.951  0.00  0.00     0.002 A 
BRANCH  20  25
ATOM     25  O   UNL d   1     -54.763-102.115 -44.933  0.00  0.00    -0.328 OA
ATOM     26  C   UNL d   1     -55.359-102.529 -45.310  0.00  0.00     0.181 C 
ENDBRANCH  20  25
ENDBRANCH  18  19
ENDBRANCH  17  18
ENDBRANCH   3  17
TORSDOF 7
ENDMDL
