MODEL 1
REMARK VINA RESULT:      -3.6      0.000      0.000
REMARK  5 active torsions:
REMARK  status: ('A' for Active; 'I' for Inactive)
REMARK    1  A    between atoms: C_9  and  C_5 
REMARK    2  A    between atoms: N_14  and  C_6 
REMARK    3  A    between atoms: N_11  and  C_9 
REMARK    4  A    between atoms: C_15  and  N_11 
REMARK    5  A    between atoms: C_16  and  C_15 
ROOT
ATOM      1  N   UNL d   1     -41.446-122.767 -53.742  0.00  0.00    -0.258 N 
ATOM      2  N   UNL d   1     -41.601-121.467 -53.310  0.00  0.00    -0.209 NA
ATOM      3  C   UNL d   1     -41.596-122.007 -53.910  0.00  0.00     0.152 A 
ATOM      4  C   UNL d   1     -41.294-123.034 -52.983  0.00  0.00     0.270 A 
ATOM      5  C   UNL d   1     -41.299-122.469 -52.356  0.00  0.00     0.111 A 
ATOM      6  C   UNL d   1     -41.455-121.699 -52.556  0.00  0.00     0.170 A 
ATOM      7  C   UNL d   1     -41.748-121.765 -54.697  0.00  0.00     0.035 A 
ATOM      8  C   UNL d   1     -41.442-123.344 -54.383  0.00  0.00     0.084 A 
ATOM      9  O   UNL d   1     -41.138-123.815 -52.797  0.00  0.00    -0.266 OA
ATOM     10  C   UNL d   1     -41.587-123.099 -55.123  0.00  0.00     0.019 A 
ATOM     11  C   UNL d   1     -41.743-122.321 -55.314  0.00  0.00     0.005 A 
ATOM     12  C   UNL d   1     -41.904-120.974 -54.874  0.00  0.00     0.003 C 
ENDROOT
BRANCH   5  13
ATOM     13  C   UNL d   1     -41.148-122.704 -51.561  0.00  0.00     0.107 C 
BRANCH  13  14
ATOM     14  N   UNL d   1     -41.739-123.067 -51.102  0.00  0.00    -0.242 NA
BRANCH  14  15
ATOM     15  C   UNL d   1     -41.523-123.467 -50.410  0.00  0.00     0.099 C 
BRANCH  15  16
ATOM     16  C   UNL d   1     -42.008-123.447 -49.759  0.00  0.00     0.019 A 
ATOM     17  C   UNL d   1     -42.750-123.796 -49.778  0.00  0.00     0.002 A 
ATOM     18  C   UNL d   1     -43.245-123.783 -49.132  0.00  0.00     0.000 A 
ATOM     19  C   UNL d   1     -42.989-123.405 -48.438  0.00  0.00     0.000 A 
ATOM     20  C   UNL d   1     -42.231-123.048 -48.418  0.00  0.00     0.000 A 
ATOM     21  C   UNL d   1     -41.752-123.069 -49.065  0.00  0.00     0.002 A 
ENDBRANCH  15  16
ENDBRANCH  14  15
ENDBRANCH  13  14
ENDBRANCH   5  13
BRANCH   6  22
ATOM     22  N   UNL d   1     -41.460-121.136 -51.929  0.00  0.00    -0.223 NA
ATOM     23  C   UNL d   1     -41.134-120.385 -52.059  0.00  0.00     0.121 C 
ENDBRANCH   6  22
TORSDOF 5
ENDMDL
