MODEL 1
REMARK VINA RESULT:      -2.6      0.000      0.000
REMARK  6 active torsions:
REMARK  status: ('A' for Active; 'I' for Inactive)
REMARK    1  A    between atoms: N_3  and  C_1 
REMARK    2  A    between atoms: C_16  and  N_2 
REMARK       I    between atoms: C_7  and  N_3 
REMARK    3  A    between atoms: C_14  and  C_7 
REMARK    4  A    between atoms: C_10  and  S_11 
REMARK    5  A    between atoms: S_11  and  C_14 
REMARK    6  A    between atoms: O_18  and  C_15 
ROOT
ATOM      1  C   UNL d   1      32.701  21.928 -21.424  0.00  0.00     0.182 A 
ATOM      2  N   UNL d   1      32.838  22.742 -21.364  0.00  0.00    -0.285 N 
ATOM      3  S   UNL d   1      32.654  21.621 -20.654  0.00  0.00    -0.048 SA
ATOM      4  C   UNL d   1      32.763  22.250 -20.121  0.00  0.00     0.050 A 
ATOM      5  C   UNL d   1      32.876  22.941 -20.559  0.00  0.00     0.072 A 
ATOM      6  C   UNL d   1      32.771  22.270 -19.292  0.00  0.00     0.032 A 
ATOM      7  C   UNL d   1      32.998  23.653 -20.169  0.00  0.00     0.020 A 
ATOM      8  C   UNL d   1      32.895  22.991 -18.917  0.00  0.00     0.095 A 
ATOM      9  C   UNL d   1      33.008  23.682 -19.355  0.00  0.00     0.026 A 
ENDROOT
BRANCH   1  10
ATOM     10  N   UNL d   1      32.624  21.497 -22.125  0.00  0.00    -0.183 NA
ATOM     11  C   UNL d   1      32.897  20.736 -21.938  0.00  0.00     0.288 C 
ATOM     12  O   UNL d   1      33.166  20.569 -21.170  0.00  0.00    -0.265 OA
BRANCH  11  13
ATOM     13  C   UNL d   1      32.904  20.144 -22.506  0.00  0.00     0.101 C 
BRANCH  13  14
ATOM     14  S   UNL d   1      33.114  19.367 -22.303  0.00  0.00    -0.040 SA
BRANCH  14  15
ATOM     15  C   UNL d   1      33.090  18.764 -22.877  0.00  0.00     0.226 C 
ATOM     16  O   UNL d   1      33.235  17.985 -22.648  0.00  0.00    -0.279 OA
ATOM     17  C   UNL d   1      32.924  18.949 -23.655  0.00  0.00     0.053 C 
ENDBRANCH  14  15
ENDBRANCH  13  14
ENDBRANCH  11  13
ENDBRANCH   1  10
BRANCH   2  18
ATOM     18  C   UNL d   1      32.920  23.257 -21.996  0.00  0.00     0.082 C 
ATOM     19  C   UNL d   1      32.271  23.672 -22.289  0.00  0.00     0.021 C 
ENDBRANCH   2  18
BRANCH   8  20
ATOM     20  O   UNL d   1      32.906  23.025 -18.088  0.00  0.00    -0.328 OA
ATOM     21  C   UNL d   1      32.578  23.667 -17.700  0.00  0.00     0.181 C 
ENDBRANCH   8  20
TORSDOF 6
ENDMDL
MODEL 2
REMARK VINA RESULT:      -2.2      1.507      5.204
REMARK  6 active torsions:
REMARK  status: ('A' for Active; 'I' for Inactive)
REMARK    1  A    between atoms: N_3  and  C_1 
REMARK    2  A    between atoms: C_16  and  N_2 
REMARK       I    between atoms: C_7  and  N_3 
REMARK    3  A    between atoms: C_14  and  C_7 
REMARK    4  A    between atoms: C_10  and  S_11 
REMARK    5  A    between atoms: S_11  and  C_14 
REMARK    6  A    between atoms: O_18  and  C_15 
ROOT
ATOM      1  C   UNL d   1      33.176  19.839 -23.150  0.00  0.00     0.182 A 
ATOM      2  N   UNL d   1      33.178  19.572 -23.933  0.00  0.00    -0.285 N 
ATOM      3  S   UNL d   1      33.102  19.177 -22.654  0.00  0.00    -0.048 SA
ATOM      4  C   UNL d   1      33.058  18.501 -23.137  0.00  0.00     0.050 A 
ATOM      5  C   UNL d   1      33.105  18.745 -23.925  0.00  0.00     0.072 A 
ATOM      6  C   UNL d   1      32.981  17.698 -22.948  0.00  0.00     0.032 A 
ATOM      7  C   UNL d   1      33.075  18.185 -24.525  0.00  0.00     0.020 A 
ATOM      8  C   UNL d   1      32.952  17.150 -23.561  0.00  0.00     0.095 A 
ATOM      9  C   UNL d   1      32.999  17.394 -24.349  0.00  0.00     0.026 A 
ENDROOT
BRANCH   1  10
ATOM     10  N   UNL d   1      33.238  20.626 -22.903  0.00  0.00    -0.183 NA
ATOM     11  C   UNL d   1      33.091  20.605 -22.086  0.00  0.00     0.288 C 
ATOM     12  O   UNL d   1      32.929  19.882 -21.713  0.00  0.00    -0.265 OA
BRANCH  11  13
ATOM     13  C   UNL d   1      33.105  21.295 -21.643  0.00  0.00     0.101 C 
BRANCH  13  14
ATOM     14  S   UNL d   1      32.501  21.458 -21.097  0.00  0.00    -0.040 SA
BRANCH  14  15
ATOM     15  C   UNL d   1      32.494  22.181 -20.685  0.00  0.00     0.226 C 
ATOM     16  O   UNL d   1      32.876  22.232 -19.955  0.00  0.00    -0.279 OA
ATOM     17  C   UNL d   1      32.112  22.829 -21.005  0.00  0.00     0.053 C 
ENDBRANCH  14  15
ENDBRANCH  13  14
ENDBRANCH  11  13
ENDBRANCH   1  10
BRANCH   2  18
ATOM     18  C   UNL d   1      33.241  20.047 -24.596  0.00  0.00     0.082 C 
ATOM     19  C   UNL d   1      32.567  20.344 -24.968  0.00  0.00     0.021 C 
ENDBRANCH   2  18
BRANCH   8  20
ATOM     20  O   UNL d   1      32.876  16.342 -23.385  0.00  0.00    -0.328 OA
ATOM     21  C   UNL d   1      32.192  15.942 -23.590  0.00  0.00     0.181 C 
ENDBRANCH   8  20
TORSDOF 6
ENDMDL
MODEL 3
REMARK VINA RESULT:      -1.8      1.254      1.733
REMARK  6 active torsions:
REMARK  status: ('A' for Active; 'I' for Inactive)
REMARK    1  A    between atoms: N_3  and  C_1 
REMARK    2  A    between atoms: C_16  and  N_2 
REMARK       I    between atoms: C_7  and  N_3 
REMARK    3  A    between atoms: C_14  and  C_7 
REMARK    4  A    between atoms: C_10  and  S_11 
REMARK    5  A    between atoms: S_11  and  C_14 
REMARK    6  A    between atoms: O_18  and  C_15 
ROOT
ATOM      1  C   UNL d   1      33.101  20.815 -22.633  0.00  0.00     0.182 A 
ATOM      2  N   UNL d   1      33.106  21.620 -22.824  0.00  0.00    -0.285 N 
ATOM      3  S   UNL d   1      32.947  20.747 -21.819  0.00  0.00    -0.048 SA
ATOM      4  C   UNL d   1      32.857  21.514 -21.512  0.00  0.00     0.050 A 
ATOM      5  C   UNL d   1      32.955  22.052 -22.131  0.00  0.00     0.072 A 
ATOM      6  C   UNL d   1      32.698  21.780 -20.743  0.00  0.00     0.032 A 
ATOM      7  C   UNL d   1      32.894  22.858 -21.983  0.00  0.00     0.020 A 
ATOM      8  C   UNL d   1      32.640  22.590 -20.611  0.00  0.00     0.095 A 
ATOM      9  C   UNL d   1      32.738  23.128 -21.230  0.00  0.00     0.026 A 
ENDROOT
BRANCH   1  10
ATOM     10  N   UNL d   1      33.228  20.188 -23.157  0.00  0.00    -0.183 NA
ATOM     11  C   UNL d   1      33.117  19.504 -22.702  0.00  0.00     0.288 C 
ATOM     12  O   UNL d   1      32.922  19.568 -21.897  0.00  0.00    -0.265 OA
BRANCH  11  13
ATOM     13  C   UNL d   1      33.198  18.761 -23.040  0.00  0.00     0.101 C 
BRANCH  13  14
ATOM     14  S   UNL d   1      32.530  18.294 -23.198  0.00  0.00    -0.040 SA
BRANCH  14  15
ATOM     15  C   UNL d   1      32.597  17.616 -23.677  0.00  0.00     0.226 C 
ATOM     16  O   UNL d   1      33.210  17.082 -23.535  0.00  0.00    -0.279 OA
ATOM     17  C   UNL d   1      32.059  17.488 -24.279  0.00  0.00     0.053 C 
ENDBRANCH  14  15
ENDBRANCH  13  14
ENDBRANCH  11  13
ENDBRANCH   1  10
BRANCH   2  18
ATOM     18  C   UNL d   1      33.238  21.930 -23.570  0.00  0.00     0.082 C 
ATOM     19  C   UNL d   1      32.609  22.184 -24.039  0.00  0.00     0.021 C 
ENDBRANCH   2  18
BRANCH   8  20
ATOM     20  O   UNL d   1      32.481  22.870 -19.846  0.00  0.00    -0.328 OA
ATOM     21  C   UNL d   1      32.556  23.668 -19.678  0.00  0.00     0.181 C 
ENDBRANCH   8  20
TORSDOF 6
ENDMDL
MODEL 4
REMARK VINA RESULT:      -1.4      3.238      6.773
REMARK  6 active torsions:
REMARK  status: ('A' for Active; 'I' for Inactive)
REMARK    1  A    between atoms: N_3  and  C_1 
REMARK    2  A    between atoms: C_16  and  N_2 
REMARK       I    between atoms: C_7  and  N_3 
REMARK    3  A    between atoms: C_14  and  C_7 
REMARK    4  A    between atoms: C_10  and  S_11 
REMARK    5  A    between atoms: S_11  and  C_14 
REMARK    6  A    between atoms: O_18  and  C_15 
ROOT
ATOM      1  C   UNL d   1      32.201  17.434 -24.083  0.00  0.00     0.182 A 
ATOM      2  N   UNL d   1      32.247  16.622 -24.233  0.00  0.00    -0.285 N 
ATOM      3  S   UNL d   1      31.408  17.664 -24.168  0.00  0.00    -0.048 SA
ATOM      4  C   UNL d   1      30.967  16.989 -24.371  0.00  0.00     0.050 A 
ATOM      5  C   UNL d   1      31.485  16.346 -24.410  0.00  0.00     0.072 A 
ATOM      6  C   UNL d   1      30.158  16.889 -24.522  0.00  0.00     0.032 A 
ATOM      7  C   UNL d   1      31.194  15.602 -24.601  0.00  0.00     0.020 A 
ATOM      8  C   UNL d   1      29.883  16.137 -24.712  0.00  0.00     0.095 A 
ATOM      9  C   UNL d   1      30.401  15.494 -24.752  0.00  0.00     0.026 A 
ENDROOT
BRANCH   1  10
ATOM     10  N   UNL d   1      32.832  17.930 -23.885  0.00  0.00    -0.183 NA
ATOM     11  C   UNL d   1      32.488  18.551 -23.456  0.00  0.00     0.288 C 
ATOM     12  O   UNL d   1      31.669  18.558 -23.322  0.00  0.00    -0.265 OA
BRANCH  11  13
ATOM     13  C   UNL d   1      32.951  19.161 -23.162  0.00  0.00     0.101 C 
BRANCH  13  14
ATOM     14  S   UNL d   1      32.871  19.410 -22.374  0.00  0.00    -0.040 SA
BRANCH  14  15
ATOM     15  C   UNL d   1      33.068  20.190 -22.160  0.00  0.00     0.226 C 
ATOM     16  O   UNL d   1      33.241  20.738 -22.751  0.00  0.00    -0.279 OA
ATOM     17  C   UNL d   1      33.088  20.403 -21.371  0.00  0.00     0.053 C 
ENDBRANCH  14  15
ENDBRANCH  13  14
ENDBRANCH  11  13
ENDBRANCH   1  10
BRANCH   2  18
ATOM     18  C   UNL d   1      32.932  16.172 -24.208  0.00  0.00     0.082 C 
ATOM     19  C   UNL d   1      33.241  15.914 -23.488  0.00  0.00     0.021 C 
ENDBRANCH   2  18
BRANCH   8  20
ATOM     20  O   UNL d   1      29.075  16.023 -24.866  0.00  0.00    -0.328 OA
ATOM     21  C   UNL d   1      28.641  15.501 -24.408  0.00  0.00     0.181 C 
ENDBRANCH   8  20
TORSDOF 6
ENDMDL
MODEL 5
REMARK VINA RESULT:      -1.4      5.006      6.656
REMARK  6 active torsions:
REMARK  status: ('A' for Active; 'I' for Inactive)
REMARK    1  A    between atoms: N_3  and  C_1 
REMARK    2  A    between atoms: C_16  and  N_2 
REMARK       I    between atoms: C_7  and  N_3 
REMARK    3  A    between atoms: C_14  and  C_7 
REMARK    4  A    between atoms: C_10  and  S_11 
REMARK    5  A    between atoms: S_11  and  C_14 
REMARK    6  A    between atoms: O_18  and  C_15 
ROOT
ATOM      1  C   UNL d   1      31.239  16.647 -24.244  0.00  0.00     0.182 A 
ATOM      2  N   UNL d   1      32.047  16.659 -24.068  0.00  0.00    -0.285 N 
ATOM      3  S   UNL d   1      31.040  17.382 -24.576  0.00  0.00    -0.048 SA
ATOM      4  C   UNL d   1      31.729  17.845 -24.603  0.00  0.00     0.050 A 
ATOM      5  C   UNL d   1      32.351  17.399 -24.289  0.00  0.00     0.072 A 
ATOM      6  C   UNL d   1      31.860  18.617 -24.876  0.00  0.00     0.032 A 
ATOM      7  C   UNL d   1      33.103  17.725 -24.248  0.00  0.00     0.020 A 
ATOM      8  C   UNL d   1      32.620  18.928 -24.827  0.00  0.00     0.095 A 
ATOM      9  C   UNL d   1      33.241  18.483 -24.514  0.00  0.00     0.026 A 
ENDROOT
BRANCH   1  10
ATOM     10  N   UNL d   1      30.720  16.016 -24.113  0.00  0.00    -0.183 NA
ATOM     11  C   UNL d   1      29.992  16.372 -23.936  0.00  0.00     0.288 C 
ATOM     12  O   UNL d   1      29.928  17.199 -23.924  0.00  0.00    -0.265 OA
BRANCH  11  13
ATOM     13  C   UNL d   1      29.333  15.912 -23.771  0.00  0.00     0.101 C 
BRANCH  13  14
ATOM     14  S   UNL d   1      28.573  16.178 -23.973  0.00  0.00    -0.040 SA
BRANCH  14  15
ATOM     15  C   UNL d   1      27.906  15.881 -23.571  0.00  0.00     0.226 C 
ATOM     16  O   UNL d   1      27.895  15.894 -22.746  0.00  0.00    -0.279 OA
ATOM     17  C   UNL d   1      27.275  15.582 -23.996  0.00  0.00     0.053 C 
ENDBRANCH  14  15
ENDBRANCH  13  14
ENDBRANCH  11  13
ENDBRANCH   1  10
BRANCH   2  18
ATOM     18  C   UNL d   1      32.469  16.042 -23.732  0.00  0.00     0.082 C 
ATOM     19  C   UNL d   1      32.802  15.453 -24.204  0.00  0.00     0.021 C 
ENDBRANCH   2  18
BRANCH   8  20
ATOM     20  O   UNL d   1      32.764  19.700 -25.097  0.00  0.00    -0.328 OA
ATOM     21  C   UNL d   1      33.201  20.219 -24.639  0.00  0.00     0.181 C 
ENDBRANCH   8  20
TORSDOF 6
ENDMDL
MODEL 6
REMARK VINA RESULT:      -1.1      2.103      3.686
REMARK  6 active torsions:
REMARK  status: ('A' for Active; 'I' for Inactive)
REMARK    1  A    between atoms: N_3  and  C_1 
REMARK    2  A    between atoms: C_16  and  N_2 
REMARK       I    between atoms: C_7  and  N_3 
REMARK    3  A    between atoms: C_14  and  C_7 
REMARK    4  A    between atoms: C_10  and  S_11 
REMARK    5  A    between atoms: S_11  and  C_14 
REMARK    6  A    between atoms: O_18  and  C_15 
ROOT
ATOM      1  C   UNL d   1      33.079  18.995 -23.700  0.00  0.00     0.182 A 
ATOM      2  N   UNL d   1      33.152  19.782 -23.944  0.00  0.00    -0.285 N 
ATOM      3  S   UNL d   1      33.053  18.986 -22.870  0.00  0.00    -0.048 SA
ATOM      4  C   UNL d   1      33.110  19.773 -22.606  0.00  0.00     0.050 A 
ATOM      5  C   UNL d   1      33.172  20.263 -23.268  0.00  0.00     0.072 A 
ATOM      6  C   UNL d   1      33.113  20.094 -21.841  0.00  0.00     0.032 A 
ATOM      7  C   UNL d   1      33.236  21.075 -23.167  0.00  0.00     0.020 A 
ATOM      8  C   UNL d   1      33.179  20.909 -21.758  0.00  0.00     0.095 A 
ATOM      9  C   UNL d   1      33.240  21.400 -22.420  0.00  0.00     0.026 A 
ENDROOT
BRANCH   1  10
ATOM     10  N   UNL d   1      33.039  18.332 -24.194  0.00  0.00    -0.183 NA
ATOM     11  C   UNL d   1      32.573  17.785 -23.780  0.00  0.00     0.288 C 
ATOM     12  O   UNL d   1      32.269  17.982 -23.033  0.00  0.00    -0.265 OA
BRANCH  11  13
ATOM     13  C   UNL d   1      32.409  17.049 -24.102  0.00  0.00     0.101 C 
BRANCH  13  14
ATOM     14  S   UNL d   1      31.642  16.734 -24.066  0.00  0.00    -0.040 SA
BRANCH  14  15
ATOM     15  C   UNL d   1      31.406  16.145 -24.605  0.00  0.00     0.226 C 
ATOM     16  O   UNL d   1      30.728  16.265 -25.060  0.00  0.00    -0.279 OA
ATOM     17  C   UNL d   1      31.845  15.460 -24.678  0.00  0.00     0.053 C 
ENDBRANCH  14  15
ENDBRANCH  13  14
ENDBRANCH  11  13
ENDBRANCH   1  10
BRANCH   2  18
ATOM     18  C   UNL d   1      33.198  20.035 -24.722  0.00  0.00     0.082 C 
ATOM     19  C   UNL d   1      32.998  20.809 -24.925  0.00  0.00     0.021 C 
ENDBRANCH   2  18
BRANCH   8  20
ATOM     20  O   UNL d   1      33.183  21.244 -20.998  0.00  0.00    -0.328 OA
ATOM     21  C   UNL d   1      32.629  21.812 -20.798  0.00  0.00     0.181 C 
ENDBRANCH   8  20
TORSDOF 6
ENDMDL
MODEL 7
REMARK VINA RESULT:      -1.0      2.087      4.563
REMARK  6 active torsions:
REMARK  status: ('A' for Active; 'I' for Inactive)
REMARK    1  A    between atoms: N_3  and  C_1 
REMARK    2  A    between atoms: C_16  and  N_2 
REMARK       I    between atoms: C_7  and  N_3 
REMARK    3  A    between atoms: C_14  and  C_7 
REMARK    4  A    between atoms: C_10  and  S_11 
REMARK    5  A    between atoms: S_11  and  C_14 
REMARK    6  A    between atoms: O_18  and  C_15 
ROOT
ATOM      1  C   UNL d   1      33.204  22.683 -20.579  0.00  0.00     0.182 A 
ATOM      2  N   UNL d   1      33.219  21.978 -21.012  0.00  0.00    -0.285 N 
ATOM      3  S   UNL d   1      33.188  23.313 -21.120  0.00  0.00    -0.048 SA
ATOM      4  C   UNL d   1      33.195  22.991 -21.887  0.00  0.00     0.050 A 
ATOM      5  C   UNL d   1      33.213  22.168 -21.820  0.00  0.00     0.072 A 
ATOM      6  C   UNL d   1      33.185  23.353 -22.633  0.00  0.00     0.032 A 
ATOM      7  C   UNL d   1      33.223  21.705 -22.498  0.00  0.00     0.020 A 
ATOM      8  C   UNL d   1      33.195  22.875 -23.302  0.00  0.00     0.095 A 
ATOM      9  C   UNL d   1      33.214  22.052 -23.235  0.00  0.00     0.026 A 
ENDROOT
BRANCH   1  10
ATOM     10  N   UNL d   1      33.203  22.750 -19.755  0.00  0.00    -0.183 NA
ATOM     11  C   UNL d   1      32.639  23.336 -19.589  0.00  0.00     0.288 C 
ATOM     12  O   UNL d   1      32.228  23.702 -20.210  0.00  0.00    -0.265 OA
BRANCH  11  13
ATOM     13  C   UNL d   1      32.483  23.557 -18.815  0.00  0.00     0.101 C 
BRANCH  13  14
ATOM     14  S   UNL d   1      32.724  23.075 -18.183  0.00  0.00    -0.040 SA
BRANCH  14  15
ATOM     15  C   UNL d   1      32.496  23.263 -17.404  0.00  0.00     0.226 C 
ATOM     16  O   UNL d   1      31.809  23.702 -17.281  0.00  0.00    -0.279 OA
ATOM     17  C   UNL d   1      32.952  23.011 -16.775  0.00  0.00     0.053 C 
ENDBRANCH  14  15
ENDBRANCH  13  14
ENDBRANCH  11  13
ENDBRANCH   1  10
BRANCH   2  18
ATOM     18  C   UNL d   1      33.237  21.225 -20.690  0.00  0.00     0.082 C 
ATOM     19  C   UNL d   1      32.742  20.631 -20.980  0.00  0.00     0.021 C 
ENDBRANCH   2  18
BRANCH   8  20
ATOM     20  O   UNL d   1      33.186  23.225 -24.055  0.00  0.00    -0.328 OA
ATOM     21  C   UNL d   1      32.600  23.027 -24.591  0.00  0.00     0.181 C 
ENDBRANCH   8  20
TORSDOF 6
ENDMDL
