MODEL 1
REMARK VINA RESULT:      -3.4      0.000      0.000
REMARK  6 active torsions:
REMARK  status: ('A' for Active; 'I' for Inactive)
REMARK    1  A    between atoms: N_6  and  C_1 
REMARK    2  A    between atoms: C_7  and  C_2 
REMARK       I    between atoms: C_8  and  N_6 
REMARK    3  A    between atoms: O_14  and  C_7 
REMARK    4  A    between atoms: C_10  and  C_8 
REMARK    5  A    between atoms: N_9  and  C_10 
REMARK    6  A    between atoms: C_21  and  O_14 
ROOT
ATOM      1  C   UNL d   1      58.509  -0.134  30.197  0.00  0.00     0.119 A 
ATOM      2  C   UNL d   1      58.906  -0.568  29.619  0.00  0.00     0.088 A 
ATOM      3  S   UNL d   1      59.027   0.393  30.533  0.00  0.00    -0.068 SA
ATOM      4  C   UNL d   1      59.678  -0.302  29.602  0.00  0.00     0.013 A 
ATOM      5  C   UNL d   1      59.754   0.297  30.171  0.00  0.00     0.031 A 
ATOM      6  C   UNL d   1      60.342  -0.508  29.152  0.00  0.00     0.001 A 
ATOM      7  C   UNL d   1      60.492   0.682  30.285  0.00  0.00     0.006 A 
ATOM      8  C   UNL d   1      61.058  -0.145  29.253  0.00  0.00     0.000 A 
ATOM      9  C   UNL d   1      61.133   0.454  29.823  0.00  0.00     0.001 A 
ENDROOT
BRANCH   1  10
ATOM     10  N   UNL d   1      57.714  -0.224  30.398  0.00  0.00    -0.200 NA
ATOM     11  C   UNL d   1      57.398   0.139  31.067  0.00  0.00     0.297 C 
ATOM     12  O   UNL d   1      57.907   0.595  31.529  0.00  0.00    -0.264 OA
BRANCH  11  13
ATOM     13  C   UNL d   1      56.600   0.036  31.251  0.00  0.00     0.144 C 
BRANCH  13  14
ATOM     14  N   UNL d   1      56.415  -0.178  32.029  0.00  0.00    -0.295 N 
ATOM     15  C   UNL d   1      56.449  -0.979  32.240  0.00  0.00     0.107 A 
ATOM     16  C   UNL d   1      56.266  -1.199  33.015  0.00  0.00     0.142 A 
ATOM     17  O   UNL d   1      56.055  -0.646  33.569  0.00  0.00    -0.300 OA
ATOM     18  C   UNL d   1      56.021   0.156  33.358  0.00  0.00     0.142 A 
ATOM     19  C   UNL d   1      56.200   0.375  32.600  0.00  0.00     0.107 A 
ENDBRANCH  13  14
ENDBRANCH  11  13
ENDBRANCH   1  10
BRANCH   2  20
ATOM     20  C   UNL d   1      58.592  -1.171  29.132  0.00  0.00     0.302 C 
ATOM     21  O   UNL d   1      58.061  -0.959  28.523  0.00  0.00    -0.259 OA
BRANCH  20  22
ATOM     22  O   UNL d   1      58.807  -1.951  29.257  0.00  0.00    -0.271 OA
BRANCH  22  23
ATOM     23  C   UNL d   1      58.481  -2.548  28.804  0.00  0.00     0.126 C 
ATOM     24  C   UNL d   1      58.707  -3.329  28.930  0.00  0.00     0.029 C 
ENDBRANCH  22  23
ENDBRANCH  20  22
ENDBRANCH   2  20
TORSDOF 6
ENDMDL
