MODEL 1
REMARK VINA RESULT:      21.1      0.000      0.000
REMARK  5 active torsions:
REMARK  status: ('A' for Active; 'I' for Inactive)
REMARK    1  A    between atoms: C_2  and  S_1 
REMARK    2  A    between atoms: N_4  and  S_1 
REMARK    3  A    between atoms: C_11  and  N_4 
REMARK    4  A    between atoms: O_14  and  C_5 
REMARK    5  A    between atoms: O_15  and  C_7 
ROOT
ATOM      1  C   UNL d   1      45.407 -14.359  44.298  0.00  0.00     0.129 A 
ATOM      2  C   UNL d   1      45.928 -13.956  43.801  0.00  0.00     0.040 A 
ATOM      3  C   UNL d   1      44.668 -14.039  44.456  0.00  0.00     0.107 A 
ATOM      4  C   UNL d   1      44.441 -13.322  44.127  0.00  0.00     0.034 A 
ATOM      5  C   UNL d   1      45.707 -13.235  43.466  0.00  0.00     0.101 A 
ATOM      6  C   UNL d   1      44.962 -12.918  43.630  0.00  0.00     0.059 A 
ATOM      7 BR   UNL d   1      44.746 -12.193  43.291  0.00  0.00    -0.047 Br
ENDROOT
BRANCH   1   8
ATOM      8  S   UNL d   1      45.634 -15.076  44.627  0.00  0.00     0.287 S 
ATOM      9  O   UNL d   1      46.300 -14.730  44.950  0.00  0.00    -0.198 OA
ATOM     10  O   UNL d   1      44.963 -15.430  44.303  0.00  0.00    -0.198 OA
BRANCH   8  11
ATOM     11  N   UNL d   1      45.856 -15.800  44.955  0.00  0.00    -0.157 NA
BRANCH  11  12
ATOM     12  C   UNL d   1      45.954 -16.459  44.467  0.00  0.00     0.113 A 
ATOM     13  C   UNL d   1      45.889 -16.381  43.655  0.00  0.00     0.119 A 
ATOM     14  N   UNL d   1      45.987 -17.039  43.168  0.00  0.00    -0.241 NA
ATOM     15  C   UNL d   1      46.154 -17.784  43.499  0.00  0.00     0.099 A 
ATOM     16  C   UNL d   1      46.219 -17.854  44.321  0.00  0.00     0.022 A 
ATOM     17  C   UNL d   1      46.120 -17.196  44.808  0.00  0.00     0.023 A 
ENDBRANCH  11  12
ENDBRANCH   8  11
ENDBRANCH   1   8
BRANCH   3  18
ATOM     18  O   UNL d   1      44.146 -14.443  44.954  0.00  0.00    -0.327 OA
ATOM     19  C   UNL d   1      43.334 -14.304  44.902  0.00  0.00     0.181 C 
ENDBRANCH   3  18
BRANCH   5  20
ATOM     20  O   UNL d   1      46.229 -12.830  42.968  0.00  0.00    -0.328 OA
ATOM     21  C   UNL d   1      45.936 -12.357  42.359  0.00  0.00     0.181 C 
ENDBRANCH   5  20
TORSDOF 5
ENDMDL
MODEL 2
REMARK VINA RESULT:      22.6      2.698      4.568
REMARK  5 active torsions:
REMARK  status: ('A' for Active; 'I' for Inactive)
REMARK    1  A    between atoms: C_2  and  S_1 
REMARK    2  A    between atoms: N_4  and  S_1 
REMARK    3  A    between atoms: C_11  and  N_4 
REMARK    4  A    between atoms: O_14  and  C_5 
REMARK    5  A    between atoms: O_15  and  C_7 
ROOT
ATOM      1  C   UNL d   1      45.993 -18.066  43.383  0.00  0.00     0.129 A 
ATOM      2  C   UNL d   1      45.914 -17.939  42.571  0.00  0.00     0.040 A 
ATOM      3  C   UNL d   1      46.289 -18.782  43.655  0.00  0.00     0.107 A 
ATOM      4  C   UNL d   1      46.507 -19.373  43.130  0.00  0.00     0.034 A 
ATOM      5  C   UNL d   1      46.131 -18.529  42.037  0.00  0.00     0.101 A 
ATOM      6  C   UNL d   1      46.428 -19.247  42.317  0.00  0.00     0.059 A 
ATOM      7 BR   UNL d   1      46.645 -19.836  41.775  0.00  0.00    -0.047 Br
ENDROOT
BRANCH   1   8
ATOM      8  S   UNL d   1      45.775 -17.474  43.909  0.00  0.00     0.287 S 
ATOM      9  O   UNL d   1      46.519 -17.140  43.860  0.00  0.00    -0.198 OA
ATOM     10  O   UNL d   1      45.022 -17.807  43.961  0.00  0.00    -0.198 OA
BRANCH   8  11
ATOM     11  N   UNL d   1      45.548 -16.882  44.437  0.00  0.00    -0.157 NA
BRANCH  11  12
ATOM     12  C   UNL d   1      45.801 -16.106  44.317  0.00  0.00     0.113 A 
ATOM     13  C   UNL d   1      46.385 -15.786  44.793  0.00  0.00     0.119 A 
ATOM     14  N   UNL d   1      46.638 -15.010  44.672  0.00  0.00    -0.241 NA
ATOM     15  C   UNL d   1      46.301 -14.550  44.066  0.00  0.00     0.099 A 
ATOM     16  C   UNL d   1      45.711 -14.880  43.590  0.00  0.00     0.022 A 
ATOM     17  C   UNL d   1      45.458 -15.656  43.711  0.00  0.00     0.023 A 
ENDBRANCH  11  12
ENDBRANCH   8  11
ENDBRANCH   1   8
BRANCH   3  18
ATOM     18  O   UNL d   1      46.368 -18.908  44.468  0.00  0.00    -0.327 OA
ATOM     19  C   UNL d   1      46.619 -19.642  44.749  0.00  0.00     0.181 C 
ENDBRANCH   3  18
BRANCH   5  20
ATOM     20  O   UNL d   1      46.052 -18.403  41.224  0.00  0.00    -0.328 OA
ATOM     21  C   UNL d   1      45.844 -19.027  40.727  0.00  0.00     0.181 C 
ENDBRANCH   5  20
TORSDOF 5
ENDMDL
