MODEL 1
REMARK VINA RESULT:      57.0      0.000      0.000
REMARK  6 active torsions:
REMARK  status: ('A' for Active; 'I' for Inactive)
REMARK    1  A    between atoms: N_2  and  C_1 
REMARK    2  A    between atoms: C_8  and  C_5 
REMARK    3  A    between atoms: C_6  and  C_9 
REMARK       I    between atoms: N_13  and  C_6 
REMARK    4  A    between atoms: C_9  and  C_8 
REMARK    5  A    between atoms: C_14  and  C_11 
REMARK    6  A    between atoms: C_16  and  N_13 
ROOT
ATOM      1  C   UNL d   1      60.572  48.495  50.985  0.00  0.00     0.279 C 
ATOM      2  N   UNL d   1      60.408  47.696  50.924  0.00  0.00    -0.208 NA
ATOM      3  O   UNL d   1      61.268  48.786  50.631  0.00  0.00    -0.265 OA
ENDROOT
BRANCH   1   4
ATOM      4  C   UNL d   1      60.069  48.992  51.380  0.00  0.00     0.063 C 
BRANCH   4   5
ATOM      5  C   UNL d   1      59.689  49.608  50.967  0.00  0.00     0.011 C 
BRANCH   5   6
ATOM      6  C   UNL d   1      58.846  49.620  50.902  0.00  0.00     0.031 A 
ATOM      7  S   UNL d   1      58.338  49.563  50.253  0.00  0.00    -0.064 SA
ATOM      8  C   UNL d   1      57.583  49.609  50.536  0.00  0.00     0.156 A 
ATOM      9  C   UNL d   1      57.605  49.695  51.353  0.00  0.00     0.031 A 
ATOM     10  C   UNL d   1      58.405  49.701  51.578  0.00  0.00     0.009 A 
BRANCH   8  11
ATOM     11  N   UNL d   1      56.872  49.577  50.081  0.00  0.00    -0.107 N 
ATOM     12  O   UNL d   1      56.913  49.662  49.251  0.00  0.00    -0.531 OA
ATOM     13  O   UNL d   1      56.140  49.462  50.445  0.00  0.00    -0.531 OA
ENDBRANCH   8  11
ENDBRANCH   5   6
ENDBRANCH   4   5
ENDBRANCH   1   4
BRANCH   2  14
ATOM     14  C   UNL d   1      60.909  47.181  50.526  0.00  0.00     0.085 A 
ATOM     15  C   UNL d   1      60.803  46.382  50.567  0.00  0.00     0.022 A 
ATOM     16  C   UNL d   1      61.314  45.862  50.162  0.00  0.00     0.041 A 
ATOM     17  C   UNL d   1      61.935  46.166  49.714  0.00  0.00     0.003 A 
ATOM     18  C   UNL d   1      62.034  46.990  49.679  0.00  0.00     0.002 A 
ATOM     19  C   UNL d   1      61.529  47.493  50.079  0.00  0.00     0.019 A 
BRANCH  16  20
ATOM     20  C   UNL d   1      61.207  45.045  50.204  0.00  0.00     0.196 C 
ATOM     21  O   UNL d   1      61.772  44.550  49.898  0.00  0.00    -0.287 OA
ATOM     22  C   UNL d   1      60.522  44.713  50.558  0.00  0.00     0.045 C 
ENDBRANCH  16  20
ENDBRANCH   2  14
TORSDOF 6
ENDMDL
