MODEL 1
REMARK VINA RESULT:      -6.3      0.000      0.000
REMARK  5 active torsions:
REMARK  status: ('A' for Active; 'I' for Inactive)
REMARK    1  A    between atoms: C_10  and  N_1 
REMARK    2  A    between atoms: N_2  and  C_8 
REMARK    3  A    between atoms: C_5  and  C_12 
REMARK       I    between atoms: N_6  and  C_5 
REMARK    4  A    between atoms: C_7  and  N_6 
REMARK    5  A    between atoms: O_26  and  C_14 
ROOT
ATOM      1  C   UNL d   1     -45.884  13.172  22.572  0.00  0.00     0.279 C 
ATOM      2  N   UNL d   1     -45.677  12.383  22.575  0.00  0.00    -0.206 NA
ATOM      3  O   UNL d   1     -45.314  13.757  22.503  0.00  0.00    -0.265 OA
ENDROOT
BRANCH   1   4
ATOM      4  C   UNL d   1     -46.697  13.390  22.640  0.00  0.00     0.058 A 
ATOM      5  C   UNL d   1     -47.238  13.105  22.101  0.00  0.00     0.006 A 
ATOM      6  C   UNL d   1     -48.045  13.322  22.168  0.00  0.00     0.018 A 
ATOM      7  C   UNL d   1     -48.280  13.816  22.773  0.00  0.00     0.070 A 
ATOM      8  C   UNL d   1     -47.738  14.104  23.317  0.00  0.00     0.018 A 
ATOM      9  C   UNL d   1     -46.931  13.887  23.249  0.00  0.00     0.006 A 
BRANCH   7  10
ATOM     10  N   UNL d   1     -49.097  14.035  22.842  0.00  0.00    -0.242 N 
ATOM     11  C   UNL d   1     -49.510  14.719  22.605  0.00  0.00     0.267 A 
ATOM     12  C   UNL d   1     -50.299  14.623  22.817  0.00  0.00     0.066 A 
ATOM     13  O   UNL d   1     -49.171  15.410  22.207  0.00  0.00    -0.267 OA
ATOM     14  C   UNL d   1     -50.352  13.881  23.180  0.00  0.00     0.066 A 
ATOM     15  C   UNL d   1     -49.620  13.517  23.197  0.00  0.00     0.267 A 
ATOM     16  O   UNL d   1     -49.469  12.758  23.525  0.00  0.00    -0.267 OA
ENDBRANCH   7  10
ENDBRANCH   1   4
BRANCH   2  17
ATOM     17  C   UNL d   1     -44.861  12.164  22.507  0.00  0.00     0.108 A 
ATOM     18  C   UNL d   1     -44.364  12.566  21.977  0.00  0.00     0.045 A 
ATOM     19  C   UNL d   1     -43.570  12.353  21.910  0.00  0.00     0.128 A 
ATOM     20  C   UNL d   1     -43.255  11.733  22.372  0.00  0.00     0.026 A 
ATOM     21  C   UNL d   1     -43.760  11.339  22.896  0.00  0.00     0.027 A 
ATOM     22  C   UNL d   1     -44.554  11.552  22.963  0.00  0.00     0.112 A 
BRANCH  19  23
ATOM     23  N   UNL d   1     -43.092  12.754  21.388  0.00  0.00    -0.114 N 
ATOM     24  O   UNL d   1     -42.534  13.340  21.596  0.00  0.00    -0.532 OA
ATOM     25  O   UNL d   1     -43.145  12.578  20.546  0.00  0.00    -0.532 OA
ENDBRANCH  19  23
BRANCH  22  26
ATOM     26  O   UNL d   1     -45.032  11.148  23.488  0.00  0.00    -0.327 OA
ATOM     27  C   UNL d   1     -44.847  10.369  23.698  0.00  0.00     0.181 C 
ENDBRANCH  22  26
ENDBRANCH   2  17
TORSDOF 5
ENDMDL
MODEL 2
REMARK VINA RESULT:      -6.1      1.029      5.518
REMARK  5 active torsions:
REMARK  status: ('A' for Active; 'I' for Inactive)
REMARK    1  A    between atoms: C_10  and  N_1 
REMARK    2  A    between atoms: N_2  and  C_8 
REMARK    3  A    between atoms: C_5  and  C_12 
REMARK       I    between atoms: N_6  and  C_5 
REMARK    4  A    between atoms: C_7  and  N_6 
REMARK    5  A    between atoms: O_26  and  C_14 
ROOT
ATOM      1  C   UNL d   1     -48.078  13.595  23.005  0.00  0.00     0.279 C 
ATOM      2  N   UNL d   1     -48.705  13.119  22.795  0.00  0.00    -0.206 NA
ATOM      3  O   UNL d   1     -48.203  14.326  23.355  0.00  0.00    -0.265 OA
ENDROOT
BRANCH   1   4
ATOM      4  C   UNL d   1     -47.288  13.334  22.861  0.00  0.00     0.058 A 
ATOM      5  C   UNL d   1     -46.729  13.397  23.451  0.00  0.00     0.006 A 
ATOM      6  C   UNL d   1     -45.944  13.137  23.308  0.00  0.00     0.018 A 
ATOM      7  C   UNL d   1     -45.750  12.824  22.580  0.00  0.00     0.070 A 
ATOM      8  C   UNL d   1     -46.311  12.760  21.986  0.00  0.00     0.018 A 
ATOM      9  C   UNL d   1     -47.095  13.020  22.129  0.00  0.00     0.006 A 
BRANCH   7  10
ATOM     10  N   UNL d   1     -44.957  12.561  22.436  0.00  0.00    -0.242 N 
ATOM     11  C   UNL d   1     -44.536  11.891  22.698  0.00  0.00     0.267 A 
ATOM     12  C   UNL d   1     -43.780  11.926  22.378  0.00  0.00     0.066 A 
ATOM     13  O   UNL d   1     -44.841  11.267  23.217  0.00  0.00    -0.267 OA
ATOM     14  C   UNL d   1     -43.752  12.618  21.925  0.00  0.00     0.066 A 
ATOM     15  C   UNL d   1     -44.469  13.010  21.957  0.00  0.00     0.267 A 
ATOM     16  O   UNL d   1     -44.638  13.732  21.562  0.00  0.00    -0.267 OA
ENDBRANCH   7  10
ENDBRANCH   1   4
BRANCH   2  17
ATOM     17  C   UNL d   1     -49.498  13.381  22.939  0.00  0.00     0.108 A 
ATOM     18  C   UNL d   1     -49.722  14.157  22.747  0.00  0.00     0.045 A 
ATOM     19  C   UNL d   1     -50.494  14.413  22.888  0.00  0.00     0.128 A 
ATOM     20  C   UNL d   1     -51.058  13.898  23.224  0.00  0.00     0.026 A 
ATOM     21  C   UNL d   1     -50.824  13.128  23.411  0.00  0.00     0.027 A 
ATOM     22  C   UNL d   1     -50.052  12.872  23.271  0.00  0.00     0.112 A 
BRANCH  19  23
ATOM     23  N   UNL d   1     -50.703  15.176  22.695  0.00  0.00    -0.114 N 
ATOM     24  O   UNL d   1     -50.850  15.456  21.922  0.00  0.00    -0.532 OA
ATOM     25  O   UNL d   1     -50.786  15.762  23.322  0.00  0.00    -0.532 OA
ENDBRANCH  19  23
BRANCH  22  26
ATOM     26  O   UNL d   1     -49.846  12.105  23.465  0.00  0.00    -0.327 OA
ATOM     27  C   UNL d   1     -50.429  11.567  23.697  0.00  0.00     0.181 C 
ENDBRANCH  22  26
ENDBRANCH   2  17
TORSDOF 5
ENDMDL
MODEL 3
REMARK VINA RESULT:      -4.7      7.770      9.016
REMARK  5 active torsions:
REMARK  status: ('A' for Active; 'I' for Inactive)
REMARK    1  A    between atoms: C_10  and  N_1 
REMARK    2  A    between atoms: N_2  and  C_8 
REMARK    3  A    between atoms: C_5  and  C_12 
REMARK       I    between atoms: N_6  and  C_5 
REMARK    4  A    between atoms: C_7  and  N_6 
REMARK    5  A    between atoms: O_26  and  C_14 
ROOT
ATOM      1  C   UNL d   1     -39.069  14.092  19.093  0.00  0.00     0.279 C 
ATOM      2  N   UNL d   1     -39.138  14.789  18.676  0.00  0.00    -0.206 NA
ATOM      3  O   UNL d   1     -39.099  13.367  18.712  0.00  0.00    -0.265 OA
ENDROOT
BRANCH   1   4
ATOM      4  C   UNL d   1     -38.963  14.116  19.930  0.00  0.00     0.058 A 
ATOM      5  C   UNL d   1     -39.617  14.129  20.418  0.00  0.00     0.006 A 
ATOM      6  C   UNL d   1     -39.512  14.153  21.251  0.00  0.00     0.018 A 
ATOM      7  C   UNL d   1     -38.758  14.163  21.562  0.00  0.00     0.070 A 
ATOM      8  C   UNL d   1     -38.100  14.150  21.073  0.00  0.00     0.018 A 
ATOM      9  C   UNL d   1     -38.205  14.126  20.241  0.00  0.00     0.006 A 
BRANCH   7  10
ATOM     10  N   UNL d   1     -38.652  14.187  22.403  0.00  0.00    -0.242 N 
ATOM     11  C   UNL d   1     -38.689  14.815  22.950  0.00  0.00     0.267 A 
ATOM     12  C   UNL d   1     -38.538  14.507  23.697  0.00  0.00     0.066 A 
ATOM     13  O   UNL d   1     -38.856  15.645  22.766  0.00  0.00    -0.267 OA
ATOM     14  C   UNL d   1     -38.412  13.696  23.593  0.00  0.00     0.066 A 
ATOM     15  C   UNL d   1     -38.481  13.495  22.803  0.00  0.00     0.267 A 
ATOM     16  O   UNL d   1     -38.387  12.718  22.496  0.00  0.00    -0.267 OA
ENDBRANCH   7  10
ENDBRANCH   1   4
BRANCH   2  17
ATOM     17  C   UNL d   1     -39.244  14.765  17.835  0.00  0.00     0.108 A 
ATOM     18  C   UNL d   1     -38.730  14.315  17.363  0.00  0.00     0.045 A 
ATOM     19  C   UNL d   1     -38.833  14.291  16.544  0.00  0.00     0.128 A 
ATOM     20  C   UNL d   1     -39.452  14.718  16.180  0.00  0.00     0.026 A 
ATOM     21  C   UNL d   1     -39.957  15.163  16.661  0.00  0.00     0.027 A 
ATOM     22  C   UNL d   1     -39.854  15.187  17.479  0.00  0.00     0.112 A 
BRANCH  19  23
ATOM     23  N   UNL d   1     -38.325  13.847  16.091  0.00  0.00    -0.114 N 
ATOM     24  O   UNL d   1     -37.940  14.110  15.397  0.00  0.00    -0.532 OA
ATOM     25  O   UNL d   1     -38.152  13.035  16.322  0.00  0.00    -0.532 OA
ENDBRANCH  19  23
BRANCH  22  26
ATOM     26  O   UNL d   1     -40.367  15.634  17.932  0.00  0.00    -0.327 OA
ATOM     27  C   UNL d   1     -41.086  15.888  17.611  0.00  0.00     0.181 C 
ENDBRANCH  22  26
ENDBRANCH   2  17
TORSDOF 5
ENDMDL
MODEL 4
REMARK VINA RESULT:      -4.7      1.160      1.909
REMARK  5 active torsions:
REMARK  status: ('A' for Active; 'I' for Inactive)
REMARK    1  A    between atoms: C_10  and  N_1 
REMARK    2  A    between atoms: N_2  and  C_8 
REMARK    3  A    between atoms: C_5  and  C_12 
REMARK       I    between atoms: N_6  and  C_5 
REMARK    4  A    between atoms: C_7  and  N_6 
REMARK    5  A    between atoms: O_26  and  C_14 
ROOT
ATOM      1  C   UNL d   1     -46.420  12.984  22.946  0.00  0.00     0.279 C 
ATOM      2  N   UNL d   1     -46.021  12.666  22.310  0.00  0.00    -0.206 NA
ATOM      3  O   UNL d   1     -46.092  12.971  23.698  0.00  0.00    -0.265 OA
ENDROOT
BRANCH   1   4
ATOM      4  C   UNL d   1     -47.180  13.332  22.831  0.00  0.00     0.058 A 
ATOM      5  C   UNL d   1     -47.264  13.955  22.311  0.00  0.00     0.006 A 
ATOM      6  C   UNL d   1     -48.020  14.300  22.197  0.00  0.00     0.018 A 
ATOM      7  C   UNL d   1     -48.662  14.010  22.607  0.00  0.00     0.070 A 
ATOM      8  C   UNL d   1     -48.580  13.384  23.130  0.00  0.00     0.018 A 
ATOM      9  C   UNL d   1     -47.824  13.038  23.245  0.00  0.00     0.006 A 
BRANCH   7  10
ATOM     10  N   UNL d   1     -49.426  14.359  22.491  0.00  0.00    -0.242 N 
ATOM     11  C   UNL d   1     -49.768  15.060  22.787  0.00  0.00     0.267 A 
ATOM     12  C   UNL d   1     -50.530  15.115  22.485  0.00  0.00     0.066 A 
ATOM     13  O   UNL d   1     -49.388  15.629  23.319  0.00  0.00    -0.267 OA
ATOM     14  C   UNL d   1     -50.640  14.447  22.009  0.00  0.00     0.066 A 
ATOM     15  C   UNL d   1     -49.969  13.981  22.010  0.00  0.00     0.267 A 
ATOM     16  O   UNL d   1     -49.885  13.260  21.587  0.00  0.00    -0.267 OA
ENDBRANCH   7  10
ENDBRANCH   1   4
BRANCH   2  17
ATOM     17  C   UNL d   1     -45.258  12.317  22.425  0.00  0.00     0.108 A 
ATOM     18  C   UNL d   1     -45.179  11.629  22.883  0.00  0.00     0.045 A 
ATOM     19  C   UNL d   1     -44.435  11.289  22.996  0.00  0.00     0.128 A 
ATOM     20  C   UNL d   1     -43.755  11.630  22.653  0.00  0.00     0.026 A 
ATOM     21  C   UNL d   1     -43.845  12.315  22.199  0.00  0.00     0.027 A 
ATOM     22  C   UNL d   1     -44.589  12.655  22.086  0.00  0.00     0.112 A 
BRANCH  19  23
ATOM     23  N   UNL d   1     -44.369  10.615  23.446  0.00  0.00    -0.114 N 
ATOM     24  O   UNL d   1     -43.650  10.270  23.698  0.00  0.00    -0.532 OA
ATOM     25  O   UNL d   1     -45.083  10.202  23.697  0.00  0.00    -0.532 OA
ENDBRANCH  19  23
BRANCH  22  26
ATOM     26  O   UNL d   1     -44.652  13.333  21.633  0.00  0.00    -0.327 OA
ATOM     27  C   UNL d   1     -43.979  13.654  21.277  0.00  0.00     0.181 C 
ENDBRANCH  22  26
ENDBRANCH   2  17
TORSDOF 5
ENDMDL
MODEL 5
REMARK VINA RESULT:      -4.0      1.163      5.564
REMARK  5 active torsions:
REMARK  status: ('A' for Active; 'I' for Inactive)
REMARK    1  A    between atoms: C_10  and  N_1 
REMARK    2  A    between atoms: N_2  and  C_8 
REMARK    3  A    between atoms: C_5  and  C_12 
REMARK       I    between atoms: N_6  and  C_5 
REMARK    4  A    between atoms: C_7  and  N_6 
REMARK    5  A    between atoms: O_26  and  C_14 
ROOT
ATOM      1  C   UNL d   1     -47.668  13.069  22.925  0.00  0.00     0.279 C 
ATOM      2  N   UNL d   1     -48.125  13.630  22.549  0.00  0.00    -0.206 NA
ATOM      3  O   UNL d   1     -47.985  12.590  23.510  0.00  0.00    -0.265 OA
ENDROOT
BRANCH   1   4
ATOM      4  C   UNL d   1     -46.857  12.979  22.709  0.00  0.00     0.058 A 
ATOM      5  C   UNL d   1     -46.666  12.737  21.954  0.00  0.00     0.006 A 
ATOM      6  C   UNL d   1     -45.859  12.648  21.739  0.00  0.00     0.018 A 
ATOM      7  C   UNL d   1     -45.277  12.803  22.288  0.00  0.00     0.070 A 
ATOM      8  C   UNL d   1     -45.467  13.046  23.048  0.00  0.00     0.018 A 
ATOM      9  C   UNL d   1     -46.273  13.136  23.262  0.00  0.00     0.006 A 
BRANCH   7  10
ATOM     10  N   UNL d   1     -44.462  12.713  22.072  0.00  0.00    -0.242 N 
ATOM     11  C   UNL d   1     -43.920  12.092  22.195  0.00  0.00     0.267 A 
ATOM     12  C   UNL d   1     -43.202  12.314  21.860  0.00  0.00     0.066 A 
ATOM     13  O   UNL d   1     -44.081  11.344  22.603  0.00  0.00    -0.267 OA
ATOM     14  C   UNL d   1     -43.320  13.067  21.538  0.00  0.00     0.066 A 
ATOM     15  C   UNL d   1     -44.088  13.316  21.665  0.00  0.00     0.267 A 
ATOM     16  O   UNL d   1     -44.401  14.054  21.413  0.00  0.00    -0.267 OA
ENDBRANCH   7  10
ENDBRANCH   1   4
BRANCH   2  17
ATOM     17  C   UNL d   1     -48.940  13.720  22.766  0.00  0.00     0.108 A 
ATOM     18  C   UNL d   1     -49.442  13.059  22.786  0.00  0.00     0.045 A 
ATOM     19  C   UNL d   1     -50.235  13.147  22.997  0.00  0.00     0.128 A 
ATOM     20  C   UNL d   1     -50.543  13.898  23.192  0.00  0.00     0.026 A 
ATOM     21  C   UNL d   1     -50.034  14.550  23.169  0.00  0.00     0.027 A 
ATOM     22  C   UNL d   1     -49.241  14.462  22.958  0.00  0.00     0.112 A 
BRANCH  19  23
ATOM     23  N   UNL d   1     -50.718  12.493  23.013  0.00  0.00    -0.114 N 
ATOM     24  O   UNL d   1     -50.920  12.058  23.698  0.00  0.00    -0.532 OA
ATOM     25  O   UNL d   1     -51.064  12.205  22.278  0.00  0.00    -0.532 OA
ENDBRANCH  19  23
BRANCH  22  26
ATOM     26  O   UNL d   1     -48.758  15.121  22.942  0.00  0.00    -0.327 OA
ATOM     27  C   UNL d   1     -49.088  15.871  22.834  0.00  0.00     0.181 C 
ENDBRANCH  22  26
ENDBRANCH   2  17
TORSDOF 5
ENDMDL
