MODEL 1
REMARK VINA RESULT:      -8.7      0.000      0.000
REMARK  5 active torsions:
REMARK  status: ('A' for Active; 'I' for Inactive)
REMARK    1  A    between atoms: N_5  and  C_1 
REMARK    2  A    between atoms: C_8  and  C_2 
REMARK       I    between atoms: C_7  and  N_5 
REMARK    3  A    between atoms: C_9  and  C_7 
REMARK    4  A    between atoms: O_16  and  C_8 
REMARK    5  A    between atoms: C_20  and  O_16 
ROOT
ATOM      1  C   UNL d   1      52.753  33.430  53.737  0.00  0.00     0.119 A 
ATOM      2  C   UNL d   1      53.314  32.816  53.744  0.00  0.00     0.088 A 
ATOM      3  S   UNL d   1      52.975  34.004  54.278  0.00  0.00    -0.068 SA
ATOM      4  C   UNL d   1      53.907  33.020  54.316  0.00  0.00     0.013 A 
ATOM      5  C   UNL d   1      53.680  33.757  54.635  0.00  0.00     0.031 A 
ATOM      6  C   UNL d   1      54.609  32.798  54.686  0.00  0.00     0.001 A 
ATOM      7  C   UNL d   1      54.264  33.981  55.214  0.00  0.00     0.006 A 
ATOM      8  C   UNL d   1      54.818  33.381  55.226  0.00  0.00     0.001 A 
ENDROOT
BRANCH   1   9
ATOM      9  N   UNL d   1      52.048  33.474  53.246  0.00  0.00    -0.201 NA
ATOM     10  C   UNL d   1      51.667  34.211  53.133  0.00  0.00     0.286 C 
ATOM     11  O   UNL d   1      51.935  34.903  53.471  0.00  0.00    -0.265 OA
BRANCH  10  12
ATOM     12  C   UNL d   1      50.976  34.257  52.653  0.00  0.00     0.087 A 
ATOM     13  S   UNL d   1      50.281  34.450  53.020  0.00  0.00    -0.082 SA
ATOM     14  C   UNL d   1      49.680  34.459  52.421  0.00  0.00     0.036 A 
ATOM     15  C   UNL d   1      50.030  34.273  51.721  0.00  0.00     0.008 A 
ATOM     16  C   UNL d   1      50.827  34.148  51.860  0.00  0.00     0.012 A 
ENDBRANCH  10  12
ENDBRANCH   1   9
BRANCH   2  17
ATOM     17  C   UNL d   1      53.310  32.128  53.286  0.00  0.00     0.302 C 
ATOM     18  O   UNL d   1      53.642  32.119  52.519  0.00  0.00    -0.259 OA
BRANCH  17  19
ATOM     19  O   UNL d   1      52.967  31.423  53.594  0.00  0.00    -0.271 OA
BRANCH  19  20
ATOM     20  C   UNL d   1      52.985  30.741  53.126  0.00  0.00     0.126 C 
ATOM     21  C   UNL d   1      52.752  30.024  53.437  0.00  0.00     0.029 C 
ENDBRANCH  19  20
ENDBRANCH  17  19
ENDBRANCH   2  17
TORSDOF 5
ENDMDL
MODEL 2
REMARK VINA RESULT:      -8.5      1.219      2.509
REMARK  5 active torsions:
REMARK  status: ('A' for Active; 'I' for Inactive)
REMARK    1  A    between atoms: N_5  and  C_1 
REMARK    2  A    between atoms: C_8  and  C_2 
REMARK       I    between atoms: C_7  and  N_5 
REMARK    3  A    between atoms: C_9  and  C_7 
REMARK    4  A    between atoms: O_16  and  C_8 
REMARK    5  A    between atoms: C_20  and  O_16 
ROOT
ATOM      1  C   UNL d   1      52.766  31.894  53.138  0.00  0.00     0.119 A 
ATOM      2  C   UNL d   1      53.505  31.744  53.488  0.00  0.00     0.088 A 
ATOM      3  S   UNL d   1      52.380  31.184  53.007  0.00  0.00    -0.068 SA
ATOM      4  C   UNL d   1      53.577  30.902  53.576  0.00  0.00     0.013 A 
ATOM      5  C   UNL d   1      52.873  30.574  53.273  0.00  0.00     0.031 A 
ATOM      6  C   UNL d   1      54.048  30.277  53.834  0.00  0.00     0.001 A 
ATOM      7  C   UNL d   1      52.924  29.727  53.352  0.00  0.00     0.006 A 
ATOM      8  C   UNL d   1      53.649  29.572  53.696  0.00  0.00     0.001 A 
ENDROOT
BRANCH   1   9
ATOM      9  N   UNL d   1      52.442  32.666  52.939  0.00  0.00    -0.201 NA
ATOM     10  C   UNL d   1      51.617  32.798  53.001  0.00  0.00     0.286 C 
ATOM     11  O   UNL d   1      51.095  32.221  53.245  0.00  0.00    -0.265 OA
BRANCH  10  12
ATOM     12  C   UNL d   1      51.297  33.553  52.806  0.00  0.00     0.087 A 
ATOM     13  S   UNL d   1      50.663  33.809  53.239  0.00  0.00    -0.082 SA
ATOM     14  C   UNL d   1      50.450  34.573  52.936  0.00  0.00     0.036 A 
ATOM     15  C   UNL d   1      50.959  34.748  52.338  0.00  0.00     0.008 A 
ATOM     16  C   UNL d   1      51.481  34.122  52.255  0.00  0.00     0.012 A 
ENDBRANCH  10  12
ENDBRANCH   1   9
BRANCH   2  17
ATOM     17  C   UNL d   1      54.075  32.298  53.715  0.00  0.00     0.302 C 
ATOM     18  O   UNL d   1      54.634  32.589  53.165  0.00  0.00    -0.259 OA
BRANCH  17  19
ATOM     19  O   UNL d   1      54.097  32.574  54.510  0.00  0.00    -0.271 OA
BRANCH  19  20
ATOM     20  C   UNL d   1      54.661  33.146  54.711  0.00  0.00     0.126 C 
ATOM     21  C   UNL d   1      54.678  33.456  55.465  0.00  0.00     0.029 C 
ENDBRANCH  19  20
ENDBRANCH  17  19
ENDBRANCH   2  17
TORSDOF 5
ENDMDL
MODEL 3
REMARK VINA RESULT:      -8.1      1.266      3.364
REMARK  5 active torsions:
REMARK  status: ('A' for Active; 'I' for Inactive)
REMARK    1  A    between atoms: N_5  and  C_1 
REMARK    2  A    between atoms: C_8  and  C_2 
REMARK       I    between atoms: C_7  and  N_5 
REMARK    3  A    between atoms: C_9  and  C_7 
REMARK    4  A    between atoms: O_16  and  C_8 
REMARK    5  A    between atoms: C_20  and  O_16 
ROOT
ATOM      1  C   UNL d   1      52.862  33.372  53.782  0.00  0.00     0.119 A 
ATOM      2  C   UNL d   1      52.497  34.068  53.511  0.00  0.00     0.088 A 
ATOM      3  S   UNL d   1      53.377  33.557  54.392  0.00  0.00    -0.068 SA
ATOM      4  C   UNL d   1      52.801  34.712  53.975  0.00  0.00     0.013 A 
ATOM      5  C   UNL d   1      53.343  34.376  54.513  0.00  0.00     0.031 A 
ATOM      6  C   UNL d   1      52.785  35.523  54.116  0.00  0.00     0.001 A 
ATOM      7  C   UNL d   1      53.660  35.007  54.990  0.00  0.00     0.006 A 
ATOM      8  C   UNL d   1      53.305  35.694  54.729  0.00  0.00     0.001 A 
ENDROOT
BRANCH   1   9
ATOM      9  N   UNL d   1      52.733  32.576  53.482  0.00  0.00    -0.201 NA
ATOM     10  C   UNL d   1      53.255  31.960  53.704  0.00  0.00     0.286 C 
ATOM     11  O   UNL d   1      53.892  32.078  54.199  0.00  0.00    -0.265 OA
BRANCH  10  12
ATOM     12  C   UNL d   1      53.131  31.179  53.412  0.00  0.00     0.087 A 
ATOM     13  S   UNL d   1      53.555  30.583  53.757  0.00  0.00    -0.082 SA
ATOM     14  C   UNL d   1      53.330  29.863  53.367  0.00  0.00     0.036 A 
ATOM     15  C   UNL d   1      52.784  30.050  52.806  0.00  0.00     0.008 A 
ATOM     16  C   UNL d   1      52.659  30.859  52.831  0.00  0.00     0.012 A 
ENDBRANCH  10  12
ENDBRANCH   1   9
BRANCH   2  17
ATOM     17  C   UNL d   1      51.940  34.139  52.904  0.00  0.00     0.302 C 
ATOM     18  O   UNL d   1      52.180  34.251  52.111  0.00  0.00    -0.259 OA
BRANCH  17  19
ATOM     19  O   UNL d   1      51.118  34.099  53.084  0.00  0.00    -0.271 OA
BRANCH  19  20
ATOM     20  C   UNL d   1      50.576  34.229  52.472  0.00  0.00     0.126 C 
ATOM     21  C   UNL d   1      49.790  34.356  52.643  0.00  0.00     0.029 C 
ENDBRANCH  19  20
ENDBRANCH  17  19
ENDBRANCH   2  17
TORSDOF 5
ENDMDL
MODEL 4
REMARK VINA RESULT:      -8.1      1.526      3.805
REMARK  5 active torsions:
REMARK  status: ('A' for Active; 'I' for Inactive)
REMARK    1  A    between atoms: N_5  and  C_1 
REMARK    2  A    between atoms: C_8  and  C_2 
REMARK       I    between atoms: C_7  and  N_5 
REMARK    3  A    between atoms: C_9  and  C_7 
REMARK    4  A    between atoms: O_16  and  C_8 
REMARK    5  A    between atoms: C_20  and  O_16 
ROOT
ATOM      1  C   UNL d   1      52.727  32.650  53.495  0.00  0.00     0.119 A 
ATOM      2  C   UNL d   1      52.953  33.374  53.838  0.00  0.00     0.088 A 
ATOM      3  S   UNL d   1      52.223  32.796  52.865  0.00  0.00    -0.068 SA
ATOM      4  C   UNL d   1      52.571  33.993  53.398  0.00  0.00     0.013 A 
ATOM      5  C   UNL d   1      52.125  33.616  52.803  0.00  0.00     0.031 A 
ATOM      6  C   UNL d   1      52.457  34.804  53.315  0.00  0.00     0.001 A 
ATOM      7  C   UNL d   1      51.732  34.221  52.349  0.00  0.00     0.006 A 
ATOM      8  C   UNL d   1      51.950  34.934  52.681  0.00  0.00     0.001 A 
ENDROOT
BRANCH   1   9
ATOM      9  N   UNL d   1      52.972  31.866  53.748  0.00  0.00    -0.201 NA
ATOM     10  C   UNL d   1      52.917  31.222  53.215  0.00  0.00     0.286 C 
ATOM     11  O   UNL d   1      52.636  31.303  52.453  0.00  0.00    -0.265 OA
BRANCH  10  12
ATOM     12  C   UNL d   1      53.156  30.452  53.460  0.00  0.00     0.087 A 
ATOM     13  S   UNL d   1      52.578  29.892  53.540  0.00  0.00    -0.082 SA
ATOM     14  C   UNL d   1      52.961  29.176  53.788  0.00  0.00     0.036 A 
ATOM     15  C   UNL d   1      53.749  29.329  53.848  0.00  0.00     0.008 A 
ATOM     16  C   UNL d   1      53.872  30.113  53.647  0.00  0.00     0.012 A 
ENDBRANCH  10  12
ENDBRANCH   1   9
BRANCH   2  17
ATOM     17  C   UNL d   1      53.455  33.488  54.484  0.00  0.00     0.302 C 
ATOM     18  O   UNL d   1      53.154  33.505  55.264  0.00  0.00    -0.259 OA
BRANCH  17  19
ATOM     19  O   UNL d   1      54.282  33.588  54.359  0.00  0.00    -0.271 OA
BRANCH  19  20
ATOM     20  C   UNL d   1      54.766  33.706  55.020  0.00  0.00     0.126 C 
ATOM     21  C   UNL d   1      55.566  33.830  54.923  0.00  0.00     0.029 C 
ENDBRANCH  19  20
ENDBRANCH  17  19
ENDBRANCH   2  17
TORSDOF 5
ENDMDL
MODEL 5
REMARK VINA RESULT:      -6.9      1.628      3.800
REMARK  5 active torsions:
REMARK  status: ('A' for Active; 'I' for Inactive)
REMARK    1  A    between atoms: N_5  and  C_1 
REMARK    2  A    between atoms: C_8  and  C_2 
REMARK       I    between atoms: C_7  and  N_5 
REMARK    3  A    between atoms: C_9  and  C_7 
REMARK    4  A    between atoms: O_16  and  C_8 
REMARK    5  A    between atoms: C_20  and  O_16 
ROOT
ATOM      1  C   UNL d   1      53.593  31.718  53.715  0.00  0.00     0.119 A 
ATOM      2  C   UNL d   1      52.920  31.626  53.234  0.00  0.00     0.088 A 
ATOM      3  S   UNL d   1      53.845  30.982  53.970  0.00  0.00    -0.068 SA
ATOM      4  C   UNL d   1      52.751  30.795  53.191  0.00  0.00     0.013 A 
ATOM      5  C   UNL d   1      53.332  30.414  53.652  0.00  0.00     0.031 A 
ATOM      6  C   UNL d   1      52.256  30.210  52.888  0.00  0.00     0.001 A 
ATOM      7  C   UNL d   1      53.180  29.576  53.623  0.00  0.00     0.006 A 
ATOM      8  C   UNL d   1      52.521  29.479  53.151  0.00  0.00     0.001 A 
ENDROOT
BRANCH   1   9
ATOM      9  N   UNL d   1      53.976  32.460  53.922  0.00  0.00    -0.201 NA
ATOM     10  C   UNL d   1      54.199  32.604  54.716  0.00  0.00     0.286 C 
ATOM     11  O   UNL d   1      54.068  32.065  55.316  0.00  0.00    -0.265 OA
BRANCH  10  12
ATOM     12  C   UNL d   1      54.574  33.329  54.923  0.00  0.00     0.087 A 
ATOM     13  S   UNL d   1      54.142  33.861  55.353  0.00  0.00    -0.082 SA
ATOM     14  C   UNL d   1      54.641  34.535  55.485  0.00  0.00     0.036 A 
ATOM     15  C   UNL d   1      55.349  34.386  55.134  0.00  0.00     0.008 A 
ATOM     16  C   UNL d   1      55.312  33.645  54.787  0.00  0.00     0.012 A 
ENDBRANCH  10  12
ENDBRANCH   1   9
BRANCH   2  17
ATOM     17  C   UNL d   1      52.486  32.221  52.860  0.00  0.00     0.302 C 
ATOM     18  O   UNL d   1      52.739  32.546  52.132  0.00  0.00    -0.259 OA
BRANCH  17  19
ATOM     19  O   UNL d   1      51.777  32.507  53.214  0.00  0.00    -0.271 OA
BRANCH  19  20
ATOM     20  C   UNL d   1      51.390  33.145  52.856  0.00  0.00     0.126 C 
ATOM     21  C   UNL d   1      50.765  33.508  53.233  0.00  0.00     0.029 C 
ENDBRANCH  19  20
ENDBRANCH  17  19
ENDBRANCH   2  17
TORSDOF 5
ENDMDL
MODEL 6
REMARK VINA RESULT:      -6.8      1.007      3.478
REMARK  5 active torsions:
REMARK  status: ('A' for Active; 'I' for Inactive)
REMARK    1  A    between atoms: N_5  and  C_1 
REMARK    2  A    between atoms: C_8  and  C_2 
REMARK       I    between atoms: C_7  and  N_5 
REMARK    3  A    between atoms: C_9  and  C_7 
REMARK    4  A    between atoms: O_16  and  C_8 
REMARK    5  A    between atoms: C_20  and  O_16 
ROOT
ATOM      1  C   UNL d   1      52.543  33.690  53.485  0.00  0.00     0.119 A 
ATOM      2  C   UNL d   1      52.122  33.142  53.021  0.00  0.00     0.088 A 
ATOM      3  S   UNL d   1      52.086  34.361  53.591  0.00  0.00    -0.068 SA
ATOM      4  C   UNL d   1      51.371  33.493  52.833  0.00  0.00     0.013 A 
ATOM      5  C   UNL d   1      51.368  34.245  53.194  0.00  0.00     0.031 A 
ATOM      6  C   UNL d   1      50.650  33.403  52.446  0.00  0.00     0.001 A 
ATOM      7  C   UNL d   1      50.621  34.616  53.017  0.00  0.00     0.006 A 
ATOM      8  C   UNL d   1      50.203  34.083  52.561  0.00  0.00     0.001 A 
ENDROOT
BRANCH   1   9
ATOM      9  N   UNL d   1      53.332  33.585  53.810  0.00  0.00    -0.201 NA
ATOM     10  C   UNL d   1      53.548  33.986  54.513  0.00  0.00     0.286 C 
ATOM     11  O   UNL d   1      53.037  34.481  54.914  0.00  0.00    -0.265 OA
BRANCH  10  12
ATOM     12  C   UNL d   1      54.320  33.885  54.834  0.00  0.00     0.087 A 
ATOM     13  S   UNL d   1      54.373  33.664  55.611  0.00  0.00    -0.082 SA
ATOM     14  C   UNL d   1      55.199  33.602  55.794  0.00  0.00     0.036 A 
ATOM     15  C   UNL d   1      55.611  33.786  55.128  0.00  0.00     0.008 A 
ATOM     16  C   UNL d   1      55.073  33.960  54.535  0.00  0.00     0.012 A 
ENDBRANCH  10  12
ENDBRANCH   1   9
BRANCH   2  17
ATOM     17  C   UNL d   1      52.372  32.393  52.779  0.00  0.00     0.302 C 
ATOM     18  O   UNL d   1      52.832  32.295  52.088  0.00  0.00    -0.259 OA
BRANCH  17  19
ATOM     19  O   UNL d   1      52.162  31.715  53.234  0.00  0.00    -0.271 OA
BRANCH  19  20
ATOM     20  C   UNL d   1      52.469  30.981  53.007  0.00  0.00     0.126 C 
ATOM     21  C   UNL d   1      52.350  30.325  53.476  0.00  0.00     0.029 C 
ENDBRANCH  19  20
ENDBRANCH  17  19
ENDBRANCH   2  17
TORSDOF 5
ENDMDL
