MODEL 1
REMARK VINA RESULT:       2.9      0.000      0.000
REMARK  8 active torsions:
REMARK  status: ('A' for Active; 'I' for Inactive)
REMARK    1  A    between atoms: C_6  and  C_1 
REMARK    2  A    between atoms: C_8  and  N_3 
REMARK    3  A    between atoms: C_7  and  C_6 
REMARK    4  A    between atoms: C_9  and  C_7 
REMARK    5  A    between atoms: C_14  and  C_8 
REMARK    6  A    between atoms: C_17  and  C_14 
REMARK    7  A    between atoms: C_15  and  C_16 
REMARK    8  A    between atoms: C_16  and  C_17 
ROOT
ATOM      1  C   UNL d   1     -41.652-123.226 -51.648  0.00  0.00     0.148 A 
ATOM      2  N   UNL d   1     -41.796-123.815 -52.355  0.00  0.00    -0.227 NA
ATOM      3  N   UNL d   1     -41.415-122.412 -52.020  0.00  0.00    -0.289 N 
ATOM      4  C   UNL d   1     -41.410-122.489 -52.942  0.00  0.00     0.083 A 
ATOM      5  C   UNL d   1     -41.651-123.377 -53.154  0.00  0.00     0.099 A 
ATOM      6  C   UNL d   1     -41.221-121.878 -53.619  0.00  0.00     0.019 A 
ATOM      7  C   UNL d   1     -41.696-123.627 -54.037  0.00  0.00     0.021 A 
ATOM      8  C   UNL d   1     -41.274-122.155 -54.495  0.00  0.00     0.002 A 
ATOM      9  C   UNL d   1     -41.515-123.043 -54.708  0.00  0.00     0.002 A 
ENDROOT
BRANCH   1  10
ATOM     10  C   UNL d   1     -41.615-123.017 -50.899  0.00  0.00     0.037 C 
BRANCH  10  11
ATOM     11  C   UNL d   1     -41.720-123.534 -50.274  0.00  0.00     0.003 C 
BRANCH  11  12
ATOM     12  C   UNL d   1     -41.946-123.294 -49.513  0.00  0.00     0.000 A 
ATOM     13  C   UNL d   1     -42.726-123.124 -49.336  0.00  0.00     0.000 A 
ATOM     14  C   UNL d   1     -42.944-122.887 -48.582  0.00  0.00     0.000 A 
ATOM     15  C   UNL d   1     -42.363-122.818 -47.989  0.00  0.00     0.000 A 
ATOM     16  C   UNL d   1     -41.581-122.988 -48.168  0.00  0.00     0.000 A 
ATOM     17  C   UNL d   1     -41.365-123.225 -48.920  0.00  0.00     0.000 A 
ENDBRANCH  11  12
ENDBRANCH  10  11
ENDBRANCH   1  10
BRANCH   3  18
ATOM     18  C   UNL d   1     -41.202-121.673 -52.258  0.00  0.00     0.082 C 
BRANCH  18  19
ATOM     19  C   UNL d   1     -41.270-121.040 -51.744  0.00  0.00     0.019 C 
BRANCH  19  20
ATOM     20  C   UNL d   1     -41.351-120.280 -52.029  0.00  0.00     0.002 C 
BRANCH  20  21
ATOM     21  C   UNL d   1     -41.124-119.630 -51.574  0.00  0.00     0.000 C 
BRANCH  21  22
ATOM     22  C   UNL d   1     -41.327-118.864 -51.794  0.00  0.00     0.000 C 
ATOM     23  C   UNL d   1     -41.123-118.217 -51.325  0.00  0.00     0.000 C 
ENDBRANCH  21  22
ENDBRANCH  20  21
ENDBRANCH  19  20
ENDBRANCH  18  19
ENDBRANCH   3  18
TORSDOF 8
ENDMDL
