MODEL 1
REMARK VINA RESULT:      44.6      0.000      0.000
REMARK  3 active torsions:
REMARK  status: ('A' for Active; 'I' for Inactive)
REMARK    1  A    between atoms: N_10  and  C_3 
REMARK    2  A    between atoms: C_11  and  C_5 
REMARK    3  A    between atoms: C_12  and  C_9 
ROOT
ATOM      1  N   UNL d   1      14.300  14.452  -2.267  0.00  0.00    -0.196 N 
ATOM      2  C   UNL d   1      14.078  13.764  -2.687  0.00  0.00     0.167 A 
ATOM      3  C   UNL d   1      14.680  14.375  -1.542  0.00  0.00     0.152 A 
ATOM      4  N   UNL d   1      13.753  15.265  -3.313  0.00  0.00    -0.163 NA
ATOM      5  C   UNL d   1      13.701  13.831  -3.405  0.00  0.00     0.055 A 
ATOM      6  N   UNL d   1      14.244  13.023  -2.366  0.00  0.00    -0.227 NA
ATOM      7  C   UNL d   1      14.848  13.606  -1.220  0.00  0.00     0.057 A 
ATOM      8  C   UNL d   1      13.531  14.577  -3.732  0.00  0.00     0.104 A 
ATOM      9  C   UNL d   1      14.623  12.953  -1.645  0.00  0.00     0.086 A 
ATOM     10  C   UNL d   1      13.156  14.642  -4.448  0.00  0.00     0.023 C 
ENDROOT
BRANCH   5  11
ATOM     11  C   UNL d   1      13.477  13.135  -3.829  0.00  0.00     0.004 A 
ATOM     12  C   UNL d   1      12.989  12.576  -3.471  0.00  0.00     0.000 A 
ATOM     13  C   UNL d   1      12.769  11.891  -3.889  0.00  0.00     0.000 A 
ATOM     14  C   UNL d   1      13.040  11.779  -4.655  0.00  0.00     0.000 A 
ATOM     15  C   UNL d   1      13.532  12.346  -5.013  0.00  0.00     0.000 A 
ATOM     16  C   UNL d   1      13.745  13.018  -4.595  0.00  0.00     0.000 A 
ENDBRANCH   5  11
BRANCH   3  17
ATOM     17  N   UNL d   1      14.910  15.078  -1.108  0.00  0.00    -0.289 N 
ATOM     18  C   UNL d   1      15.190  15.006  -0.415  0.00  0.00     0.082 A 
ATOM     19  C   UNL d   1      15.391  15.632  -0.038  0.00  0.00     0.021 A 
ATOM     20  C   UNL d   1      15.029  16.363  -1.043  0.00  0.00     0.021 A 
ATOM     21  C   UNL d   1      14.829  15.737  -1.420  0.00  0.00     0.082 A 
ENDBRANCH   3  17
BRANCH   9  22
ATOM     22  C   UNL d   1      14.796  12.170  -1.312  0.00  0.00     0.018 C 
ATOM     23  C   UNL d   1      14.204  11.784  -0.802  0.00  0.00     0.002 C 
ATOM     24  C   UNL d   1      15.548  11.780  -1.485  0.00  0.00     0.002 C 
ENDBRANCH   9  22
TORSDOF 3
ENDMDL
