MODEL 1
REMARK VINA RESULT:      -3.5      0.000      0.000
REMARK  5 active torsions:
REMARK  status: ('A' for Active; 'I' for Inactive)
REMARK    1  A    between atoms: N_5  and  C_1 
REMARK    2  A    between atoms: N_6  and  C_1 
REMARK       I    between atoms: C_2  and  N_3 
REMARK    3  A    between atoms: C_4  and  C_2 
REMARK    4  A    between atoms: N_3  and  N_5 
REMARK    5  A    between atoms: C_10  and  N_6 
ROOT
ATOM      1  C   UNL d   1      31.994  17.349 -23.625  0.00  0.00     0.272 C 
ATOM      2  N   UNL d   1      31.203  17.321 -23.839  0.00  0.00    -0.264 N 
ATOM      3  O   UNL d   1      32.380  16.679 -23.359  0.00  0.00    -0.266 OA
ATOM      4  H   UNL d   1      30.824  18.015 -24.108  0.00  0.00     0.190 HD
ENDROOT
BRANCH   2   5
ATOM      5  N   UNL d   1      30.790  16.627 -23.791  0.00  0.00    -0.274 N 
ATOM      6  H   UNL d   1      31.182  15.922 -23.576  0.00  0.00     0.189 HD
BRANCH   5   7
ATOM      7  C   UNL d   1      29.981  16.620 -23.955  0.00  0.00     0.187 C 
ATOM      8  S   UNL d   1      29.714  16.665 -24.732  0.00  0.00    -0.040 SA
BRANCH   7   9
ATOM      9  N   UNL d   1      29.448  16.569 -23.334  0.00  0.00    -0.354 N 
ATOM     10  H   UNL d   1      29.640  16.888 -22.607  0.00  0.00     0.162 HD
BRANCH   9  11
ATOM     11  C   UNL d   1      28.723  16.192 -23.456  0.00  0.00     0.063 C 
ATOM     12  C   UNL d   1      28.004  15.805 -23.576  0.00  0.00     0.022 C 
ATOM     13  C   UNL d   1      28.366  16.905 -23.635  0.00  0.00     0.022 C 
ATOM     14  C   UNL d   1      29.080  15.459 -23.275  0.00  0.00     0.022 C 
ENDBRANCH   9  11
ENDBRANCH   7   9
ENDBRANCH   5   7
ENDBRANCH   2   5
BRANCH   1  15
ATOM     15  C   UNL d   1      32.411  18.059 -23.675  0.00  0.00     0.058 A 
ATOM     16  C   UNL d   1      32.616  18.470 -22.977  0.00  0.00     0.011 A 
ATOM     17  C   UNL d   1      33.026  19.168 -23.035  0.00  0.00     0.035 A 
ATOM     18 BR   UNL d   1      33.224  19.567 -22.362  0.00  0.00    -0.049 Br
ATOM     19  C   UNL d   1      33.241  19.472 -23.769  0.00  0.00     0.007 A 
ATOM     20  C   UNL d   1      33.045  19.074 -24.472  0.00  0.00     0.001 A 
ATOM     21  C   UNL d   1      32.627  18.363 -24.409  0.00  0.00     0.005 A 
ENDBRANCH   1  15
TORSDOF 5
ENDMDL
MODEL 2
REMARK VINA RESULT:      -3.3      2.947      4.074
REMARK  5 active torsions:
REMARK  status: ('A' for Active; 'I' for Inactive)
REMARK    1  A    between atoms: N_5  and  C_1 
REMARK    2  A    between atoms: N_6  and  C_1 
REMARK       I    between atoms: C_2  and  N_3 
REMARK    3  A    between atoms: C_4  and  C_2 
REMARK    4  A    between atoms: N_3  and  N_5 
REMARK    5  A    between atoms: C_10  and  N_6 
ROOT
ATOM      1  C   UNL d   1      32.894  20.462 -21.458  0.00  0.00     0.272 C 
ATOM      2  N   UNL d   1      32.808  20.069 -22.173  0.00  0.00    -0.264 N 
ATOM      3  O   UNL d   1      33.157  20.067 -20.793  0.00  0.00    -0.266 OA
ATOM      4  H   UNL d   1      32.539  20.487 -22.844  0.00  0.00     0.190 HD
ENDROOT
BRANCH   2   5
ATOM      5  N   UNL d   1      32.983  19.280 -22.230  0.00  0.00    -0.274 N 
ATOM      6  H   UNL d   1      33.291  18.872 -21.571  0.00  0.00     0.189 HD
BRANCH   5   7
ATOM      7  C   UNL d   1      32.854  18.884 -22.943  0.00  0.00     0.187 C 
ATOM      8  S   UNL d   1      33.241  19.125 -23.629  0.00  0.00    -0.040 SA
BRANCH   7   9
ATOM      9  N   UNL d   1      32.336  18.248 -22.959  0.00  0.00    -0.354 N 
ATOM     10  H   UNL d   1      31.707  18.224 -22.438  0.00  0.00     0.162 HD
BRANCH   9  11
ATOM     11  C   UNL d   1      32.462  17.641 -23.504  0.00  0.00     0.063 C 
ATOM     12  C   UNL d   1      32.596  17.029 -24.041  0.00  0.00     0.022 C 
ATOM     13  C   UNL d   1      31.909  17.963 -24.013  0.00  0.00     0.022 C 
ATOM     14  C   UNL d   1      33.029  17.305 -22.990  0.00  0.00     0.022 C 
ENDBRANCH   9  11
ENDBRANCH   7   9
ENDBRANCH   5   7
ENDBRANCH   2   5
BRANCH   1  15
ATOM     15  C   UNL d   1      32.715  21.266 -21.405  0.00  0.00     0.058 A 
ATOM     16  C   UNL d   1      33.075  21.806 -21.931  0.00  0.00     0.011 A 
ATOM     17  C   UNL d   1      32.894  22.595 -21.872  0.00  0.00     0.035 A 
ATOM     18 BR   UNL d   1      33.240  23.119 -22.379  0.00  0.00    -0.049 Br
ATOM     19  C   UNL d   1      32.364  22.866 -21.304  0.00  0.00     0.007 A 
ATOM     20  C   UNL d   1      31.998  22.339 -20.774  0.00  0.00     0.001 A 
ATOM     21  C   UNL d   1      32.185  21.536 -20.837  0.00  0.00     0.005 A 
ENDBRANCH   1  15
TORSDOF 5
ENDMDL
MODEL 3
REMARK VINA RESULT:      -3.2      2.409      3.311
REMARK  5 active torsions:
REMARK  status: ('A' for Active; 'I' for Inactive)
REMARK    1  A    between atoms: N_5  and  C_1 
REMARK    2  A    between atoms: N_6  and  C_1 
REMARK       I    between atoms: C_2  and  N_3 
REMARK    3  A    between atoms: C_4  and  C_2 
REMARK    4  A    between atoms: N_3  and  N_5 
REMARK    5  A    between atoms: C_10  and  N_6 
ROOT
ATOM      1  C   UNL d   1      32.929  19.880 -21.909  0.00  0.00     0.272 C 
ATOM      2  N   UNL d   1      32.662  19.511 -22.591  0.00  0.00    -0.264 N 
ATOM      3  O   UNL d   1      33.239  19.443 -21.292  0.00  0.00    -0.266 OA
ATOM      4  H   UNL d   1      32.348  19.972 -23.213  0.00  0.00     0.190 HD
ENDROOT
BRANCH   2   5
ATOM      5  N   UNL d   1      32.701  18.706 -22.664  0.00  0.00    -0.274 N 
ATOM      6  H   UNL d   1      33.014  18.246 -22.043  0.00  0.00     0.189 HD
BRANCH   5   7
ATOM      7  C   UNL d   1      32.429  18.344 -23.355  0.00  0.00     0.187 C 
ATOM      8  S   UNL d   1      32.809  18.480 -24.072  0.00  0.00    -0.040 SA
BRANCH   7   9
ATOM      9  N   UNL d   1      31.777  17.848 -23.316  0.00  0.00    -0.354 N 
ATOM     10  H   UNL d   1      31.198  17.982 -22.755  0.00  0.00     0.162 HD
BRANCH   9  11
ATOM     11  C   UNL d   1      31.718  17.219 -23.848  0.00  0.00     0.063 C 
ATOM     12  C   UNL d   1      31.666  16.584 -24.372  0.00  0.00     0.022 C 
ATOM     13  C   UNL d   1      31.244  17.664 -24.344  0.00  0.00     0.022 C 
ATOM     14  C   UNL d   1      32.201  16.757 -23.346  0.00  0.00     0.022 C 
ENDBRANCH   9  11
ENDBRANCH   7   9
ENDBRANCH   5   7
ENDBRANCH   2   5
BRANCH   1  15
ATOM     15  C   UNL d   1      32.888  20.701 -21.840  0.00  0.00     0.058 A 
ATOM     16  C   UNL d   1      32.485  21.042 -21.192  0.00  0.00     0.011 A 
ATOM     17  C   UNL d   1      32.449  21.850 -21.131  0.00  0.00     0.035 A 
ATOM     18 BR   UNL d   1      32.061  22.182 -20.506  0.00  0.00    -0.049 Br
ATOM     19  C   UNL d   1      32.801  22.334 -21.696  0.00  0.00     0.007 A 
ATOM     20  C   UNL d   1      33.205  22.008 -22.346  0.00  0.00     0.001 A 
ATOM     21  C   UNL d   1      33.240  21.184 -22.405  0.00  0.00     0.005 A 
ENDBRANCH   1  15
TORSDOF 5
ENDMDL
MODEL 4
REMARK VINA RESULT:      -3.2      3.001      4.742
REMARK  5 active torsions:
REMARK  status: ('A' for Active; 'I' for Inactive)
REMARK    1  A    between atoms: N_5  and  C_1 
REMARK    2  A    between atoms: N_6  and  C_1 
REMARK       I    between atoms: C_2  and  N_3 
REMARK    3  A    between atoms: C_4  and  C_2 
REMARK    4  A    between atoms: N_3  and  N_5 
REMARK    5  A    between atoms: C_10  and  N_6 
ROOT
ATOM      1  C   UNL d   1      32.946  18.999 -23.217  0.00  0.00     0.272 C 
ATOM      2  N   UNL d   1      32.857  19.340 -22.477  0.00  0.00    -0.264 N 
ATOM      3  O   UNL d   1      33.241  19.431 -23.845  0.00  0.00    -0.266 OA
ATOM      4  H   UNL d   1      32.555  18.884 -21.846  0.00  0.00     0.190 HD
ENDROOT
BRANCH   2   5
ATOM      5  N   UNL d   1      33.061  20.114 -22.356  0.00  0.00    -0.274 N 
ATOM      6  H   UNL d   1      33.454  20.541 -22.955  0.00  0.00     0.189 HD
BRANCH   5   7
ATOM      7  C   UNL d   1      32.877  20.478 -21.637  0.00  0.00     0.187 C 
ATOM      8  S   UNL d   1      33.241  20.231 -20.942  0.00  0.00    -0.040 SA
BRANCH   7   9
ATOM      9  N   UNL d   1      32.328  21.087 -21.627  0.00  0.00    -0.354 N 
ATOM     10  H   UNL d   1      31.670  21.048 -22.110  0.00  0.00     0.162 HD
BRANCH   9  11
ATOM     11  C   UNL d   1      32.452  21.731 -21.125  0.00  0.00     0.063 C 
ATOM     12  C   UNL d   1      32.568  22.370 -20.616  0.00  0.00     0.022 C 
ATOM     13  C   UNL d   1      32.964  22.071 -21.664  0.00  0.00     0.022 C 
ATOM     14  C   UNL d   1      31.929  21.391 -20.569  0.00  0.00     0.022 C 
ENDBRANCH   9  11
ENDBRANCH   7   9
ENDBRANCH   5   7
ENDBRANCH   2   5
BRANCH   1  15
ATOM     15  C   UNL d   1      32.738  18.209 -23.336  0.00  0.00     0.058 A 
ATOM     16  C   UNL d   1      32.014  18.024 -23.709  0.00  0.00     0.011 A 
ATOM     17  C   UNL d   1      31.816  17.245 -23.823  0.00  0.00     0.035 A 
ATOM     18 BR   UNL d   1      31.117  17.063 -24.183  0.00  0.00    -0.049 Br
ATOM     19  C   UNL d   1      32.317  16.641 -23.575  0.00  0.00     0.007 A 
ATOM     20  C   UNL d   1      33.040  16.811 -23.202  0.00  0.00     0.001 A 
ATOM     21  C   UNL d   1      33.239  17.605 -23.088  0.00  0.00     0.005 A 
ENDBRANCH   1  15
TORSDOF 5
ENDMDL
MODEL 5
REMARK VINA RESULT:      -2.3      1.930      4.246
REMARK  5 active torsions:
REMARK  status: ('A' for Active; 'I' for Inactive)
REMARK    1  A    between atoms: N_5  and  C_1 
REMARK    2  A    between atoms: N_6  and  C_1 
REMARK       I    between atoms: C_2  and  N_3 
REMARK    3  A    between atoms: C_4  and  C_2 
REMARK    4  A    between atoms: N_3  and  N_5 
REMARK    5  A    between atoms: C_10  and  N_6 
ROOT
ATOM      1  C   UNL d   1      30.934  16.195 -23.681  0.00  0.00     0.272 C 
ATOM      2  N   UNL d   1      31.318  16.890 -23.887  0.00  0.00    -0.264 N 
ATOM      3  O   UNL d   1      31.269  15.674 -23.148  0.00  0.00    -0.266 OA
ATOM      4  H   UNL d   1      30.963  17.411 -24.433  0.00  0.00     0.190 HD
ENDROOT
BRANCH   2   5
ATOM      5  N   UNL d   1      32.038  17.072 -23.563  0.00  0.00    -0.274 N 
ATOM      6  H   UNL d   1      32.424  16.521 -23.070  0.00  0.00     0.189 HD
BRANCH   5   7
ATOM      7  C   UNL d   1      32.385  17.803 -23.723  0.00  0.00     0.187 C 
ATOM      8  S   UNL d   1      32.962  17.871 -24.306  0.00  0.00    -0.040 SA
BRANCH   7   9
ATOM      9  N   UNL d   1      32.148  18.460 -23.294  0.00  0.00    -0.354 N 
ATOM     10  H   UNL d   1      31.377  18.516 -23.030  0.00  0.00     0.162 HD
BRANCH   9  11
ATOM     11  C   UNL d   1      32.697  19.057 -23.136  0.00  0.00     0.063 C 
ATOM     12  C   UNL d   1      33.241  19.659 -22.988  0.00  0.00     0.022 C 
ATOM     13  C   UNL d   1      32.961  18.659 -22.473  0.00  0.00     0.022 C 
ATOM     14  C   UNL d   1      32.433  19.471 -23.812  0.00  0.00     0.022 C 
ENDBRANCH   9  11
ENDBRANCH   7   9
ENDBRANCH   5   7
ENDBRANCH   2   5
BRANCH   1  15
ATOM     15  C   UNL d   1      30.201  16.014 -24.014  0.00  0.00     0.058 A 
ATOM     16  C   UNL d   1      29.501  16.212 -23.604  0.00  0.00     0.011 A 
ATOM     17  C   UNL d   1      28.783  16.031 -23.938  0.00  0.00     0.035 A 
ATOM     18 BR   UNL d   1      28.105  16.222 -23.545  0.00  0.00    -0.049 Br
ATOM     19  C   UNL d   1      28.740  15.658 -24.670  0.00  0.00     0.007 A 
ATOM     20  C   UNL d   1      29.429  15.455 -25.089  0.00  0.00     0.001 A 
ATOM     21  C   UNL d   1      30.158  15.640 -24.746  0.00  0.00     0.005 A 
ENDBRANCH   1  15
TORSDOF 5
ENDMDL
