MODEL 1
REMARK VINA RESULT:       0.3      0.000      0.000
REMARK  6 active torsions:
REMARK  status: ('A' for Active; 'I' for Inactive)
REMARK    1  A    between atoms: S_10  and  C_4 
REMARK    2  A    between atoms: C_16  and  S_10 
REMARK    3  A    between atoms: C_11  and  C_14 
REMARK    4  A    between atoms: O_20  and  C_13 
REMARK    5  A    between atoms: C_14  and  C_16 
REMARK    6  A    between atoms: O_21  and  C_15 
ROOT
ATOM      1  C   UNL d   1     -42.162-122.347 -51.235  0.00  0.00     0.079 C 
ENDROOT
BRANCH   1   2
ATOM      2  C   UNL d   1     -41.946-122.813 -51.884  0.00  0.00     0.202 C 
ATOM      3  O   UNL d   1     -41.812-123.633 -51.775  0.00  0.00    -0.286 OA
BRANCH   2   4
ATOM      4  C   UNL d   1     -41.862-122.482 -52.640  0.00  0.00     0.042 A 
ATOM      5  C   UNL d   1     -41.754-122.965 -53.307  0.00  0.00     0.029 A 
ATOM      6  C   UNL d   1     -41.670-122.624 -54.062  0.00  0.00     0.116 A 
ATOM      7  C   UNL d   1     -41.694-121.801 -54.139  0.00  0.00     0.116 A 
ATOM      8  C   UNL d   1     -41.800-121.321 -53.487  0.00  0.00     0.026 A 
ATOM      9  C   UNL d   1     -41.884-121.662 -52.730  0.00  0.00     0.005 A 
BRANCH   6  10
ATOM     10  O   UNL d   1     -41.562-123.103 -54.728  0.00  0.00    -0.326 OA
ATOM     11  C   UNL d   1     -41.123-123.809 -54.660  0.00  0.00     0.181 C 
ENDBRANCH   6  10
BRANCH   7  12
ATOM     12  O   UNL d   1     -41.610-121.453 -54.895  0.00  0.00    -0.326 OA
ATOM     13  C   UNL d   1     -42.123-120.835 -55.121  0.00  0.00     0.181 C 
ENDBRANCH   7  12
ENDBRANCH   2   4
ENDBRANCH   1   2
BRANCH   1  14
ATOM     14  S   UNL d   1     -42.265-122.690 -50.496  0.00  0.00    -0.063 SA
BRANCH  14  15
ATOM     15  C   UNL d   1     -42.656-122.981 -49.816  0.00  0.00     0.132 A 
ATOM     16  N   UNL d   1     -42.285-122.982 -49.132  0.00  0.00    -0.050 N 
ATOM     17  C   UNL d   1     -42.660-123.257 -48.495  0.00  0.00     0.753 A 
ATOM     18  N   UNL d   1     -41.184-122.718 -48.385  0.00  0.00    -0.130 NA
ATOM     19  N   UNL d   1     -42.301-123.265 -47.800  0.00  0.00    -0.038 NA
ATOM     20  N   UNL d   1     -43.389-123.522 -48.557  0.00  0.00    -0.059 NA
ATOM     21  C   UNL d   1     -41.558-122.992 -47.752  0.00  0.00     0.201 A 
ATOM     22  C   UNL d   1     -41.183-122.994 -47.056  0.00  0.00     0.044 C 
ATOM     23  C   UNL d   1     -43.757-123.518 -49.248  0.00  0.00     0.102 A 
ATOM     24  C   UNL d   1     -43.384-123.244 -49.882  0.00  0.00     0.046 A 
ATOM     25  C   UNL d   1     -44.496-123.788 -49.302  0.00  0.00     0.021 C 
ENDBRANCH  14  15
ENDBRANCH   1  14
TORSDOF 6
ENDMDL
MODEL 2
REMARK VINA RESULT:       0.6      2.400      5.379
REMARK  6 active torsions:
REMARK  status: ('A' for Active; 'I' for Inactive)
REMARK    1  A    between atoms: S_10  and  C_4 
REMARK    2  A    between atoms: C_16  and  S_10 
REMARK    3  A    between atoms: C_11  and  C_14 
REMARK    4  A    between atoms: O_20  and  C_13 
REMARK    5  A    between atoms: C_14  and  C_16 
REMARK    6  A    between atoms: O_21  and  C_15 
ROOT
ATOM      1  C   UNL d   1     -42.060-122.671 -51.131  0.00  0.00     0.079 C 
ENDROOT
BRANCH   1   2
ATOM      2  C   UNL d   1     -41.658-123.270 -50.726  0.00  0.00     0.202 C 
ATOM      3  O   UNL d   1     -41.123-123.762 -51.143  0.00  0.00    -0.286 OA
BRANCH   2   4
ATOM      4  C   UNL d   1     -41.778-123.392 -49.914  0.00  0.00     0.042 A 
ATOM      5  C   UNL d   1     -42.542-123.506 -49.609  0.00  0.00     0.029 A 
ATOM      6  C   UNL d   1     -42.653-123.627 -48.792  0.00  0.00     0.116 A 
ATOM      7  C   UNL d   1     -41.996-123.634 -48.291  0.00  0.00     0.116 A 
ATOM      8  C   UNL d   1     -41.242-123.522 -48.586  0.00  0.00     0.026 A 
ATOM      9  C   UNL d   1     -41.130-123.400 -49.403  0.00  0.00     0.005 A 
BRANCH   6  10
ATOM     10  O   UNL d   1     -43.413-123.741 -48.485  0.00  0.00    -0.326 OA
ATOM     11  C   UNL d   1     -44.072-123.706 -48.996  0.00  0.00     0.181 C 
ENDBRANCH   6  10
BRANCH   7  12
ATOM     12  O   UNL d   1     -42.100-123.755 -47.470  0.00  0.00    -0.326 OA
ATOM     13  C   UNL d   1     -41.445-123.691 -46.959  0.00  0.00     0.181 C 
ENDBRANCH   7  12
ENDBRANCH   2   4
ENDBRANCH   1   2
BRANCH   1  14
ATOM     14  S   UNL d   1     -41.782-122.405 -51.857  0.00  0.00    -0.063 SA
BRANCH  14  15
ATOM     15  C   UNL d   1     -41.785-122.043 -52.611  0.00  0.00     0.132 A 
ATOM     16  N   UNL d   1     -41.717-122.484 -53.248  0.00  0.00    -0.050 N 
ATOM     17  C   UNL d   1     -41.721-122.136 -53.956  0.00  0.00     0.753 A 
ATOM     18  N   UNL d   1     -41.577-123.700 -53.833  0.00  0.00    -0.130 NA
ATOM     19  N   UNL d   1     -41.653-122.566 -54.606  0.00  0.00    -0.038 NA
ATOM     20  N   UNL d   1     -41.792-121.363 -54.008  0.00  0.00    -0.059 NA
ATOM     21  C   UNL d   1     -41.581-123.352 -54.537  0.00  0.00     0.201 A 
ATOM     22  C   UNL d   1     -41.511-123.798 -55.186  0.00  0.00     0.044 C 
ATOM     23  C   UNL d   1     -41.861-120.924 -53.364  0.00  0.00     0.102 A 
ATOM     24  C   UNL d   1     -41.857-121.271 -52.659  0.00  0.00     0.046 A 
ATOM     25  C   UNL d   1     -41.933-120.141 -53.426  0.00  0.00     0.021 C 
ENDBRANCH  14  15
ENDBRANCH   1  14
TORSDOF 6
ENDMDL
MODEL 3
REMARK VINA RESULT:       1.6      2.532      5.357
REMARK  6 active torsions:
REMARK  status: ('A' for Active; 'I' for Inactive)
REMARK    1  A    between atoms: S_10  and  C_4 
REMARK    2  A    between atoms: C_16  and  S_10 
REMARK    3  A    between atoms: C_11  and  C_14 
REMARK    4  A    between atoms: O_20  and  C_13 
REMARK    5  A    between atoms: C_14  and  C_16 
REMARK    6  A    between atoms: O_21  and  C_15 
ROOT
ATOM      1  C   UNL d   1     -41.947-122.701 -51.729  0.00  0.00     0.079 C 
ENDROOT
BRANCH   1   2
ATOM      2  C   UNL d   1     -41.647-123.198 -51.139  0.00  0.00     0.202 C 
ATOM      3  O   UNL d   1     -41.123-123.817 -51.348  0.00  0.00    -0.286 OA
BRANCH   2   4
ATOM      4  C   UNL d   1     -41.858-123.092 -50.343  0.00  0.00     0.042 A 
ATOM      5  C   UNL d   1     -42.653-123.130 -50.105  0.00  0.00     0.029 A 
ATOM      6  C   UNL d   1     -42.857-123.023 -49.304  0.00  0.00     0.116 A 
ATOM      7  C   UNL d   1     -42.259-122.879 -48.751  0.00  0.00     0.116 A 
ATOM      8  C   UNL d   1     -41.476-122.841 -48.980  0.00  0.00     0.026 A 
ATOM      9  C   UNL d   1     -41.271-122.948 -49.781  0.00  0.00     0.005 A 
BRANCH   6  10
ATOM     10  O   UNL d   1     -43.648-123.059 -49.065  0.00  0.00    -0.326 OA
ATOM     11  C   UNL d   1     -44.098-123.740 -49.237  0.00  0.00     0.181 C 
ENDBRANCH   6  10
BRANCH   7  12
ATOM     12  O   UNL d   1     -42.457-122.770 -47.946  0.00  0.00    -0.326 OA
ATOM     13  C   UNL d   1     -41.872-122.878 -47.362  0.00  0.00     0.181 C 
ENDBRANCH   7  12
ENDBRANCH   2   4
ENDBRANCH   1   2
BRANCH   1  14
ATOM     14  S   UNL d   1     -41.669-122.763 -52.500  0.00  0.00    -0.063 SA
BRANCH  14  15
ATOM     15  C   UNL d   1     -41.650-122.687 -53.332  0.00  0.00     0.132 A 
ATOM     16  N   UNL d   1     -41.884-122.021 -53.661  0.00  0.00    -0.050 N 
ATOM     17  C   UNL d   1     -41.863-121.956 -54.447  0.00  0.00     0.753 A 
ATOM     18  N   UNL d   1     -42.369-120.759 -53.557  0.00  0.00    -0.130 NA
ATOM     19  N   UNL d   1     -42.094-121.293 -54.793  0.00  0.00    -0.038 NA
ATOM     20  N   UNL d   1     -41.611-122.552 -54.880  0.00  0.00    -0.059 NA
ATOM     21  C   UNL d   1     -42.348-120.695 -54.340  0.00  0.00     0.201 A 
ATOM     22  C   UNL d   1     -42.585-120.020 -54.676  0.00  0.00     0.044 C 
ATOM     23  C   UNL d   1     -41.377-123.218 -54.543  0.00  0.00     0.102 A 
ATOM     24  C   UNL d   1     -41.398-123.283 -53.761  0.00  0.00     0.046 A 
ATOM     25  C   UNL d   1     -41.124-123.817 -54.989  0.00  0.00     0.021 C 
ENDBRANCH  14  15
ENDBRANCH   1  14
TORSDOF 6
ENDMDL
MODEL 4
REMARK VINA RESULT:       3.2      1.030      2.072
REMARK  6 active torsions:
REMARK  status: ('A' for Active; 'I' for Inactive)
REMARK    1  A    between atoms: S_10  and  C_4 
REMARK    2  A    between atoms: C_16  and  S_10 
REMARK    3  A    between atoms: C_11  and  C_14 
REMARK    4  A    between atoms: O_20  and  C_13 
REMARK    5  A    between atoms: C_14  and  C_16 
REMARK    6  A    between atoms: O_21  and  C_15 
ROOT
ATOM      1  C   UNL d   1     -41.552-122.494 -51.784  0.00  0.00     0.079 C 
ENDROOT
BRANCH   1   2
ATOM      2  C   UNL d   1     -41.402-122.978 -52.438  0.00  0.00     0.202 C 
ATOM      3  O   UNL d   1     -41.123-123.759 -52.317  0.00  0.00    -0.286 OA
BRANCH   2   4
ATOM      4  C   UNL d   1     -41.524-122.702 -53.211  0.00  0.00     0.042 A 
ATOM      5  C   UNL d   1     -41.977-122.021 -53.353  0.00  0.00     0.029 A 
ATOM      6  C   UNL d   1     -42.095-121.751 -54.133  0.00  0.00     0.116 A 
ATOM      7  C   UNL d   1     -41.755-122.168 -54.760  0.00  0.00     0.116 A 
ATOM      8  C   UNL d   1     -41.307-122.838 -54.626  0.00  0.00     0.026 A 
ATOM      9  C   UNL d   1     -41.190-123.109 -53.846  0.00  0.00     0.005 A 
BRANCH   6  10
ATOM     10  O   UNL d   1     -42.546-121.073 -54.277  0.00  0.00    -0.326 OA
ATOM     11  C   UNL d   1     -42.856-120.641 -53.635  0.00  0.00     0.181 C 
ENDBRANCH   6  10
BRANCH   7  12
ATOM     12  O   UNL d   1     -41.869-121.902 -55.545  0.00  0.00    -0.326 OA
ATOM     13  C   UNL d   1     -42.273-122.388 -56.089  0.00  0.00     0.181 C 
ENDBRANCH   7  12
ENDBRANCH   2   4
ENDBRANCH   1   2
BRANCH   1  14
ATOM     14  S   UNL d   1     -41.572-122.815 -51.028  0.00  0.00    -0.063 SA
BRANCH  14  15
ATOM     15  C   UNL d   1     -41.857-123.000 -50.264  0.00  0.00     0.132 A 
ATOM     16  N   UNL d   1     -42.607-122.878 -50.096  0.00  0.00    -0.050 N 
ATOM     17  C   UNL d   1     -42.870-123.054 -49.373  0.00  0.00     0.753 A 
ATOM     18  N   UNL d   1     -43.848-122.467 -50.459  0.00  0.00    -0.130 NA
ATOM     19  N   UNL d   1     -43.621-122.938 -49.188  0.00  0.00    -0.038 NA
ATOM     20  N   UNL d   1     -42.380-123.344 -48.841  0.00  0.00    -0.059 NA
ATOM     21  C   UNL d   1     -44.108-122.643 -49.739  0.00  0.00     0.201 A 
ATOM     22  C   UNL d   1     -44.869-122.520 -49.566  0.00  0.00     0.044 C 
ATOM     23  C   UNL d   1     -41.627-123.464 -49.017  0.00  0.00     0.102 A 
ATOM     24  C   UNL d   1     -41.366-123.289 -49.736  0.00  0.00     0.046 A 
ATOM     25  C   UNL d   1     -41.138-123.758 -48.472  0.00  0.00     0.021 C 
ENDBRANCH  14  15
ENDBRANCH   1  14
TORSDOF 6
ENDMDL
