MODEL 1
REMARK VINA RESULT:      -2.9      0.000      0.000
REMARK  3 active torsions:
REMARK  status: ('A' for Active; 'I' for Inactive)
REMARK    1  A    between atoms: C_6  and  C_1 
REMARK    2  A    between atoms: C_8  and  C_4 
REMARK    3  A    between atoms: O_17  and  C_14 
ROOT
ATOM      1  C   UNL d   1      32.710  22.000 -21.320  0.00  0.00     0.122 A 
ATOM      2  C   UNL d   1      32.349  21.313 -21.016  0.00  0.00     0.285 A 
ATOM      3  N   UNL d   1      32.437  20.593 -21.407  0.00  0.00    -0.208 NA
ATOM      4  C   UNL d   1      32.882  20.555 -22.099  0.00  0.00     0.085 A 
ATOM      5  C   UNL d   1      33.155  21.961 -22.012  0.00  0.00     0.013 A 
ATOM      6  C   UNL d   1      33.239  21.236 -22.400  0.00  0.00     0.020 A 
ATOM      7  O   UNL d   1      31.901  21.356 -20.318  0.00  0.00    -0.265 OA
ENDROOT
BRANCH   4   8
ATOM      8  C   UNL d   1      32.971  19.833 -22.493  0.00  0.00     0.018 A 
ATOM      9  C   UNL d   1      33.123  19.147 -22.057  0.00  0.00     0.004 A 
ATOM     10  C   UNL d   1      33.212  18.430 -22.450  0.00  0.00     0.024 A 
ATOM     11  C   UNL d   1      33.148  18.399 -23.272  0.00  0.00     0.094 A 
ATOM     12  C   UNL d   1      32.996  19.090 -23.701  0.00  0.00     0.024 A 
ATOM     13  C   UNL d   1      32.907  19.807 -23.307  0.00  0.00     0.004 A 
BRANCH  11  14
ATOM     14  O   UNL d   1      33.238  17.673 -23.667  0.00  0.00    -0.328 OA
ATOM     15  C   UNL d   1      32.610  17.151 -23.727  0.00  0.00     0.181 C 
ENDBRANCH  11  14
ENDBRANCH   4   8
BRANCH   1  16
ATOM     16  C   UNL d   1      32.622  22.719 -20.929  0.00  0.00     0.216 C 
ATOM     17  O   UNL d   1      31.948  23.179 -21.053  0.00  0.00    -0.644 OA
ATOM     18  O   UNL d   1      33.209  22.988 -20.409  0.00  0.00    -0.644 OA
ENDBRANCH   1  16
TORSDOF 3
ENDMDL
MODEL 2
REMARK VINA RESULT:      -2.4      3.863      5.773
REMARK  3 active torsions:
REMARK  status: ('A' for Active; 'I' for Inactive)
REMARK    1  A    between atoms: C_6  and  C_1 
REMARK    2  A    between atoms: C_8  and  C_4 
REMARK    3  A    between atoms: O_17  and  C_14 
ROOT
ATOM      1  C   UNL d   1      28.975  16.072 -23.978  0.00  0.00     0.122 A 
ATOM      2  C   UNL d   1      28.965  16.885 -24.156  0.00  0.00     0.285 A 
ATOM      3  N   UNL d   1      29.673  17.291 -24.270  0.00  0.00    -0.208 NA
ATOM      4  C   UNL d   1      30.390  16.890 -24.208  0.00  0.00     0.085 A 
ATOM      5  C   UNL d   1      29.692  15.670 -23.917  0.00  0.00     0.013 A 
ATOM      6  C   UNL d   1      30.399  16.084 -24.032  0.00  0.00     0.020 A 
ATOM      7  O   UNL d   1      28.240  17.287 -24.218  0.00  0.00    -0.265 OA
ENDROOT
BRANCH   4   8
ATOM      8  C   UNL d   1      31.101  17.296 -24.323  0.00  0.00     0.018 A 
ATOM      9  C   UNL d   1      31.177  17.814 -24.965  0.00  0.00     0.004 A 
ATOM     10  C   UNL d   1      31.886  18.216 -25.077  0.00  0.00     0.024 A 
ATOM     11  C   UNL d   1      32.513  18.103 -24.553  0.00  0.00     0.094 A 
ATOM     12  C   UNL d   1      32.429  17.584 -23.914  0.00  0.00     0.024 A 
ATOM     13  C   UNL d   1      31.720  17.181 -23.802  0.00  0.00     0.004 A 
BRANCH  11  14
ATOM     14  O   UNL d   1      33.227  18.512 -24.670  0.00  0.00    -0.328 OA
ATOM     15  C   UNL d   1      33.239  19.223 -25.075  0.00  0.00     0.181 C 
ENDBRANCH  11  14
ENDBRANCH   4   8
BRANCH   1  16
ATOM     16  C   UNL d   1      28.268  15.666 -23.864  0.00  0.00     0.216 C 
ATOM     17  O   UNL d   1      27.804  15.453 -24.512  0.00  0.00    -0.644 OA
ATOM     18  O   UNL d   1      28.017  15.468 -23.100  0.00  0.00    -0.644 OA
ENDBRANCH   1  16
TORSDOF 3
ENDMDL
MODEL 3
REMARK VINA RESULT:      -2.3      3.646      5.206
REMARK  3 active torsions:
REMARK  status: ('A' for Active; 'I' for Inactive)
REMARK    1  A    between atoms: C_6  and  C_1 
REMARK    2  A    between atoms: C_8  and  C_4 
REMARK    3  A    between atoms: O_17  and  C_14 
ROOT
ATOM      1  C   UNL d   1      31.982  17.981 -24.445  0.00  0.00     0.122 A 
ATOM      2  C   UNL d   1      31.830  17.575 -23.734  0.00  0.00     0.285 A 
ATOM      3  N   UNL d   1      31.128  17.155 -23.639  0.00  0.00    -0.208 NA
ATOM      4  C   UNL d   1      30.576  17.138 -24.250  0.00  0.00     0.085 A 
ATOM      5  C   UNL d   1      31.429  17.964 -25.056  0.00  0.00     0.013 A 
ATOM      6  C   UNL d   1      30.726  17.540 -24.955  0.00  0.00     0.020 A 
ATOM      7  O   UNL d   1      32.390  17.595 -23.120  0.00  0.00    -0.265 OA
ENDROOT
BRANCH   4   8
ATOM      8  C   UNL d   1      29.870  16.717 -24.157  0.00  0.00     0.018 A 
ATOM      9  C   UNL d   1      29.871  15.894 -24.249  0.00  0.00     0.004 A 
ATOM     10  C   UNL d   1      29.168  15.477 -24.156  0.00  0.00     0.024 A 
ATOM     11  C   UNL d   1      28.471  15.877 -23.974  0.00  0.00     0.094 A 
ATOM     12  C   UNL d   1      28.478  16.700 -23.884  0.00  0.00     0.024 A 
ATOM     13  C   UNL d   1      29.182  17.117 -23.977  0.00  0.00     0.004 A 
BRANCH  11  14
ATOM     14  O   UNL d   1      27.763  15.453 -23.881  0.00  0.00    -0.328 OA
ATOM     15  C   UNL d   1      27.227  15.658 -23.296  0.00  0.00     0.181 C 
ENDBRANCH  11  14
ENDBRANCH   4   8
BRANCH   1  16
ATOM     16  C   UNL d   1      32.683  18.401 -24.540  0.00  0.00     0.216 C 
ATOM     17  O   UNL d   1      33.241  18.155 -25.096  0.00  0.00    -0.644 OA
ATOM     18  O   UNL d   1      32.836  19.072 -24.079  0.00  0.00    -0.644 OA
ENDBRANCH   1  16
TORSDOF 3
ENDMDL
MODEL 4
REMARK VINA RESULT:      -1.8      3.211      4.340
REMARK  3 active torsions:
REMARK  status: ('A' for Active; 'I' for Inactive)
REMARK    1  A    between atoms: C_6  and  C_1 
REMARK    2  A    between atoms: C_8  and  C_4 
REMARK    3  A    between atoms: O_17  and  C_14 
ROOT
ATOM      1  C   UNL d   1      32.617  23.006 -17.716  0.00  0.00     0.122 A 
ATOM      2  C   UNL d   1      32.942  22.377 -18.155  0.00  0.00     0.285 A 
ATOM      3  N   UNL d   1      32.967  22.416 -18.978  0.00  0.00    -0.208 NA
ATOM      4  C   UNL d   1      32.669  23.079 -19.365  0.00  0.00     0.085 A 
ATOM      5  C   UNL d   1      32.319  23.669 -18.104  0.00  0.00     0.013 A 
ATOM      6  C   UNL d   1      32.347  23.702 -18.930  0.00  0.00     0.020 A 
ATOM      7  O   UNL d   1      33.241  21.710 -17.760  0.00  0.00    -0.265 OA
ENDROOT
BRANCH   4   8
ATOM      8  C   UNL d   1      32.693  23.121 -20.191  0.00  0.00     0.018 A 
ATOM      9  C   UNL d   1      32.201  22.628 -20.638  0.00  0.00     0.004 A 
ATOM     10  C   UNL d   1      32.226  22.670 -21.459  0.00  0.00     0.024 A 
ATOM     11  C   UNL d   1      32.738  23.200 -21.830  0.00  0.00     0.094 A 
ATOM     12  C   UNL d   1      33.227  23.689 -21.376  0.00  0.00     0.024 A 
ATOM     13  C   UNL d   1      33.201  23.646 -20.554  0.00  0.00     0.004 A 
BRANCH  11  14
ATOM     14  O   UNL d   1      32.761  23.240 -22.660  0.00  0.00    -0.328 OA
ATOM     15  C   UNL d   1      33.233  22.727 -23.089  0.00  0.00     0.181 C 
ENDBRANCH  11  14
ENDBRANCH   4   8
BRANCH   1  16
ATOM     16  C   UNL d   1      32.592  22.967 -16.895  0.00  0.00     0.216 C 
ATOM     17  O   UNL d   1      33.233  23.232 -16.448  0.00  0.00    -0.644 OA
ATOM     18  O   UNL d   1      31.925  22.662 -16.510  0.00  0.00    -0.644 OA
ENDBRANCH   1  16
TORSDOF 3
ENDMDL
MODEL 5
REMARK VINA RESULT:      -1.6      0.952      4.123
REMARK  3 active torsions:
REMARK  status: ('A' for Active; 'I' for Inactive)
REMARK    1  A    between atoms: C_6  and  C_1 
REMARK    2  A    between atoms: C_8  and  C_4 
REMARK    3  A    between atoms: O_17  and  C_14 
ROOT
ATOM      1  C   UNL d   1      32.900  19.133 -23.698  0.00  0.00     0.122 A 
ATOM      2  C   UNL d   1      32.689  18.886 -22.931  0.00  0.00     0.285 A 
ATOM      3  N   UNL d   1      32.700  19.423 -22.307  0.00  0.00    -0.208 NA
ATOM      4  C   UNL d   1      32.921  20.205 -22.443  0.00  0.00     0.085 A 
ATOM      5  C   UNL d   1      33.121  19.915 -23.834  0.00  0.00     0.013 A 
ATOM      6  C   UNL d   1      33.130  20.449 -23.203  0.00  0.00     0.020 A 
ATOM      7  O   UNL d   1      32.466  18.097 -22.798  0.00  0.00    -0.265 OA
ENDROOT
BRANCH   4   8
ATOM      8  C   UNL d   1      32.933  20.746 -21.817  0.00  0.00     0.018 A 
ATOM      9  C   UNL d   1      32.645  21.513 -21.935  0.00  0.00     0.004 A 
ATOM     10  C   UNL d   1      32.658  22.049 -21.312  0.00  0.00     0.024 A 
ATOM     11  C   UNL d   1      32.955  21.822 -20.577  0.00  0.00     0.094 A 
ATOM     12  C   UNL d   1      33.241  21.053 -20.467  0.00  0.00     0.024 A 
ATOM     13  C   UNL d   1      33.228  20.517 -21.091  0.00  0.00     0.004 A 
BRANCH  11  14
ATOM     14  O   UNL d   1      32.967  22.366 -19.949  0.00  0.00    -0.328 OA
ATOM     15  C   UNL d   1      33.226  23.134 -20.069  0.00  0.00     0.181 C 
ENDBRANCH  11  14
ENDBRANCH   4   8
BRANCH   1  16
ATOM     16  C   UNL d   1      32.888  18.597 -24.323  0.00  0.00     0.216 C 
ATOM     17  O   UNL d   1      33.056  17.801 -24.188  0.00  0.00    -0.644 OA
ATOM     18  O   UNL d   1      32.709  18.851 -25.090  0.00  0.00    -0.644 OA
ENDBRANCH   1  16
TORSDOF 3
ENDMDL
