MODEL 1
REMARK VINA RESULT:      -9.4      0.000      0.000
REMARK  4 active torsions:
REMARK  status: ('A' for Active; 'I' for Inactive)
REMARK    1  A    between atoms: C_13  and  N_5 
REMARK    2  A    between atoms: C_14  and  C_6 
REMARK    3  A    between atoms: C_21  and  C_13 
REMARK    4  A    between atoms: O_25  and  C_20 
ROOT
ATOM      1  C   UNL d   1      53.287  33.347  53.783  0.00  0.00     0.080 A 
ATOM      2  C   UNL d   1      53.051  32.717  53.293  0.00  0.00     0.267 A 
ATOM      3  C   UNL d   1      54.001  33.310  54.196  0.00  0.00     0.108 A 
ATOM      4  C   UNL d   1      53.026  34.643  54.338  0.00  0.00     0.111 A 
ATOM      5  N   UNL d   1      53.548  32.056  53.230  0.00  0.00    -0.273 N 
ATOM      6  C   UNL d   1      52.798  34.009  53.851  0.00  0.00     0.020 A 
ATOM      7  C   UNL d   1      53.748  34.601  54.753  0.00  0.00     0.213 A 
ATOM      8  C   UNL d   1      54.488  32.650  54.127  0.00  0.00     0.043 A 
ATOM      9  O   UNL d   1      54.228  33.938  54.679  0.00  0.00    -0.287 OA
ATOM     10  C   UNL d   1      54.261  32.022  53.644  0.00  0.00     0.069 A 
ATOM     11  C   UNL d   1      52.546  35.307  54.413  0.00  0.00     0.105 C 
ATOM     12  N   UNL d   1      52.053  35.969  54.478  0.00  0.00    -0.191 NA
ATOM     13  O   UNL d   1      52.338  32.751  52.879  0.00  0.00    -0.267 OA
ATOM     14  N   UNL d   1      53.978  35.229  55.238  0.00  0.00    -0.120 N 
ATOM     15  C   UNL d   1      54.749  31.354  53.572  0.00  0.00     0.019 C 
ENDROOT
BRANCH   6  16
ATOM     16  C   UNL d   1      52.083  34.049  53.439  0.00  0.00     0.001 A 
ATOM     17  C   UNL d   1      51.387  33.790  53.790  0.00  0.00     0.002 A 
ATOM     18  C   UNL d   1      50.674  33.833  53.377  0.00  0.00     0.024 A 
ATOM     19  C   UNL d   1      50.664  34.136  52.611  0.00  0.00     0.094 A 
ATOM     20  C   UNL d   1      51.369  34.399  52.252  0.00  0.00     0.024 A 
ATOM     21  C   UNL d   1      52.076  34.352  52.676  0.00  0.00     0.002 A 
BRANCH  19  22
ATOM     22  O   UNL d   1      49.954  34.179  52.194  0.00  0.00    -0.328 OA
ATOM     23  C   UNL d   1      49.394  34.751  52.391  0.00  0.00     0.181 C 
ENDBRANCH  19  22
ENDBRANCH   6  16
BRANCH   5  24
ATOM     24  C   UNL d   1      53.320  31.421  52.742  0.00  0.00     0.083 C 
BRANCH  24  25
ATOM     25  C   UNL d   1      52.995  30.730  53.067  0.00  0.00     0.021 A 
ATOM     26  C   UNL d   1      53.477  30.161  53.414  0.00  0.00     0.022 A 
ATOM     27  C   UNL d   1      53.142  29.479  53.733  0.00  0.00     0.099 A 
ATOM     28  N   UNL d   1      52.330  29.364  53.705  0.00  0.00    -0.242 NA
ATOM     29  C   UNL d   1      51.844  29.937  53.355  0.00  0.00     0.099 A 
ATOM     30  C   UNL d   1      52.178  30.618  53.037  0.00  0.00     0.022 A 
ENDBRANCH  24  25
ENDBRANCH   5  24
TORSDOF 4
ENDMDL
MODEL 2
REMARK VINA RESULT:      -8.6      1.282      3.119
REMARK  4 active torsions:
REMARK  status: ('A' for Active; 'I' for Inactive)
REMARK    1  A    between atoms: C_13  and  N_5 
REMARK    2  A    between atoms: C_14  and  C_6 
REMARK    3  A    between atoms: C_21  and  C_13 
REMARK    4  A    between atoms: O_25  and  C_20 
ROOT
ATOM      1  C   UNL d   1      52.932  32.162  53.298  0.00  0.00     0.080 A 
ATOM      2  C   UNL d   1      53.454  31.578  53.581  0.00  0.00     0.267 A 
ATOM      3  C   UNL d   1      52.307  31.957  52.800  0.00  0.00     0.108 A 
ATOM      4  C   UNL d   1      52.533  33.538  53.244  0.00  0.00     0.111 A 
ATOM      5  N   UNL d   1      53.330  30.790  53.351  0.00  0.00    -0.273 N 
ATOM      6  C   UNL d   1      53.050  32.948  53.522  0.00  0.00     0.020 A 
ATOM      7  C   UNL d   1      51.902  33.326  52.742  0.00  0.00     0.213 A 
ATOM      8  C   UNL d   1      52.191  31.173  52.578  0.00  0.00     0.043 A 
ATOM      9  O   UNL d   1      51.795  32.541  52.525  0.00  0.00    -0.287 OA
ATOM     10  C   UNL d   1      52.704  30.589  52.854  0.00  0.00     0.069 A 
ATOM     11  C   UNL d   1      52.640  34.324  53.462  0.00  0.00     0.105 C 
ATOM     12  N   UNL d   1      52.762  35.111  53.689  0.00  0.00    -0.191 NA
ATOM     13  O   UNL d   1      54.081  31.779  54.079  0.00  0.00    -0.267 OA
ATOM     14  N   UNL d   1      51.388  33.909  52.464  0.00  0.00    -0.120 N 
ATOM     15  C   UNL d   1      52.591  29.797  52.631  0.00  0.00     0.019 C 
ENDROOT
BRANCH   6  16
ATOM     16  C   UNL d   1      53.675  33.156  54.020  0.00  0.00     0.001 A 
ATOM     17  C   UNL d   1      54.428  33.272  53.715  0.00  0.00     0.002 A 
ATOM     18  C   UNL d   1      55.050  33.480  54.215  0.00  0.00     0.024 A 
ATOM     19  C   UNL d   1      54.912  33.572  55.022  0.00  0.00     0.094 A 
ATOM     20  C   UNL d   1      54.147  33.456  55.335  0.00  0.00     0.024 A 
ATOM     21  C   UNL d   1      53.533  33.248  54.825  0.00  0.00     0.002 A 
BRANCH  19  22
ATOM     22  O   UNL d   1      55.531  33.781  55.525  0.00  0.00    -0.328 OA
ATOM     23  C   UNL d   1      55.939  34.487  55.408  0.00  0.00     0.181 C 
ENDBRANCH  19  22
ENDBRANCH   6  16
BRANCH   5  24
ATOM     24  C   UNL d   1      53.847  30.200  53.629  0.00  0.00     0.083 C 
BRANCH  24  25
ATOM     25  C   UNL d   1      53.610  29.673  54.225  0.00  0.00     0.021 A 
ATOM     26  C   UNL d   1      53.273  29.950  54.923  0.00  0.00     0.022 A 
ATOM     27  C   UNL d   1      53.043  29.416  55.507  0.00  0.00     0.099 A 
ATOM     28  N   UNL d   1      53.147  28.609  55.396  0.00  0.00    -0.242 NA
ATOM     29  C   UNL d   1      53.485  28.330  54.693  0.00  0.00     0.099 A 
ATOM     30  C   UNL d   1      53.716  28.863  54.110  0.00  0.00     0.022 A 
ENDBRANCH  24  25
ENDBRANCH   5  24
TORSDOF 4
ENDMDL
