MODEL 1
REMARK VINA RESULT:      -5.1      0.000      0.000
REMARK  11 active torsions:
REMARK  status: ('A' for Active; 'I' for Inactive)
REMARK    1  A    between atoms: C_4  and  C_1 
REMARK    2  A    between atoms: C_10  and  C_2 
REMARK    3  A    between atoms: C_16  and  C_9 
REMARK    4  A    between atoms: O_24  and  C_10 
REMARK    5  A    between atoms: O_18  and  C_14 
REMARK    6  A    between atoms: O_25  and  C_16 
REMARK    7  A    between atoms: C_26  and  C_17 
REMARK    8  A    between atoms: C_19  and  O_18 
REMARK    9  A    between atoms: C_29  and  O_24 
REMARK   10  A    between atoms: C_28  and  O_25 
REMARK   11  A    between atoms: C_30  and  C_26 
ROOT
ATOM      1  C   UNL d   1      51.853  33.905  53.237  0.00  0.00     0.090 A 
ATOM      2  C   UNL d   1      51.836  34.497  53.810  0.00  0.00     0.168 A 
ATOM      3  C   UNL d   1      51.195  33.790  52.742  0.00  0.00     0.201 A 
ATOM      4  C   UNL d   1      50.519  34.268  52.821  0.00  0.00     0.062 A 
ATOM      5  O   UNL d   1      51.160  34.975  53.889  0.00  0.00    -0.301 OA
ATOM      6  C   UNL d   1      50.501  34.860  53.395  0.00  0.00     0.105 A 
ATOM      7  C   UNL d   1      49.877  34.149  52.332  0.00  0.00     0.007 A 
ATOM      8  C   UNL d   1      49.842  35.333  53.479  0.00  0.00     0.050 A 
ATOM      9  C   UNL d   1      49.184  35.219  52.984  0.00  0.00     0.105 A 
ATOM     10  C   UNL d   1      49.201  34.626  52.410  0.00  0.00     0.023 A 
ATOM     11  O   UNL d   1      51.212  33.198  52.168  0.00  0.00    -0.286 OA
ENDROOT
BRANCH   1  12
ATOM     12  C   UNL d   1      52.528  33.428  53.157  0.00  0.00     0.105 A 
ATOM     13  O   UNL d   1      52.556  32.650  53.434  0.00  0.00    -0.302 OA
ATOM     14  C   UNL d   1      53.295  32.358  53.263  0.00  0.00     0.163 A 
ATOM     15  C   UNL d   1      53.727  32.936  52.886  0.00  0.00     0.032 A 
ATOM     16  C   UNL d   1      53.248  33.621  52.814  0.00  0.00     0.027 A 
BRANCH  14  17
ATOM     17  C   UNL d   1      53.578  31.582  53.442  0.00  0.00     0.323 C 
ATOM     18  O   UNL d   1      54.412  31.453  53.524  0.00  0.00    -0.257 OA
BRANCH  17  19
ATOM     19  O   UNL d   1      53.066  30.954  53.539  0.00  0.00    -0.270 OA
BRANCH  19  20
ATOM     20  C   UNL d   1      53.336  30.190  53.688  0.00  0.00     0.126 C 
ATOM     21  C   UNL d   1      52.869  29.548  53.536  0.00  0.00     0.029 C 
ENDBRANCH  19  20
ENDBRANCH  17  19
ENDBRANCH  14  17
ENDBRANCH   1  12
BRANCH   2  22
ATOM     22  C   UNL d   1      52.508  34.623  54.324  0.00  0.00     0.323 C 
ATOM     23  O   UNL d   1      52.657  34.091  54.925  0.00  0.00    -0.257 OA
BRANCH  22  24
ATOM     24  O   UNL d   1      53.002  35.274  54.213  0.00  0.00    -0.270 OA
BRANCH  24  25
ATOM     25  C   UNL d   1      53.309  35.675  54.874  0.00  0.00     0.126 C 
ATOM     26  C   UNL d   1      53.658  36.417  54.776  0.00  0.00     0.029 C 
ENDBRANCH  24  25
ENDBRANCH  22  24
ENDBRANCH   2  22
BRANCH  10  27
ATOM     27  C   UNL d   1      48.528  34.503  51.899  0.00  0.00     0.002 C 
BRANCH  27  28
ATOM     28  C   UNL d   1      48.595  34.717  51.104  0.00  0.00     0.000 C 
ATOM     29  C   UNL d   1      47.887  34.843  50.672  0.00  0.00     0.000 C 
ENDBRANCH  27  28
ENDBRANCH  10  27
BRANCH   9  30
ATOM     30  O   UNL d   1      48.492  35.715  53.073  0.00  0.00    -0.273 OA
BRANCH  30  31
ATOM     31  C   UNL d   1      48.418  36.171  53.732  0.00  0.00     0.300 C 
ATOM     32  O   UNL d   1      48.792  36.655  53.829  0.00  0.00    -0.259 OA
ATOM     33  C   UNL d   1      47.841  36.002  54.294  0.00  0.00     0.074 C 
ENDBRANCH  30  31
ENDBRANCH   9  30
TORSDOF 11
ENDMDL
MODEL 2
REMARK VINA RESULT:      -3.7      1.164      1.619
REMARK  11 active torsions:
REMARK  status: ('A' for Active; 'I' for Inactive)
REMARK    1  A    between atoms: C_4  and  C_1 
REMARK    2  A    between atoms: C_10  and  C_2 
REMARK    3  A    between atoms: C_16  and  C_9 
REMARK    4  A    between atoms: O_24  and  C_10 
REMARK    5  A    between atoms: O_18  and  C_14 
REMARK    6  A    between atoms: O_25  and  C_16 
REMARK    7  A    between atoms: C_26  and  C_17 
REMARK    8  A    between atoms: C_19  and  O_18 
REMARK    9  A    between atoms: C_29  and  O_24 
REMARK   10  A    between atoms: C_28  and  O_25 
REMARK   11  A    between atoms: C_30  and  C_26 
ROOT
ATOM      1  C   UNL d   1      52.276  32.656  53.091  0.00  0.00     0.090 A 
ATOM      2  C   UNL d   1      52.568  33.289  53.532  0.00  0.00     0.168 A 
ATOM      3  C   UNL d   1      51.542  32.725  52.707  0.00  0.00     0.201 A 
ATOM      4  C   UNL d   1      51.100  33.427  52.763  0.00  0.00     0.062 A 
ATOM      5  O   UNL d   1      52.126  33.991  53.588  0.00  0.00    -0.301 OA
ATOM      6  C   UNL d   1      51.392  34.060  53.204  0.00  0.00     0.105 A 
ATOM      7  C   UNL d   1      50.381  33.487  52.382  0.00  0.00     0.007 A 
ATOM      8  C   UNL d   1      50.964  34.752  53.264  0.00  0.00     0.050 A 
ATOM      9  C   UNL d   1      50.230  34.821  52.879  0.00  0.00     0.105 A 
ATOM     10  C   UNL d   1      49.939  34.188  52.438  0.00  0.00     0.023 A 
ATOM     11  O   UNL d   1      51.250  32.092  52.266  0.00  0.00    -0.286 OA
ENDROOT
BRANCH   1  12
ATOM     12  C   UNL d   1      52.717  31.955  53.035  0.00  0.00     0.105 A 
ATOM     13  O   UNL d   1      52.497  31.260  53.424  0.00  0.00    -0.302 OA
ATOM     14  C   UNL d   1      53.053  30.695  53.244  0.00  0.00     0.163 A 
ATOM     15  C   UNL d   1      53.613  31.022  52.752  0.00  0.00     0.032 A 
ATOM     16  C   UNL d   1      53.409  31.824  52.613  0.00  0.00     0.027 A 
BRANCH  14  17
ATOM     17  C   UNL d   1      53.056  29.896  53.517  0.00  0.00     0.323 C 
ATOM     18  O   UNL d   1      52.764  29.282  53.009  0.00  0.00    -0.257 OA
BRANCH  17  19
ATOM     19  O   UNL d   1      53.335  29.700  54.258  0.00  0.00    -0.270 OA
BRANCH  19  20
ATOM     20  C   UNL d   1      53.285  28.934  54.556  0.00  0.00     0.126 C 
ATOM     21  C   UNL d   1      53.430  28.781  55.337  0.00  0.00     0.029 C 
ENDBRANCH  19  20
ENDBRANCH  17  19
ENDBRANCH  14  17
ENDBRANCH   1  12
BRANCH   2  22
ATOM     22  C   UNL d   1      53.322  33.228  53.932  0.00  0.00     0.323 C 
ATOM     23  O   UNL d   1      54.010  33.274  53.495  0.00  0.00    -0.257 OA
BRANCH  22  24
ATOM     24  O   UNL d   1      53.354  33.123  54.749  0.00  0.00    -0.270 OA
BRANCH  24  25
ATOM     25  C   UNL d   1      54.019  33.386  55.173  0.00  0.00     0.126 C 
ATOM     26  C   UNL d   1      54.100  33.190  55.970  0.00  0.00     0.029 C 
ENDBRANCH  24  25
ENDBRANCH  22  24
ENDBRANCH   2  22
BRANCH  10  27
ATOM     27  C   UNL d   1      49.186  34.252  52.040  0.00  0.00     0.002 C 
BRANCH  27  28
ATOM     28  C   UNL d   1      49.167  34.172  51.219  0.00  0.00     0.000 C 
ATOM     29  C   UNL d   1      48.452  34.360  50.823  0.00  0.00     0.000 C 
ENDBRANCH  27  28
ENDBRANCH  10  27
BRANCH   9  30
ATOM     30  O   UNL d   1      49.783  35.548  52.943  0.00  0.00    -0.273 OA
BRANCH  30  31
ATOM     31  C   UNL d   1      49.516  35.782  53.665  0.00  0.00     0.300 C 
ATOM     32  O   UNL d   1      49.908  35.888  54.132  0.00  0.00    -0.259 OA
ATOM     33  C   UNL d   1      48.711  35.888  53.799  0.00  0.00     0.074 C 
ENDBRANCH  30  31
ENDBRANCH   9  30
TORSDOF 11
ENDMDL
MODEL 3
REMARK VINA RESULT:      -3.4      1.445      5.255
REMARK  11 active torsions:
REMARK  status: ('A' for Active; 'I' for Inactive)
REMARK    1  A    between atoms: C_4  and  C_1 
REMARK    2  A    between atoms: C_10  and  C_2 
REMARK    3  A    between atoms: C_16  and  C_9 
REMARK    4  A    between atoms: O_24  and  C_10 
REMARK    5  A    between atoms: O_18  and  C_14 
REMARK    6  A    between atoms: O_25  and  C_16 
REMARK    7  A    between atoms: C_26  and  C_17 
REMARK    8  A    between atoms: C_19  and  O_18 
REMARK    9  A    between atoms: C_29  and  O_24 
REMARK   10  A    between atoms: C_28  and  O_25 
REMARK   11  A    between atoms: C_30  and  C_26 
ROOT
ATOM      1  C   UNL d   1      52.846  32.438  53.478  0.00  0.00     0.090 A 
ATOM      2  C   UNL d   1      53.311  32.429  54.160  0.00  0.00     0.168 A 
ATOM      3  C   UNL d   1      52.633  31.722  53.115  0.00  0.00     0.201 A 
ATOM      4  C   UNL d   1      52.885  30.996  53.431  0.00  0.00     0.062 A 
ATOM      5  O   UNL d   1      53.563  31.703  54.477  0.00  0.00    -0.301 OA
ATOM      6  C   UNL d   1      53.350  30.986  54.113  0.00  0.00     0.105 A 
ATOM      7  C   UNL d   1      52.672  30.297  53.068  0.00  0.00     0.007 A 
ATOM      8  C   UNL d   1      53.601  30.278  54.430  0.00  0.00     0.050 A 
ATOM      9  C   UNL d   1      53.389  29.561  54.066  0.00  0.00     0.105 A 
ATOM     10  C   UNL d   1      52.924  29.571  53.385  0.00  0.00     0.023 A 
ATOM     11  O   UNL d   1      52.168  31.732  52.433  0.00  0.00    -0.286 OA
ENDROOT
BRANCH   1  12
ATOM     12  C   UNL d   1      52.594  33.164  53.162  0.00  0.00     0.105 A 
ATOM     13  O   UNL d   1      51.824  33.446  53.259  0.00  0.00    -0.302 OA
ATOM     14  C   UNL d   1      51.778  34.163  52.879  0.00  0.00     0.163 A 
ATOM     15  C   UNL d   1      52.503  34.333  52.548  0.00  0.00     0.032 A 
ATOM     16  C   UNL d   1      53.029  33.703  52.722  0.00  0.00     0.027 A 
BRANCH  14  17
ATOM     17  C   UNL d   1      51.096  34.658  52.830  0.00  0.00     0.323 C 
ATOM     18  O   UNL d   1      51.058  35.361  53.305  0.00  0.00    -0.257 OA
BRANCH  17  19
ATOM     19  O   UNL d   1      50.473  34.477  52.336  0.00  0.00    -0.270 OA
BRANCH  19  20
ATOM     20  C   UNL d   1      49.718  34.788  52.452  0.00  0.00     0.126 C 
ATOM     21  C   UNL d   1      49.129  34.660  51.914  0.00  0.00     0.029 C 
ENDBRANCH  19  20
ENDBRANCH  17  19
ENDBRANCH  14  17
ENDBRANCH   1  12
BRANCH   2  22
ATOM     22  C   UNL d   1      53.535  33.161  54.542  0.00  0.00     0.323 C 
ATOM     23  O   UNL d   1      52.978  33.573  54.975  0.00  0.00    -0.257 OA
BRANCH  22  24
ATOM     24  O   UNL d   1      54.305  33.449  54.473  0.00  0.00    -0.270 OA
BRANCH  24  25
ATOM     25  C   UNL d   1      54.703  33.724  55.149  0.00  0.00     0.126 C 
ATOM     26  C   UNL d   1      55.480  33.996  55.084  0.00  0.00     0.029 C 
ENDBRANCH  24  25
ENDBRANCH  22  24
ENDBRANCH   2  22
BRANCH  10  27
ATOM     27  C   UNL d   1      52.702  28.839  53.005  0.00  0.00     0.002 C 
BRANCH  27  28
ATOM     28  C   UNL d   1      52.193  28.872  52.356  0.00  0.00     0.000 C 
ATOM     29  C   UNL d   1      51.888  28.147  52.060  0.00  0.00     0.000 C 
ENDBRANCH  27  28
ENDBRANCH  10  27
BRANCH   9  30
ATOM     30  O   UNL d   1      53.653  28.819  54.400  0.00  0.00    -0.273 OA
BRANCH  30  31
ATOM     31  C   UNL d   1      53.506  28.663  55.174  0.00  0.00     0.300 C 
ATOM     32  O   UNL d   1      52.926  28.651  55.394  0.00  0.00    -0.259 OA
ATOM     33  C   UNL d   1      54.125  28.514  55.696  0.00  0.00     0.074 C 
ENDBRANCH  30  31
ENDBRANCH   9  30
TORSDOF 11
ENDMDL
MODEL 4
REMARK VINA RESULT:      -2.9      1.200      2.714
REMARK  11 active torsions:
REMARK  status: ('A' for Active; 'I' for Inactive)
REMARK    1  A    between atoms: C_4  and  C_1 
REMARK    2  A    between atoms: C_10  and  C_2 
REMARK    3  A    between atoms: C_16  and  C_9 
REMARK    4  A    between atoms: O_24  and  C_10 
REMARK    5  A    between atoms: O_18  and  C_14 
REMARK    6  A    between atoms: O_25  and  C_16 
REMARK    7  A    between atoms: C_26  and  C_17 
REMARK    8  A    between atoms: C_19  and  O_18 
REMARK    9  A    between atoms: C_29  and  O_24 
REMARK   10  A    between atoms: C_28  and  O_25 
REMARK   11  A    between atoms: C_30  and  C_26 
ROOT
ATOM      1  C   UNL d   1      51.720  34.326  53.224  0.00  0.00     0.090 A 
ATOM      2  C   UNL d   1      51.587  33.714  52.687  0.00  0.00     0.168 A 
ATOM      3  C   UNL d   1      51.112  34.868  53.390  0.00  0.00     0.201 A 
ATOM      4  C   UNL d   1      50.371  34.798  53.019  0.00  0.00     0.062 A 
ATOM      5  O   UNL d   1      50.846  33.644  52.317  0.00  0.00    -0.301 OA
ATOM      6  C   UNL d   1      50.238  34.186  52.483  0.00  0.00     0.105 A 
ATOM      7  C   UNL d   1      49.779  35.334  53.188  0.00  0.00     0.007 A 
ATOM      8  C   UNL d   1      49.514  34.110  52.115  0.00  0.00     0.050 A 
ATOM      9  C   UNL d   1      48.906  34.652  52.281  0.00  0.00     0.105 A 
ATOM     10  C   UNL d   1      49.038  35.264  52.817  0.00  0.00     0.023 A 
ATOM     11  O   UNL d   1      51.245  35.480  53.926  0.00  0.00    -0.286 OA
ENDROOT
BRANCH   1  12
ATOM     12  C   UNL d   1      52.460  34.396  53.594  0.00  0.00     0.105 A 
ATOM     13  O   UNL d   1      52.648  33.992  54.289  0.00  0.00    -0.302 OA
ATOM     14  C   UNL d   1      53.410  34.192  54.488  0.00  0.00     0.163 A 
ATOM     15  C   UNL d   1      53.701  34.711  53.932  0.00  0.00     0.032 A 
ATOM     16  C   UNL d   1      53.104  34.848  53.359  0.00  0.00     0.027 A 
BRANCH  14  17
ATOM     17  C   UNL d   1      53.839  33.912  55.160  0.00  0.00     0.323 C 
ATOM     18  O   UNL d   1      54.420  34.415  55.520  0.00  0.00    -0.257 OA
BRANCH  17  19
ATOM     19  O   UNL d   1      53.709  33.170  55.470  0.00  0.00    -0.270 OA
BRANCH  19  20
ATOM     20  C   UNL d   1      54.325  32.644  55.622  0.00  0.00     0.126 C 
ATOM     21  C   UNL d   1      54.177  31.865  55.781  0.00  0.00     0.029 C 
ENDBRANCH  19  20
ENDBRANCH  17  19
ENDBRANCH  14  17
ENDBRANCH   1  12
BRANCH   2  22
ATOM     22  C   UNL d   1      52.207  33.151  52.510  0.00  0.00     0.323 C 
ATOM     23  O   UNL d   1      52.808  33.366  52.000  0.00  0.00    -0.257 OA
BRANCH  22  24
ATOM     24  O   UNL d   1      52.198  32.399  52.850  0.00  0.00    -0.270 OA
BRANCH  24  25
ATOM     25  C   UNL d   1      52.493  31.750  52.422  0.00  0.00     0.126 C 
ATOM     26  C   UNL d   1      52.572  31.018  52.794  0.00  0.00     0.029 C 
ENDBRANCH  24  25
ENDBRANCH  22  24
ENDBRANCH   2  22
BRANCH  10  27
ATOM     27  C   UNL d   1      48.418  35.825  52.993  0.00  0.00     0.002 C 
BRANCH  27  28
ATOM     28  C   UNL d   1      48.428  36.204  53.726  0.00  0.00     0.000 C 
ATOM     29  C   UNL d   1      47.757  36.661  53.939  0.00  0.00     0.000 C 
ENDBRANCH  27  28
ENDBRANCH  10  27
BRANCH   9  30
ATOM     30  O   UNL d   1      48.146  34.572  51.894  0.00  0.00    -0.273 OA
BRANCH  30  31
ATOM     31  C   UNL d   1      48.116  34.544  51.091  0.00  0.00     0.300 C 
ATOM     32  O   UNL d   1      48.433  34.117  50.773  0.00  0.00    -0.259 OA
ATOM     33  C   UNL d   1      47.660  35.086  50.671  0.00  0.00     0.074 C 
ENDBRANCH  30  31
ENDBRANCH   9  30
TORSDOF 11
ENDMDL
MODEL 5
REMARK VINA RESULT:      -2.8      1.064      5.045
REMARK  11 active torsions:
REMARK  status: ('A' for Active; 'I' for Inactive)
REMARK    1  A    between atoms: C_4  and  C_1 
REMARK    2  A    between atoms: C_10  and  C_2 
REMARK    3  A    between atoms: C_16  and  C_9 
REMARK    4  A    between atoms: O_24  and  C_10 
REMARK    5  A    between atoms: O_18  and  C_14 
REMARK    6  A    between atoms: O_25  and  C_16 
REMARK    7  A    between atoms: C_26  and  C_17 
REMARK    8  A    between atoms: C_19  and  O_18 
REMARK    9  A    between atoms: C_29  and  O_24 
REMARK   10  A    between atoms: C_28  and  O_25 
REMARK   11  A    between atoms: C_30  and  C_26 
ROOT
ATOM      1  C   UNL d   1      51.354  33.830  53.144  0.00  0.00     0.090 A 
ATOM      2  C   UNL d   1      51.987  34.329  53.322  0.00  0.00     0.168 A 
ATOM      3  C   UNL d   1      51.484  33.013  53.060  0.00  0.00     0.201 A 
ATOM      4  C   UNL d   1      52.246  32.695  53.152  0.00  0.00     0.062 A 
ATOM      5  O   UNL d   1      52.749  34.010  53.414  0.00  0.00    -0.301 OA
ATOM      6  C   UNL d   1      52.879  33.193  53.329  0.00  0.00     0.105 A 
ATOM      7  C   UNL d   1      52.365  31.892  53.067  0.00  0.00     0.007 A 
ATOM      8  C   UNL d   1      53.630  32.889  53.421  0.00  0.00     0.050 A 
ATOM      9  C   UNL d   1      53.760  32.072  53.336  0.00  0.00     0.105 A 
ATOM     10  C   UNL d   1      53.127  31.574  53.159  0.00  0.00     0.023 A 
ATOM     11  O   UNL d   1      50.851  32.515  52.883  0.00  0.00    -0.286 OA
ENDROOT
BRANCH   1  12
ATOM     12  C   UNL d   1      50.592  34.148  53.052  0.00  0.00     0.105 A 
ATOM     13  O   UNL d   1      50.250  34.272  52.311  0.00  0.00    -0.302 OA
ATOM     14  C   UNL d   1      49.511  34.586  52.433  0.00  0.00     0.163 A 
ATOM     15  C   UNL d   1      49.385  34.660  53.234  0.00  0.00     0.032 A 
ATOM     16  C   UNL d   1      50.067  34.384  53.637  0.00  0.00     0.027 A 
BRANCH  14  17
ATOM     17  C   UNL d   1      48.957  34.804  51.835  0.00  0.00     0.323 C 
ATOM     18  O   UNL d   1      49.069  34.522  51.042  0.00  0.00    -0.257 OA
BRANCH  17  19
ATOM     19  O   UNL d   1      48.315  35.279  52.000  0.00  0.00    -0.270 OA
BRANCH  19  20
ATOM     20  C   UNL d   1      47.737  35.445  51.438  0.00  0.00     0.126 C 
ATOM     21  C   UNL d   1      47.093  35.897  51.625  0.00  0.00     0.029 C 
ENDBRANCH  19  20
ENDBRANCH  17  19
ENDBRANCH  14  17
ENDBRANCH   1  12
BRANCH   2  22
ATOM     22  C   UNL d   1      51.863  35.171  53.411  0.00  0.00     0.323 C 
ATOM     23  O   UNL d   1      51.677  35.619  52.754  0.00  0.00    -0.257 OA
BRANCH  22  24
ATOM     24  O   UNL d   1      51.931  35.526  54.152  0.00  0.00    -0.270 OA
BRANCH  24  25
ATOM     25  C   UNL d   1      52.535  36.080  54.290  0.00  0.00     0.126 C 
ATOM     26  C   UNL d   1      52.707  36.314  55.062  0.00  0.00     0.029 C 
ENDBRANCH  24  25
ENDBRANCH  22  24
ENDBRANCH   2  22
BRANCH  10  27
ATOM     27  C   UNL d   1      53.253  30.733  53.071  0.00  0.00     0.002 C 
BRANCH  27  28
ATOM     28  C   UNL d   1      52.650  30.219  53.301  0.00  0.00     0.000 C 
ATOM     29  C   UNL d   1      52.820  29.398  53.319  0.00  0.00     0.000 C 
ENDBRANCH  27  28
ENDBRANCH  10  27
BRANCH   9  30
ATOM     30  O   UNL d   1      54.548  31.754  53.433  0.00  0.00    -0.273 OA
BRANCH  30  31
ATOM     31  C   UNL d   1      55.155  32.253  53.604  0.00  0.00     0.300 C 
ATOM     32  O   UNL d   1      55.239  32.470  54.178  0.00  0.00    -0.259 OA
ATOM     33  C   UNL d   1      55.681  32.489  53.017  0.00  0.00     0.074 C 
ENDBRANCH  30  31
ENDBRANCH   9  30
TORSDOF 11
ENDMDL
MODEL 6
REMARK VINA RESULT:      -2.2      1.916      4.224
REMARK  11 active torsions:
REMARK  status: ('A' for Active; 'I' for Inactive)
REMARK    1  A    between atoms: C_4  and  C_1 
REMARK    2  A    between atoms: C_10  and  C_2 
REMARK    3  A    between atoms: C_16  and  C_9 
REMARK    4  A    between atoms: O_24  and  C_10 
REMARK    5  A    between atoms: O_18  and  C_14 
REMARK    6  A    between atoms: O_25  and  C_16 
REMARK    7  A    between atoms: C_26  and  C_17 
REMARK    8  A    between atoms: C_19  and  O_18 
REMARK    9  A    between atoms: C_29  and  O_24 
REMARK   10  A    between atoms: C_28  and  O_25 
REMARK   11  A    between atoms: C_30  and  C_26 
ROOT
ATOM      1  C   UNL d   1      52.812  32.291  53.462  0.00  0.00     0.090 A 
ATOM      2  C   UNL d   1      52.181  32.816  53.375  0.00  0.00     0.168 A 
ATOM      3  C   UNL d   1      53.504  32.540  53.849  0.00  0.00     0.201 A 
ATOM      4  C   UNL d   1      53.566  33.313  54.150  0.00  0.00     0.062 A 
ATOM      5  O   UNL d   1      52.243  33.588  53.676  0.00  0.00    -0.301 OA
ATOM      6  C   UNL d   1      52.935  33.837  54.063  0.00  0.00     0.105 A 
ATOM      7  C   UNL d   1      54.249  33.549  54.528  0.00  0.00     0.007 A 
ATOM      8  C   UNL d   1      52.988  34.597  54.355  0.00  0.00     0.050 A 
ATOM      9  C   UNL d   1      53.680  34.846  54.742  0.00  0.00     0.105 A 
ATOM     10  C   UNL d   1      54.311  34.321  54.829  0.00  0.00     0.023 A 
ATOM     11  O   UNL d   1      54.135  32.016  53.935  0.00  0.00    -0.286 OA
ENDROOT
BRANCH   1  12
ATOM     12  C   UNL d   1      52.751  31.520  53.162  0.00  0.00     0.105 A 
ATOM     13  O   UNL d   1      52.729  30.854  53.651  0.00  0.00    -0.302 OA
ATOM     14  C   UNL d   1      52.667  30.202  53.170  0.00  0.00     0.163 A 
ATOM     15  C   UNL d   1      52.650  30.446  52.394  0.00  0.00     0.032 A 
ATOM     16  C   UNL d   1      52.703  31.283  52.377  0.00  0.00     0.027 A 
BRANCH  14  17
ATOM     17  C   UNL d   1      52.627  29.398  53.425  0.00  0.00     0.323 C 
ATOM     18  O   UNL d   1      52.424  28.794  52.864  0.00  0.00    -0.257 OA
BRANCH  17  19
ATOM     19  O   UNL d   1      52.778  29.188  54.199  0.00  0.00    -0.270 OA
BRANCH  19  20
ATOM     20  C   UNL d   1      53.320  28.599  54.394  0.00  0.00     0.126 C 
ATOM     21  C   UNL d   1      53.478  28.419  55.166  0.00  0.00     0.029 C 
ENDBRANCH  19  20
ENDBRANCH  17  19
ENDBRANCH  14  17
ENDBRANCH   1  12
BRANCH   2  22
ATOM     22  C   UNL d   1      51.464  32.569  52.978  0.00  0.00     0.323 C 
ATOM     23  O   UNL d   1      51.011  31.974  53.306  0.00  0.00    -0.257 OA
BRANCH  22  24
ATOM     24  O   UNL d   1      51.234  32.928  52.272  0.00  0.00    -0.270 OA
BRANCH  24  25
ATOM     25  C   UNL d   1      50.502  33.320  52.229  0.00  0.00     0.126 C 
ATOM     26  C   UNL d   1      50.380  33.897  51.652  0.00  0.00     0.029 C 
ENDBRANCH  24  25
ENDBRANCH  22  24
ENDBRANCH   2  22
BRANCH  10  27
ATOM     27  C   UNL d   1      55.026  34.570  55.225  0.00  0.00     0.002 C 
BRANCH  27  28
ATOM     28  C   UNL d   1      55.561  33.991  55.469  0.00  0.00     0.000 C 
ATOM     29  C   UNL d   1      55.939  34.095  56.212  0.00  0.00     0.000 C 
ENDBRANCH  27  28
ENDBRANCH  10  27
BRANCH   9  30
ATOM     30  O   UNL d   1      53.735  35.643  55.048  0.00  0.00    -0.273 OA
BRANCH  30  31
ATOM     31  C   UNL d   1      53.229  36.204  54.773  0.00  0.00     0.300 C 
ATOM     32  O   UNL d   1      53.336  36.497  54.237  0.00  0.00    -0.259 OA
ATOM     33  C   UNL d   1      52.553  36.404  55.198  0.00  0.00     0.074 C 
ENDBRANCH  30  31
ENDBRANCH   9  30
TORSDOF 11
ENDMDL
