MODEL 1
REMARK VINA RESULT:      -8.8      0.000      0.000
REMARK  4 active torsions:
REMARK  status: ('A' for Active; 'I' for Inactive)
REMARK    1  A    between atoms: C_8  and  C_1 
REMARK    2  A    between atoms: C_6  and  C_16 
REMARK    3  A    between atoms: O_13  and  C_8 
REMARK    4  A    between atoms: C_16  and  O_13 
ROOT
ATOM      1  C   UNL d   1      51.571  34.009  52.444  0.00  0.00     0.305 C 
ATOM      2  O   UNL d   1      51.735  34.077  51.624  0.00  0.00    -0.259 OA
ENDROOT
BRANCH   1   3
ATOM      3  C   UNL d   1      52.160  33.678  52.996  0.00  0.00     0.127 A 
ATOM      4  C   UNL d   1      52.331  32.857  52.977  0.00  0.00     0.305 A 
ATOM      5  O   UNL d   1      52.881  32.588  53.503  0.00  0.00    -0.273 OA
ATOM      6  O   UNL d   1      51.958  32.349  52.449  0.00  0.00    -0.259 OA
ATOM      7  C   UNL d   1      53.255  33.080  54.028  0.00  0.00     0.103 A 
ATOM      8  C   UNL d   1      53.073  33.892  54.033  0.00  0.00     0.023 A 
ATOM      9  C   UNL d   1      53.808  32.812  54.557  0.00  0.00     0.025 A 
ATOM     10  C   UNL d   1      52.509  34.192  53.500  0.00  0.00     0.013 A 
ATOM     11  C   UNL d   1      53.436  34.416  54.554  0.00  0.00     0.002 A 
ATOM     12  C   UNL d   1      53.993  34.107  55.078  0.00  0.00     0.000 A 
ATOM     13  C   UNL d   1      54.184  33.306  55.085  0.00  0.00     0.002 A 
ENDBRANCH   1   3
BRANCH   1  14
ATOM     14  O   UNL d   1      50.853  34.254  52.730  0.00  0.00    -0.269 OA
BRANCH  14  15
ATOM     15  C   UNL d   1      50.231  34.367  52.239  0.00  0.00     0.152 C 
BRANCH  15  16
ATOM     16  C   UNL d   1      49.586  34.828  52.494  0.00  0.00     0.136 A 
ATOM     17  N   UNL d   1      49.455  35.215  53.204  0.00  0.00    -0.236 NA
ATOM     18  C   UNL d   1      48.724  35.584  53.146  0.00  0.00     0.088 A 
ATOM     19  C   UNL d   1      48.295  36.051  53.675  0.00  0.00     0.020 A 
ATOM     20  C   UNL d   1      48.422  35.413  52.396  0.00  0.00     0.049 A 
ATOM     21  C   UNL d   1      47.547  36.364  53.471  0.00  0.00     0.002 A 
ATOM     22  C   UNL d   1      47.266  36.184  52.727  0.00  0.00     0.001 A 
ATOM     23  C   UNL d   1      47.693  35.710  52.179  0.00  0.00     0.008 A 
ATOM     24  S   UNL d   1      48.953  34.953  52.006  0.00  0.00    -0.064 SA
ENDBRANCH  15  16
ENDBRANCH  14  15
ENDBRANCH   1  14
TORSDOF 4
ENDMDL
MODEL 2
REMARK VINA RESULT:      -8.6      1.795      2.746
REMARK  4 active torsions:
REMARK  status: ('A' for Active; 'I' for Inactive)
REMARK    1  A    between atoms: C_8  and  C_1 
REMARK    2  A    between atoms: C_6  and  C_16 
REMARK    3  A    between atoms: O_13  and  C_8 
REMARK    4  A    between atoms: C_16  and  O_13 
ROOT
ATOM      1  C   UNL d   1      53.024  32.976  53.129  0.00  0.00     0.305 C 
ATOM      2  O   UNL d   1      53.653  33.504  52.961  0.00  0.00    -0.259 OA
ENDROOT
BRANCH   1   3
ATOM      3  C   UNL d   1      53.176  32.181  53.455  0.00  0.00     0.127 A 
ATOM      4  C   UNL d   1      53.595  32.103  54.178  0.00  0.00     0.305 A 
ATOM      5  O   UNL d   1      53.716  31.352  54.448  0.00  0.00    -0.273 OA
ATOM      6  O   UNL d   1      53.870  32.758  54.592  0.00  0.00    -0.259 OA
ATOM      7  C   UNL d   1      53.449  30.700  54.048  0.00  0.00     0.103 A 
ATOM      8  C   UNL d   1      53.035  30.796  53.332  0.00  0.00     0.023 A 
ATOM      9  C   UNL d   1      53.570  29.945  54.318  0.00  0.00     0.025 A 
ATOM     10  C   UNL d   1      52.899  31.560  53.035  0.00  0.00     0.013 A 
ATOM     11  C   UNL d   1      52.752  30.152  52.904  0.00  0.00     0.002 A 
ATOM     12  C   UNL d   1      52.894  29.399  53.210  0.00  0.00     0.000 A 
ATOM     13  C   UNL d   1      53.302  29.288  53.916  0.00  0.00     0.002 A 
ENDBRANCH   1   3
BRANCH   1  14
ATOM     14  O   UNL d   1      52.260  33.206  52.984  0.00  0.00    -0.269 OA
BRANCH  14  15
ATOM     15  C   UNL d   1      52.089  33.961  52.780  0.00  0.00     0.152 C 
BRANCH  15  16
ATOM     16  C   UNL d   1      51.318  34.153  52.532  0.00  0.00     0.136 A 
ATOM     17  N   UNL d   1      50.950  34.054  51.806  0.00  0.00    -0.236 NA
ATOM     18  C   UNL d   1      50.186  34.345  51.881  0.00  0.00     0.088 A 
ATOM     19  C   UNL d   1      49.558  34.398  51.347  0.00  0.00     0.020 A 
ATOM     20  C   UNL d   1      50.103  34.618  52.657  0.00  0.00     0.049 A 
ATOM     21  C   UNL d   1      48.823  34.726  51.572  0.00  0.00     0.002 A 
ATOM     22  C   UNL d   1      48.760  34.989  52.342  0.00  0.00     0.001 A 
ATOM     23  C   UNL d   1      49.392  34.942  52.894  0.00  0.00     0.008 A 
ATOM     24  S   UNL d   1      50.796  34.497  53.045  0.00  0.00    -0.064 SA
ENDBRANCH  15  16
ENDBRANCH  14  15
ENDBRANCH   1  14
TORSDOF 4
ENDMDL
MODEL 3
REMARK VINA RESULT:      -8.5      2.086      5.343
REMARK  4 active torsions:
REMARK  status: ('A' for Active; 'I' for Inactive)
REMARK    1  A    between atoms: C_8  and  C_1 
REMARK    2  A    between atoms: C_6  and  C_16 
REMARK    3  A    between atoms: O_13  and  C_8 
REMARK    4  A    between atoms: C_16  and  O_13 
ROOT
ATOM      1  C   UNL d   1      51.557  34.204  52.575  0.00  0.00     0.305 C 
ATOM      2  O   UNL d   1      52.176  34.769  52.546  0.00  0.00    -0.259 OA
ENDROOT
BRANCH   1   3
ATOM      3  C   UNL d   1      50.728  34.432  52.430  0.00  0.00     0.127 A 
ATOM      4  C   UNL d   1      50.290  34.813  53.036  0.00  0.00     0.305 A 
ATOM      5  O   UNL d   1      49.526  35.009  52.864  0.00  0.00    -0.273 OA
ATOM      6  O   UNL d   1      50.622  34.978  53.770  0.00  0.00    -0.259 OA
ATOM      7  C   UNL d   1      49.191  34.850  52.144  0.00  0.00     0.103 A 
ATOM      8  C   UNL d   1      49.640  34.473  51.554  0.00  0.00     0.023 A 
ATOM      9  C   UNL d   1      48.423  35.047  51.969  0.00  0.00     0.025 A 
ATOM     10  C   UNL d   1      50.428  34.261  51.708  0.00  0.00     0.013 A 
ATOM     11  C   UNL d   1      49.326  34.299  50.813  0.00  0.00     0.002 A 
ATOM     12  C   UNL d   1      48.542  34.514  50.672  0.00  0.00     0.000 A 
ATOM     13  C   UNL d   1      48.085  34.888  51.245  0.00  0.00     0.002 A 
ENDBRANCH   1   3
BRANCH   1  14
ATOM     14  O   UNL d   1      51.732  33.429  52.742  0.00  0.00    -0.269 OA
BRANCH  14  15
ATOM     15  C   UNL d   1      52.491  33.179  52.790  0.00  0.00     0.152 C 
BRANCH  15  16
ATOM     16  C   UNL d   1      52.648  32.375  52.941  0.00  0.00     0.136 A 
ATOM     17  N   UNL d   1      52.262  31.699  52.686  0.00  0.00    -0.236 NA
ATOM     18  C   UNL d   1      52.662  31.058  53.008  0.00  0.00     0.088 A 
ATOM     19  C   UNL d   1      52.538  30.243  52.953  0.00  0.00     0.020 A 
ATOM     20  C   UNL d   1      53.288  31.359  53.456  0.00  0.00     0.049 A 
ATOM     21  C   UNL d   1      53.038  29.700  53.345  0.00  0.00     0.002 A 
ATOM     22  C   UNL d   1      53.650  30.016  53.782  0.00  0.00     0.001 A 
ATOM     23  C   UNL d   1      53.786  30.844  53.846  0.00  0.00     0.008 A 
ATOM     24  S   UNL d   1      53.272  32.161  53.410  0.00  0.00    -0.064 SA
ENDBRANCH  15  16
ENDBRANCH  14  15
ENDBRANCH   1  14
TORSDOF 4
ENDMDL
MODEL 4
REMARK VINA RESULT:      -7.5      1.430      5.029
REMARK  4 active torsions:
REMARK  status: ('A' for Active; 'I' for Inactive)
REMARK    1  A    between atoms: C_8  and  C_1 
REMARK    2  A    between atoms: C_6  and  C_16 
REMARK    3  A    between atoms: O_13  and  C_8 
REMARK    4  A    between atoms: C_16  and  O_13 
ROOT
ATOM      1  C   UNL d   1      49.830  34.508  51.937  0.00  0.00     0.305 C 
ATOM      2  O   UNL d   1      49.950  34.147  51.190  0.00  0.00    -0.259 OA
ENDROOT
BRANCH   1   3
ATOM      3  C   UNL d   1      49.103  34.958  52.111  0.00  0.00     0.127 A 
ATOM      4  C   UNL d   1      48.515  35.040  51.518  0.00  0.00     0.305 A 
ATOM      5  O   UNL d   1      47.856  35.463  51.716  0.00  0.00    -0.273 OA
ATOM      6  O   UNL d   1      48.602  34.705  50.772  0.00  0.00    -0.259 OA
ATOM      7  C   UNL d   1      47.760  35.797  52.449  0.00  0.00     0.103 A 
ATOM      8  C   UNL d   1      48.355  35.706  53.024  0.00  0.00     0.023 A 
ATOM      9  C   UNL d   1      47.100  36.222  52.649  0.00  0.00     0.025 A 
ATOM     10  C   UNL d   1      49.041  35.274  52.843  0.00  0.00     0.013 A 
ATOM     11  C   UNL d   1      48.285  36.033  53.776  0.00  0.00     0.002 A 
ATOM     12  C   UNL d   1      47.599  36.459  53.944  0.00  0.00     0.000 A 
ATOM     13  C   UNL d   1      47.003  36.558  53.386  0.00  0.00     0.002 A 
ENDBRANCH   1   3
BRANCH   1  14
ATOM     14  O   UNL d   1      50.400  34.439  52.510  0.00  0.00    -0.269 OA
BRANCH  14  15
ATOM     15  C   UNL d   1      51.093  34.067  52.359  0.00  0.00     0.152 C 
BRANCH  15  16
ATOM     16  C   UNL d   1      51.698  34.079  52.932  0.00  0.00     0.136 A 
ATOM     17  N   UNL d   1      52.041  34.706  53.332  0.00  0.00    -0.236 NA
ATOM     18  C   UNL d   1      52.611  34.390  53.831  0.00  0.00     0.088 A 
ATOM     19  C   UNL d   1      53.133  34.740  54.367  0.00  0.00     0.020 A 
ATOM     20  C   UNL d   1      52.603  33.571  53.725  0.00  0.00     0.049 A 
ATOM     21  C   UNL d   1      53.668  34.280  54.816  0.00  0.00     0.002 A 
ATOM     22  C   UNL d   1      53.645  33.473  54.696  0.00  0.00     0.001 A 
ATOM     23  C   UNL d   1      53.118  33.106  54.154  0.00  0.00     0.008 A 
ATOM     24  S   UNL d   1      52.045  33.391  53.175  0.00  0.00    -0.064 SA
ENDBRANCH  15  16
ENDBRANCH  14  15
ENDBRANCH   1  14
TORSDOF 4
ENDMDL
MODEL 5
REMARK VINA RESULT:      -6.7      3.014      5.211
REMARK  4 active torsions:
REMARK  status: ('A' for Active; 'I' for Inactive)
REMARK    1  A    between atoms: C_8  and  C_1 
REMARK    2  A    between atoms: C_6  and  C_16 
REMARK    3  A    between atoms: O_13  and  C_8 
REMARK    4  A    between atoms: C_16  and  O_13 
ROOT
ATOM      1  C   UNL d   1      52.568  32.655  52.886  0.00  0.00     0.305 C 
ATOM      2  O   UNL d   1      52.488  32.554  52.058  0.00  0.00    -0.259 OA
ENDROOT
BRANCH   1   3
ATOM      3  C   UNL d   1      52.555  33.448  53.248  0.00  0.00     0.127 A 
ATOM      4  C   UNL d   1      51.961  33.997  53.023  0.00  0.00     0.305 A 
ATOM      5  O   UNL d   1      51.982  34.721  53.380  0.00  0.00    -0.273 OA
ATOM      6  O   UNL d   1      51.386  33.808  52.467  0.00  0.00    -0.259 OA
ATOM      7  C   UNL d   1      52.545  34.917  53.929  0.00  0.00     0.103 A 
ATOM      8  C   UNL d   1      53.127  34.360  54.140  0.00  0.00     0.023 A 
ATOM      9  C   UNL d   1      52.568  35.644  54.288  0.00  0.00     0.025 A 
ATOM     10  C   UNL d   1      53.125  33.608  53.786  0.00  0.00     0.013 A 
ATOM     11  C   UNL d   1      53.711  34.531  54.694  0.00  0.00     0.002 A 
ATOM     12  C   UNL d   1      53.702  35.280  55.039  0.00  0.00     0.000 A 
ATOM     13  C   UNL d   1      53.134  35.842  54.840  0.00  0.00     0.002 A 
ENDBRANCH   1   3
BRANCH   1  14
ATOM     14  O   UNL d   1      52.658  32.003  53.361  0.00  0.00    -0.269 OA
BRANCH  14  15
ATOM     15  C   UNL d   1      52.780  31.278  53.047  0.00  0.00     0.152 C 
BRANCH  15  16
ATOM     16  C   UNL d   1      52.939  30.634  53.551  0.00  0.00     0.136 A 
ATOM     17  N   UNL d   1      52.951  30.587  54.369  0.00  0.00    -0.236 NA
ATOM     18  C   UNL d   1      53.142  29.813  54.563  0.00  0.00     0.088 A 
ATOM     19  C   UNL d   1      53.237  29.431  55.289  0.00  0.00     0.020 A 
ATOM     20  C   UNL d   1      53.244  29.400  53.854  0.00  0.00     0.049 A 
ATOM     21  C   UNL d   1      53.437  28.620  55.331  0.00  0.00     0.002 A 
ATOM     22  C   UNL d   1      53.533  28.230  54.621  0.00  0.00     0.001 A 
ATOM     23  C   UNL d   1      53.440  28.609  53.875  0.00  0.00     0.008 A 
ATOM     24  S   UNL d   1      53.119  29.908  53.244  0.00  0.00    -0.064 SA
ENDBRANCH  15  16
ENDBRANCH  14  15
ENDBRANCH   1  14
TORSDOF 4
ENDMDL
MODEL 6
REMARK VINA RESULT:      -6.2      3.085      4.323
REMARK  4 active torsions:
REMARK  status: ('A' for Active; 'I' for Inactive)
REMARK    1  A    between atoms: C_8  and  C_1 
REMARK    2  A    between atoms: C_6  and  C_16 
REMARK    3  A    between atoms: O_13  and  C_8 
REMARK    4  A    between atoms: C_16  and  O_13 
ROOT
ATOM      1  C   UNL d   1      52.817  31.311  52.962  0.00  0.00     0.305 C 
ATOM      2  O   UNL d   1      52.511  31.381  52.184  0.00  0.00    -0.259 OA
ENDROOT
BRANCH   1   3
ATOM      3  C   UNL d   1      52.962  30.529  53.322  0.00  0.00     0.127 A 
ATOM      4  C   UNL d   1      53.012  29.850  52.832  0.00  0.00     0.305 A 
ATOM      5  O   UNL d   1      53.146  29.145  53.202  0.00  0.00    -0.273 OA
ATOM      6  O   UNL d   1      52.928  29.898  52.016  0.00  0.00    -0.259 OA
ATOM      7  C   UNL d   1      53.230  29.087  54.005  0.00  0.00     0.103 A 
ATOM      8  C   UNL d   1      53.178  29.771  54.476  0.00  0.00     0.023 A 
ATOM      9  C   UNL d   1      53.365  28.380  54.379  0.00  0.00     0.025 A 
ATOM     10  C   UNL d   1      53.040  30.508  54.118  0.00  0.00     0.013 A 
ATOM     11  C   UNL d   1      53.259  29.743  55.295  0.00  0.00     0.002 A 
ATOM     12  C   UNL d   1      53.395  29.006  55.639  0.00  0.00     0.000 A 
ATOM     13  C   UNL d   1      53.450  28.320  55.187  0.00  0.00     0.002 A 
ENDBRANCH   1   3
BRANCH   1  14
ATOM     14  O   UNL d   1      52.983  31.981  53.387  0.00  0.00    -0.269 OA
BRANCH  14  15
ATOM     15  C   UNL d   1      52.955  32.704  53.045  0.00  0.00     0.152 C 
BRANCH  15  16
ATOM     16  C   UNL d   1      53.028  33.385  53.520  0.00  0.00     0.136 A 
ATOM     17  N   UNL d   1      53.426  33.502  54.226  0.00  0.00    -0.236 NA
ATOM     18  C   UNL d   1      53.306  34.285  54.442  0.00  0.00     0.088 A 
ATOM     19  C   UNL d   1      53.564  34.727  55.091  0.00  0.00     0.020 A 
ATOM     20  C   UNL d   1      52.834  34.632  53.859  0.00  0.00     0.049 A 
ATOM     21  C   UNL d   1      53.358  35.532  55.178  0.00  0.00     0.002 A 
ATOM     22  C   UNL d   1      52.891  35.856  54.592  0.00  0.00     0.001 A 
ATOM     23  C   UNL d   1      52.623  35.417  53.927  0.00  0.00     0.008 A 
ATOM     24  S   UNL d   1      52.670  34.076  53.302  0.00  0.00    -0.064 SA
ENDBRANCH  15  16
ENDBRANCH  14  15
ENDBRANCH   1  14
TORSDOF 4
ENDMDL
