MODEL 1
REMARK VINA RESULT:      31.6      0.000      0.000
REMARK  3 active torsions:
REMARK  status: ('A' for Active; 'I' for Inactive)
REMARK       I    between atoms: C_2  and  N_1 
REMARK    1  A    between atoms: C_3  and  C_2 
REMARK    2  A    between atoms: S_5  and  C_3 
REMARK    3  A    between atoms: C_7  and  S_5 
ROOT
ATOM      1  C   UNL d   1     -51.570  25.245  33.588  0.00  0.00     0.125 C 
ENDROOT
BRANCH   1   2
ATOM      2  C   UNL d   1     -51.766  24.444  33.552  0.00  0.00     0.259 C 
ATOM      3  N   UNL d   1     -52.562  24.213  33.472  0.00  0.00    -0.268 N 
ATOM      4  C   UNL d   1     -53.148  24.793  33.428  0.00  0.00     0.110 A 
ATOM      5  C   UNL d   1     -52.767  23.416  33.435  0.00  0.00     0.110 A 
ATOM      6  C   UNL d   1     -53.939  24.573  33.348  0.00  0.00     0.142 A 
ATOM      7  O   UNL d   1     -54.144  23.776  33.312  0.00  0.00    -0.300 OA
ATOM      8  C   UNL d   1     -53.559  23.196  33.355  0.00  0.00     0.142 A 
ATOM      9  O   UNL d   1     -51.176  23.864  33.596  0.00  0.00    -0.267 OA
ENDBRANCH   1   2
BRANCH   1  10
ATOM     10  S   UNL d   1     -50.782  25.461  33.627  0.00  0.00    -0.095 SA
BRANCH  10  11
ATOM     11  C   UNL d   1     -50.577  26.257  33.701  0.00  0.00     0.029 A 
ATOM     12  C   UNL d   1     -51.038  26.759  34.165  0.00  0.00     0.007 A 
ATOM     13  C   UNL d   1     -50.833  27.555  34.239  0.00  0.00     0.012 A 
ATOM     14  C   UNL d   1     -50.169  27.847  33.849  0.00  0.00     0.058 A 
ATOM     15  C   UNL d   1     -49.708  27.345  33.384  0.00  0.00     0.012 A 
ATOM     16 CL   UNL d   1     -49.953  28.641  33.914  0.00  0.00    -0.082 Cl
ATOM     17  C   UNL d   1     -49.912  26.549  33.310  0.00  0.00     0.007 A 
ENDBRANCH  10  11
ENDBRANCH   1  10
TORSDOF 3
ENDMDL
