MODEL 1
REMARK VINA RESULT:      48.6      0.000      0.000
REMARK  8 active torsions:
REMARK  status: ('A' for Active; 'I' for Inactive)
REMARK    1  A    between atoms: C_3  and  N_1 
REMARK    2  A    between atoms: C_6  and  N_2 
REMARK    3  A    between atoms: C_4  and  C_3 
REMARK    4  A    between atoms: C_7  and  C_3 
REMARK       I    between atoms: C_5  and  N_8 
REMARK    5  A    between atoms: O_18  and  C_5 
REMARK    6  A    between atoms: N_8  and  C_7 
REMARK    7  A    between atoms: C_21  and  O_18 
REMARK    8  A    between atoms: C_22  and  C_21 
ROOT
ATOM      1  C   UNL d   1      13.407  13.075  -3.764  0.00  0.00     0.107 C 
ENDROOT
BRANCH   1   2
ATOM      2  N   UNL d   1      13.722  13.845  -3.795  0.00  0.00    -0.298 N 
ATOM      3  C   UNL d   1      13.402  14.391  -4.324  0.00  0.00     0.100 A 
ATOM      4  C   UNL d   1      13.706  15.157  -4.364  0.00  0.00     0.100 A 
ATOM      5  N   UNL d   1      14.332  15.377  -3.874  0.00  0.00    -0.299 N 
ATOM      6  C   UNL d   1      14.650  14.830  -3.347  0.00  0.00     0.100 A 
ATOM      7  C   UNL d   1      14.348  14.065  -3.305  0.00  0.00     0.100 A 
BRANCH   5   8
ATOM      8  C   UNL d   1      14.634  16.137  -3.914  0.00  0.00     0.092 A 
ATOM      9  C   UNL d   1      14.915  16.510  -3.236  0.00  0.00     0.156 A 
ATOM     10  F   UNL d   1      14.893  16.114  -2.512  0.00  0.00    -0.203 F 
ATOM     11  C   UNL d   1      15.219  17.274  -3.273  0.00  0.00     0.031 A 
ATOM     12  C   UNL d   1      15.241  17.670  -3.997  0.00  0.00     0.002 A 
ATOM     13  C   UNL d   1      14.958  17.297  -4.681  0.00  0.00     0.002 A 
ATOM     14  C   UNL d   1      14.656  16.533  -4.637  0.00  0.00     0.020 A 
ENDBRANCH   5   8
ENDBRANCH   1   2
BRANCH   1  15
ATOM     15  C   UNL d   1      13.273  12.649  -4.457  0.00  0.00     0.118 A 
ATOM     16  O   UNL d   1      13.552  12.928  -5.178  0.00  0.00    -0.304 OA
ATOM     17  C   UNL d   1      13.333  12.386  -5.766  0.00  0.00     0.123 A 
ATOM     18  C   UNL d   1      12.923  11.780  -5.408  0.00  0.00     0.029 A 
ATOM     19  C   UNL d   1      12.883  11.935  -4.605  0.00  0.00     0.028 A 
ENDBRANCH   1  15
BRANCH   1  20
ATOM     20  C   UNL d   1      13.227  12.735  -3.025  0.00  0.00     0.124 C 
BRANCH  20  21
ATOM     21  N   UNL d   1      13.818  12.642  -2.458  0.00  0.00    -0.183 NA
ATOM     22  C   UNL d   1      13.688  12.166  -1.799  0.00  0.00     0.392 C 
ATOM     23  O   UNL d   1      12.972  11.781  -1.702  0.00  0.00    -0.236 OA
BRANCH  22  24
ATOM     24  O   UNL d   1      14.282  12.077  -1.235  0.00  0.00    -0.256 OA
BRANCH  24  25
ATOM     25  C   UNL d   1      14.222  12.456  -0.508  0.00  0.00     0.128 C 
BRANCH  25  26
ATOM     26  C   UNL d   1      14.692  13.114  -0.344  0.00  0.00     0.025 A 
ATOM     27  C   UNL d   1      15.514  13.044  -0.343  0.00  0.00     0.002 A 
ATOM     28  C   UNL d   1      15.983  13.702  -0.179  0.00  0.00     0.000 A 
ATOM     29  C   UNL d   1      15.630  14.430  -0.014  0.00  0.00     0.000 A 
ATOM     30  C   UNL d   1      14.815  14.494  -0.016  0.00  0.00     0.000 A 
ATOM     31  C   UNL d   1      14.338  13.841  -0.179  0.00  0.00     0.002 A 
ENDBRANCH  25  26
ENDBRANCH  24  25
ENDBRANCH  22  24
ENDBRANCH  20  21
ENDBRANCH   1  20
TORSDOF 8
ENDMDL
MODEL 2
REMARK VINA RESULT:      51.4      1.709      3.688
REMARK  8 active torsions:
REMARK  status: ('A' for Active; 'I' for Inactive)
REMARK    1  A    between atoms: C_3  and  N_1 
REMARK    2  A    between atoms: C_6  and  N_2 
REMARK    3  A    between atoms: C_4  and  C_3 
REMARK    4  A    between atoms: C_7  and  C_3 
REMARK       I    between atoms: C_5  and  N_8 
REMARK    5  A    between atoms: O_18  and  C_5 
REMARK    6  A    between atoms: N_8  and  C_7 
REMARK    7  A    between atoms: C_21  and  O_18 
REMARK    8  A    between atoms: C_22  and  C_21 
ROOT
ATOM      1  C   UNL d   1      13.251  13.383  -4.356  0.00  0.00     0.107 C 
ENDROOT
BRANCH   1   2
ATOM      2  N   UNL d   1      13.557  13.120  -3.628  0.00  0.00    -0.298 N 
ATOM      3  C   UNL d   1      14.357  12.929  -3.571  0.00  0.00     0.100 A 
ATOM      4  C   UNL d   1      14.671  12.667  -2.854  0.00  0.00     0.100 A 
ATOM      5  N   UNL d   1      14.183  12.595  -2.193  0.00  0.00    -0.299 N 
ATOM      6  C   UNL d   1      13.384  12.786  -2.253  0.00  0.00     0.100 A 
ATOM      7  C   UNL d   1      13.069  13.048  -2.966  0.00  0.00     0.100 A 
BRANCH   5   8
ATOM      8  C   UNL d   1      14.495  12.335  -1.482  0.00  0.00     0.092 A 
ATOM      9  C   UNL d   1      15.279  12.089  -1.436  0.00  0.00     0.156 A 
ATOM     10  F   UNL d   1      15.753  12.106  -2.111  0.00  0.00    -0.203 F 
ATOM     11  C   UNL d   1      15.595  11.827  -0.723  0.00  0.00     0.031 A 
ATOM     12  C   UNL d   1      15.121  11.810  -0.048  0.00  0.00     0.002 A 
ATOM     13  C   UNL d   1      14.331  12.057  -0.091  0.00  0.00     0.002 A 
ATOM     14  C   UNL d   1      14.021  12.318  -0.807  0.00  0.00     0.020 A 
ENDBRANCH   5   8
ENDBRANCH   1   2
BRANCH   1  15
ATOM     15  C   UNL d   1      13.111  12.849  -4.969  0.00  0.00     0.118 A 
ATOM     16  O   UNL d   1      13.276  13.056  -5.747  0.00  0.00    -0.304 OA
ATOM     17  C   UNL d   1      13.079  12.412  -6.231  0.00  0.00     0.123 A 
ATOM     18  C   UNL d   1      12.794  11.817  -5.753  0.00  0.00     0.029 A 
ATOM     19  C   UNL d   1      12.812  12.079  -4.977  0.00  0.00     0.028 A 
ENDBRANCH   1  15
BRANCH   1  20
ATOM     20  C   UNL d   1      13.088  14.193  -4.464  0.00  0.00     0.124 C 
BRANCH  20  21
ATOM     21  N   UNL d   1      13.205  14.724  -3.843  0.00  0.00    -0.183 NA
ATOM     22  C   UNL d   1      13.667  15.395  -3.957  0.00  0.00     0.392 C 
ATOM     23  O   UNL d   1      14.014  15.542  -4.685  0.00  0.00    -0.236 OA
BRANCH  22  24
ATOM     24  O   UNL d   1      13.782  15.924  -3.334  0.00  0.00    -0.256 OA
BRANCH  24  25
ATOM     25  C   UNL d   1      14.513  16.282  -3.225  0.00  0.00     0.128 C 
BRANCH  25  26
ATOM     26  C   UNL d   1      14.806  16.403  -2.464  0.00  0.00     0.025 A 
ATOM     27  C   UNL d   1      15.250  17.079  -2.296  0.00  0.00     0.002 A 
ATOM     28  C   UNL d   1      15.543  17.200  -1.535  0.00  0.00     0.000 A 
ATOM     29  C   UNL d   1      15.393  16.646  -0.941  0.00  0.00     0.000 A 
ATOM     30  C   UNL d   1      14.953  15.978  -1.112  0.00  0.00     0.000 A 
ATOM     31  C   UNL d   1      14.656  15.849  -1.871  0.00  0.00     0.002 A 
ENDBRANCH  25  26
ENDBRANCH  24  25
ENDBRANCH  22  24
ENDBRANCH  20  21
ENDBRANCH   1  20
TORSDOF 8
ENDMDL
