MODEL 1
REMARK VINA RESULT:      38.5      0.000      0.000
REMARK  5 active torsions:
REMARK  status: ('A' for Active; 'I' for Inactive)
REMARK    1  A    between atoms: C_9  and  C_1 
REMARK    2  A    between atoms: N_4  and  C_2 
REMARK    3  A    between atoms: C_8  and  C_3 
REMARK       I    between atoms: C_7  and  N_4 
REMARK    4  A    between atoms: C_10  and  C_7 
REMARK    5  A    between atoms: O_18  and  C_9 
ROOT
ATOM      1  C   UNL d   1      46.097 -17.603  43.008  0.00  0.00     0.088 A 
ATOM      2  C   UNL d   1      46.448 -18.325  43.164  0.00  0.00     0.119 A 
ATOM      3  C   UNL d   1      46.058 -17.200  43.739  0.00  0.00     0.020 A 
ATOM      4  S   UNL d   1      46.633 -18.415  43.919  0.00  0.00    -0.067 SA
ATOM      5  C   UNL d   1      46.392 -17.702  44.317  0.00  0.00     0.038 A 
ENDROOT
BRANCH   2   6
ATOM      6  N   UNL d   1      46.615 -18.953  42.582  0.00  0.00    -0.201 NA
ATOM      7  C   UNL d   1      46.325 -19.740  42.728  0.00  0.00     0.281 C 
ATOM      8  O   UNL d   1      46.495 -20.327  42.160  0.00  0.00    -0.265 OA
BRANCH   7   9
ATOM      9  C   UNL d   1      45.903 -19.930  43.381  0.00  0.00     0.077 A 
ATOM     10  C   UNL d   1      45.106 -20.047  43.316  0.00  0.00     0.104 A 
ATOM     11  N   UNL d   1      44.644 -20.243  43.968  0.00  0.00    -0.242 NA
ATOM     12  C   UNL d   1      45.002 -20.324  44.720  0.00  0.00     0.099 A 
ATOM     13  C   UNL d   1      45.827 -20.202  44.783  0.00  0.00     0.021 A 
ATOM     14  C   UNL d   1      46.269 -20.008  44.125  0.00  0.00     0.008 A 
ENDBRANCH   7   9
ENDBRANCH   2   6
BRANCH   1  15
ATOM     15  C   UNL d   1      45.827 -17.313  42.271  0.00  0.00     0.298 C 
ATOM     16  O   UNL d   1      45.034 -17.038  42.193  0.00  0.00    -0.259 OA
BRANCH  15  17
ATOM     17  O   UNL d   1      46.345 -17.302  41.629  0.00  0.00    -0.296 OA
ATOM     18  C   UNL d   1      46.050 -17.154  40.855  0.00  0.00     0.185 C 
ENDBRANCH  15  17
ENDBRANCH   1  15
BRANCH   3  19
ATOM     19  C   UNL d   1      45.732 -16.442  43.792  0.00  0.00     0.030 A 
ATOM     20  S   UNL d   1      45.629 -15.706  43.471  0.00  0.00    -0.086 SA
ATOM     21  C   UNL d   1      45.165 -15.290  43.994  0.00  0.00     0.035 A 
ATOM     22  C   UNL d   1      44.981 -15.752  44.627  0.00  0.00     0.007 A 
ATOM     23  C   UNL d   1      45.340 -16.483  44.500  0.00  0.00     0.007 A 
ENDBRANCH   3  19
TORSDOF 5
ENDMDL
MODEL 2
REMARK VINA RESULT:      40.5      1.506      3.593
REMARK  5 active torsions:
REMARK  status: ('A' for Active; 'I' for Inactive)
REMARK    1  A    between atoms: C_9  and  C_1 
REMARK    2  A    between atoms: N_4  and  C_2 
REMARK    3  A    between atoms: C_8  and  C_3 
REMARK       I    between atoms: C_7  and  N_4 
REMARK    4  A    between atoms: C_10  and  C_7 
REMARK    5  A    between atoms: O_18  and  C_9 
ROOT
ATOM      1  C   UNL d   1      46.193 -17.994  43.498  0.00  0.00     0.088 A 
ATOM      2  C   UNL d   1      46.391 -17.205  43.579  0.00  0.00     0.119 A 
ATOM      3  C   UNL d   1      46.066 -18.282  44.273  0.00  0.00     0.020 A 
ATOM      4  S   UNL d   1      46.400 -16.968  44.325  0.00  0.00    -0.067 SA
ATOM      5  C   UNL d   1      46.193 -17.646  44.799  0.00  0.00     0.038 A 
ENDROOT
BRANCH   2   6
ATOM      6  N   UNL d   1      46.578 -16.652  42.930  0.00  0.00    -0.201 NA
ATOM      7  C   UNL d   1      46.327 -15.840  42.993  0.00  0.00     0.281 C 
ATOM      8  O   UNL d   1      46.516 -15.328  42.362  0.00  0.00    -0.265 OA
BRANCH   7   9
ATOM      9  C   UNL d   1      45.926 -15.561  43.626  0.00  0.00     0.077 A 
ATOM     10  C   UNL d   1      46.338 -15.262  44.255  0.00  0.00     0.104 A 
ATOM     11  N   UNL d   1      45.955 -14.968  44.920  0.00  0.00    -0.242 NA
ATOM     12  C   UNL d   1      45.119 -14.975  44.954  0.00  0.00     0.099 A 
ATOM     13  C   UNL d   1      44.696 -15.285  44.303  0.00  0.00     0.021 A 
ATOM     14  C   UNL d   1      45.093 -15.573  43.651  0.00  0.00     0.008 A 
ENDBRANCH   7   9
ENDBRANCH   2   6
BRANCH   1  15
ATOM     15  C   UNL d   1      46.128 -18.437  42.791  0.00  0.00     0.298 C 
ATOM     16  O   UNL d   1      46.647 -19.086  42.654  0.00  0.00    -0.259 OA
BRANCH  15  17
ATOM     17  O   UNL d   1      45.554 -18.228  42.237  0.00  0.00    -0.296 OA
ATOM     18  C   UNL d   1      45.480 -18.667  41.524  0.00  0.00     0.185 C 
ENDBRANCH  15  17
ENDBRANCH   1  15
BRANCH   3  19
ATOM     19  C   UNL d   1      45.854 -19.070  44.405  0.00  0.00     0.030 A 
ATOM     20  S   UNL d   1      45.302 -19.660  44.352  0.00  0.00    -0.086 SA
ATOM     21  C   UNL d   1      45.647 -20.327  44.666  0.00  0.00     0.035 A 
ATOM     22  C   UNL d   1      46.397 -20.161  44.911  0.00  0.00     0.007 A 
ATOM     23  C   UNL d   1      46.529 -19.364  44.746  0.00  0.00     0.007 A 
ENDBRANCH   3  19
TORSDOF 5
ENDMDL
