MODEL 1
REMARK VINA RESULT:      -7.4      0.000      0.000
REMARK  4 active torsions:
REMARK  status: ('A' for Active; 'I' for Inactive)
REMARK    1  A    between atoms: S_10  and  C_1 
REMARK    2  A    between atoms: N_3  and  C_2 
REMARK    3  A    between atoms: S_4  and  C_9 
REMARK    4  A    between atoms: C_8  and  S_10 
ROOT
ATOM      1  C   UNL d   1     -46.284  13.105  22.903  0.00  0.00     0.133 A 
ATOM      2  C   UNL d   1     -45.850  12.414  23.062  0.00  0.00     0.035 A 
ATOM      3  C   UNL d   1     -47.093  13.130  23.067  0.00  0.00     0.053 A 
ATOM      4  C   UNL d   1     -46.229  11.751  23.383  0.00  0.00     0.086 A 
ATOM      5  C   UNL d   1     -47.470  12.469  23.387  0.00  0.00     0.009 A 
ATOM      6  C   UNL d   1     -47.041  11.780  23.546  0.00  0.00     0.012 A 
ENDROOT
BRANCH   3   7
ATOM      7  S   UNL d   1     -47.526  13.816  22.910  0.00  0.00    -0.060 SA
BRANCH   7   8
ATOM      8  C   UNL d   1     -48.314  13.762  22.663  0.00  0.00     0.141 A 
ATOM      9  N   UNL d   1     -48.576  13.439  21.951  0.00  0.00    -0.232 NA
ATOM     10  C   UNL d   1     -49.401  13.500  21.934  0.00  0.00     0.088 A 
ATOM     11  C   UNL d   1     -49.957  13.276  21.375  0.00  0.00     0.020 A 
ATOM     12  C   UNL d   1     -49.644  13.858  22.634  0.00  0.00     0.049 A 
ATOM     13  C   UNL d   1     -50.757  13.409  21.514  0.00  0.00     0.002 A 
ATOM     14  C   UNL d   1     -50.999  13.768  22.215  0.00  0.00     0.001 A 
ATOM     15  C   UNL d   1     -50.441  13.992  22.774  0.00  0.00     0.008 A 
ATOM     16  S   UNL d   1     -48.971  14.021  23.088  0.00  0.00    -0.060 SA
ENDBRANCH   7   8
ENDBRANCH   3   7
BRANCH   1  17
ATOM     17  N   UNL d   1     -45.905  13.771  22.581  0.00  0.00    -0.113 N 
ATOM     18  O   UNL d   1     -45.586  13.735  21.819  0.00  0.00    -0.532 OA
ATOM     19  O   UNL d   1     -45.848  14.467  23.023  0.00  0.00    -0.532 OA
ENDBRANCH   1  17
BRANCH   4  20
ATOM     20  S   UNL d   1     -45.799  11.064  23.541  0.00  0.00     0.191 S 
ATOM     21  O   UNL d   1     -45.365  10.378  23.698  0.00  0.00    -0.222 OA
ATOM     22  O   UNL d   1     -45.097  11.464  23.386  0.00  0.00    -0.222 OA
ATOM     23  C   UNL d   1     -46.506  10.658  23.698  0.00  0.00     0.145 C 
ENDBRANCH   4  20
TORSDOF 4
ENDMDL
MODEL 2
REMARK VINA RESULT:      -6.5      2.235      4.162
REMARK  4 active torsions:
REMARK  status: ('A' for Active; 'I' for Inactive)
REMARK    1  A    between atoms: S_10  and  C_1 
REMARK    2  A    between atoms: N_3  and  C_2 
REMARK    3  A    between atoms: S_4  and  C_9 
REMARK    4  A    between atoms: C_8  and  S_10 
ROOT
ATOM      1  C   UNL d   1     -48.880  14.253  22.545  0.00  0.00     0.133 A 
ATOM      2  C   UNL d   1     -49.590  13.972  22.218  0.00  0.00     0.035 A 
ATOM      3  C   UNL d   1     -48.236  13.741  22.632  0.00  0.00     0.053 A 
ATOM      4  C   UNL d   1     -49.653  13.181  21.979  0.00  0.00     0.086 A 
ATOM      5  C   UNL d   1     -48.300  12.954  22.394  0.00  0.00     0.009 A 
ATOM      6  C   UNL d   1     -49.006  12.672  22.068  0.00  0.00     0.012 A 
ENDROOT
BRANCH   3   7
ATOM      7  S   UNL d   1     -47.529  14.018  22.957  0.00  0.00    -0.060 SA
BRANCH   7   8
ATOM      8  C   UNL d   1     -46.819  13.625  22.800  0.00  0.00     0.141 A 
ATOM      9  N   UNL d   1     -46.267  13.835  22.224  0.00  0.00    -0.232 NA
ATOM     10  C   UNL d   1     -45.644  13.293  22.261  0.00  0.00     0.088 A 
ATOM     11  C   UNL d   1     -44.950  13.223  21.830  0.00  0.00     0.020 A 
ATOM     12  C   UNL d   1     -45.812  12.751  22.858  0.00  0.00     0.049 A 
ATOM     13  C   UNL d   1     -44.423  12.612  21.995  0.00  0.00     0.002 A 
ATOM     14  C   UNL d   1     -44.593  12.072  22.593  0.00  0.00     0.001 A 
ATOM     15  C   UNL d   1     -45.288  12.142  23.023  0.00  0.00     0.008 A 
ATOM     16  S   UNL d   1     -46.541  12.956  23.194  0.00  0.00    -0.060 SA
ENDBRANCH   7   8
ENDBRANCH   3   7
BRANCH   1  17
ATOM     17  N   UNL d   1     -48.815  15.046  22.785  0.00  0.00    -0.113 N 
ATOM     18  O   UNL d   1     -48.528  15.614  22.258  0.00  0.00    -0.532 OA
ATOM     19  O   UNL d   1     -49.038  15.264  23.551  0.00  0.00    -0.532 OA
ENDBRANCH   1  17
BRANCH   4  20
ATOM     20  S   UNL d   1     -50.358  12.902  21.654  0.00  0.00     0.191 S 
ATOM     21  O   UNL d   1     -51.064  12.624  21.324  0.00  0.00    -0.222 OA
ATOM     22  O   UNL d   1     -50.152  13.219  20.923  0.00  0.00    -0.222 OA
ATOM     23  C   UNL d   1     -50.570  12.581  22.389  0.00  0.00     0.145 C 
ENDBRANCH   4  20
TORSDOF 4
ENDMDL
MODEL 3
REMARK VINA RESULT:      -6.3      8.970      9.991
REMARK  4 active torsions:
REMARK  status: ('A' for Active; 'I' for Inactive)
REMARK    1  A    between atoms: S_10  and  C_1 
REMARK    2  A    between atoms: N_3  and  C_2 
REMARK    3  A    between atoms: S_4  and  C_9 
REMARK    4  A    between atoms: C_8  and  S_10 
ROOT
ATOM      1  C   UNL d   1     -39.316  14.126  17.786  0.00  0.00     0.133 A 
ATOM      2  C   UNL d   1     -39.898  14.419  17.270  0.00  0.00     0.035 A 
ATOM      3  C   UNL d   1     -39.207  14.478  18.526  0.00  0.00     0.053 A 
ATOM      4  C   UNL d   1     -40.368  15.063  17.497  0.00  0.00     0.086 A 
ATOM      5  C   UNL d   1     -39.676  15.118  18.751  0.00  0.00     0.009 A 
ATOM      6  C   UNL d   1     -40.256  15.412  18.240  0.00  0.00     0.012 A 
ENDROOT
BRANCH   3   7
ATOM      7  S   UNL d   1     -38.629  14.188  19.040  0.00  0.00    -0.060 SA
BRANCH   7   8
ATOM      8  C   UNL d   1     -38.657  14.377  19.844  0.00  0.00     0.141 A 
ATOM      9  N   UNL d   1     -39.127  14.007  20.412  0.00  0.00    -0.232 NA
ATOM     10  C   UNL d   1     -38.980  14.372  21.139  0.00  0.00     0.088 A 
ATOM     11  C   UNL d   1     -39.281  14.241  21.891  0.00  0.00     0.020 A 
ATOM     12  C   UNL d   1     -38.421  14.964  21.019  0.00  0.00     0.049 A 
ATOM     13  C   UNL d   1     -39.025  14.701  22.523  0.00  0.00     0.002 A 
ATOM     14  C   UNL d   1     -38.466  15.294  22.400  0.00  0.00     0.001 A 
ATOM     15  C   UNL d   1     -38.165  15.424  21.648  0.00  0.00     0.008 A 
ATOM     16  S   UNL d   1     -38.220  14.969  20.216  0.00  0.00    -0.060 SA
ENDBRANCH   7   8
ENDBRANCH   3   7
BRANCH   1  17
ATOM     17  N   UNL d   1     -38.843  13.482  17.559  0.00  0.00    -0.113 N 
ATOM     18  O   UNL d   1     -38.107  13.613  17.207  0.00  0.00    -0.532 OA
ATOM     19  O   UNL d   1     -39.111  12.709  17.686  0.00  0.00    -0.532 OA
ENDBRANCH   1  17
BRANCH   4  20
ATOM     20  S   UNL d   1     -40.946  15.354  16.985  0.00  0.00     0.191 S 
ATOM     21  O   UNL d   1     -41.528  15.643  16.474  0.00  0.00    -0.222 OA
ATOM     22  O   UNL d   1     -41.480  14.793  17.262  0.00  0.00    -0.222 OA
ATOM     23  C   UNL d   1     -40.410  15.922  16.703  0.00  0.00     0.145 C 
ENDBRANCH   4  20
TORSDOF 4
ENDMDL
MODEL 4
REMARK VINA RESULT:      -6.1      8.741      9.881
REMARK  4 active torsions:
REMARK  status: ('A' for Active; 'I' for Inactive)
REMARK    1  A    between atoms: S_10  and  C_1 
REMARK    2  A    between atoms: N_3  and  C_2 
REMARK    3  A    between atoms: S_4  and  C_9 
REMARK    4  A    between atoms: C_8  and  S_10 
ROOT
ATOM      1  C   UNL d   1     -40.080  14.682  17.711  0.00  0.00     0.133 A 
ATOM      2  C   UNL d   1     -39.642  14.361  17.083  0.00  0.00     0.035 A 
ATOM      3  C   UNL d   1     -39.689  14.999  18.367  0.00  0.00     0.053 A 
ATOM      4  C   UNL d   1     -38.813  14.358  17.113  0.00  0.00     0.086 A 
ATOM      5  C   UNL d   1     -38.864  14.996  18.396  0.00  0.00     0.009 A 
ATOM      6  C   UNL d   1     -38.425  14.677  17.772  0.00  0.00     0.012 A 
ENDROOT
BRANCH   3   7
ATOM      7  S   UNL d   1     -40.123  15.319  18.993  0.00  0.00    -0.060 SA
BRANCH   7   8
ATOM      8  C   UNL d   1     -39.842  15.253  19.768  0.00  0.00     0.141 A 
ATOM      9  N   UNL d   1     -39.839  14.568  20.226  0.00  0.00    -0.232 NA
ATOM     10  C   UNL d   1     -39.510  14.755  20.960  0.00  0.00     0.088 A 
ATOM     11  C   UNL d   1     -39.367  14.303  21.630  0.00  0.00     0.020 A 
ATOM     12  C   UNL d   1     -39.310  15.553  20.955  0.00  0.00     0.049 A 
ATOM     13  C   UNL d   1     -39.025  14.648  22.294  0.00  0.00     0.002 A 
ATOM     14  C   UNL d   1     -38.826  15.448  22.286  0.00  0.00     0.001 A 
ATOM     15  C   UNL d   1     -38.970  15.899  21.616  0.00  0.00     0.008 A 
ATOM     16  S   UNL d   1     -39.516  15.864  20.215  0.00  0.00    -0.060 SA
ENDBRANCH   7   8
ENDBRANCH   3   7
BRANCH   1  17
ATOM     17  N   UNL d   1     -40.910  14.686  17.682  0.00  0.00    -0.113 N 
ATOM     18  O   UNL d   1     -41.308  15.327  17.345  0.00  0.00    -0.532 OA
ATOM     19  O   UNL d   1     -41.337  14.048  17.991  0.00  0.00    -0.532 OA
ENDBRANCH   1  17
BRANCH   4  20
ATOM     20  S   UNL d   1     -38.377  14.040  16.489  0.00  0.00     0.191 S 
ATOM     21  O   UNL d   1     -37.941  13.724  15.862  0.00  0.00    -0.222 OA
ATOM     22  O   UNL d   1     -38.480  14.733  16.058  0.00  0.00    -0.222 OA
ATOM     23  C   UNL d   1     -38.272  13.339  16.921  0.00  0.00     0.145 C 
ENDBRANCH   4  20
TORSDOF 4
ENDMDL
MODEL 5
REMARK VINA RESULT:      -5.9      7.931      9.320
REMARK  4 active torsions:
REMARK  status: ('A' for Active; 'I' for Inactive)
REMARK    1  A    between atoms: S_10  and  C_1 
REMARK    2  A    between atoms: N_3  and  C_2 
REMARK    3  A    between atoms: S_4  and  C_9 
REMARK    4  A    between atoms: C_8  and  S_10 
ROOT
ATOM      1  C   UNL d   1     -40.289  14.469  20.810  0.00  0.00     0.133 A 
ATOM      2  C   UNL d   1     -39.905  14.367  21.539  0.00  0.00     0.035 A 
ATOM      3  C   UNL d   1     -39.861  14.406  20.106  0.00  0.00     0.053 A 
ATOM      4  C   UNL d   1     -39.093  14.201  21.561  0.00  0.00     0.086 A 
ATOM      5  C   UNL d   1     -39.053  14.241  20.129  0.00  0.00     0.009 A 
ATOM      6  C   UNL d   1     -38.667  14.138  20.853  0.00  0.00     0.012 A 
ENDROOT
BRANCH   3   7
ATOM      7  S   UNL d   1     -40.241  14.508  19.380  0.00  0.00    -0.060 SA
BRANCH   7   8
ATOM      8  C   UNL d   1     -39.826  14.387  18.674  0.00  0.00     0.141 A 
ATOM      9  N   UNL d   1     -39.617  13.656  18.355  0.00  0.00    -0.232 NA
ATOM     10  C   UNL d   1     -39.211  13.795  17.649  0.00  0.00     0.088 A 
ATOM     11  C   UNL d   1     -38.874  13.288  17.099  0.00  0.00     0.020 A 
ATOM     12  C   UNL d   1     -39.170  14.610  17.534  0.00  0.00     0.049 A 
ATOM     13  C   UNL d   1     -38.497  13.594  16.434  0.00  0.00     0.002 A 
ATOM     14  C   UNL d   1     -38.458  14.409  16.321  0.00  0.00     0.001 A 
ATOM     15  C   UNL d   1     -38.795  14.915  16.872  0.00  0.00     0.008 A 
ATOM     16  S   UNL d   1     -39.552  14.978  18.169  0.00  0.00    -0.060 SA
ENDBRANCH   7   8
ENDBRANCH   3   7
BRANCH   1  17
ATOM     17  N   UNL d   1     -41.103  14.635  20.786  0.00  0.00    -0.113 N 
ATOM     18  O   UNL d   1     -41.363  15.420  20.779  0.00  0.00    -0.532 OA
ATOM     19  O   UNL d   1     -41.650  14.016  20.771  0.00  0.00    -0.532 OA
ENDBRANCH   1  17
BRANCH   4  20
ATOM     20  S   UNL d   1     -38.711  14.099  22.285  0.00  0.00     0.191 S 
ATOM     21  O   UNL d   1     -38.329  13.993  23.011  0.00  0.00    -0.222 OA
ATOM     22  O   UNL d   1     -38.968  13.318  22.315  0.00  0.00    -0.222 OA
ATOM     23  C   UNL d   1     -38.449  14.886  22.258  0.00  0.00     0.145 C 
ENDBRANCH   4  20
TORSDOF 4
ENDMDL
MODEL 6
REMARK VINA RESULT:      -5.4      8.255      9.973
REMARK  4 active torsions:
REMARK  status: ('A' for Active; 'I' for Inactive)
REMARK    1  A    between atoms: S_10  and  C_1 
REMARK    2  A    between atoms: N_3  and  C_2 
REMARK    3  A    between atoms: S_4  and  C_9 
REMARK    4  A    between atoms: C_8  and  S_10 
ROOT
ATOM      1  C   UNL d   1     -39.152  14.397  20.470  0.00  0.00     0.133 A 
ATOM      2  C   UNL d   1     -39.844  14.689  20.825  0.00  0.00     0.035 A 
ATOM      3  C   UNL d   1     -39.126  14.280  19.653  0.00  0.00     0.053 A 
ATOM      4  C   UNL d   1     -40.508  14.863  20.360  0.00  0.00     0.086 A 
ATOM      5  C   UNL d   1     -39.788  14.453  19.191  0.00  0.00     0.009 A 
ATOM      6  C   UNL d   1     -40.478  14.743  19.540  0.00  0.00     0.012 A 
ENDROOT
BRANCH   3   7
ATOM      7  S   UNL d   1     -38.439  13.990  19.298  0.00  0.00    -0.060 SA
BRANCH   7   8
ATOM      8  C   UNL d   1     -38.354  14.017  18.476  0.00  0.00     0.141 A 
ATOM      9  N   UNL d   1     -38.155  14.683  18.032  0.00  0.00    -0.232 NA
ATOM     10  C   UNL d   1     -38.131  14.459  17.236  0.00  0.00     0.088 A 
ATOM     11  C   UNL d   1     -37.967  14.879  16.551  0.00  0.00     0.020 A 
ATOM     12  C   UNL d   1     -38.314  13.657  17.191  0.00  0.00     0.049 A 
ATOM     13  C   UNL d   1     -37.986  14.500  15.821  0.00  0.00     0.002 A 
ATOM     14  C   UNL d   1     -38.169  13.697  15.779  0.00  0.00     0.001 A 
ATOM     15  C   UNL d   1     -38.333  13.278  16.464  0.00  0.00     0.008 A 
ATOM     16  S   UNL d   1     -38.453  13.382  17.960  0.00  0.00    -0.060 SA
ENDBRANCH   7   8
ENDBRANCH   3   7
BRANCH   1  17
ATOM     17  N   UNL d   1     -38.486  14.224  20.935  0.00  0.00    -0.113 N 
ATOM     18  O   UNL d   1     -38.369  13.455  21.217  0.00  0.00    -0.532 OA
ATOM     19  O   UNL d   1     -37.941  14.819  21.116  0.00  0.00    -0.532 OA
ENDBRANCH   1  17
BRANCH   4  20
ATOM     20  S   UNL d   1     -41.196  15.152  20.712  0.00  0.00     0.191 S 
ATOM     21  O   UNL d   1     -41.886  15.439  21.066  0.00  0.00    -0.222 OA
ATOM     22  O   UNL d   1     -41.388  14.395  20.970  0.00  0.00    -0.222 OA
ATOM     23  C   UNL d   1     -41.005  15.918  20.454  0.00  0.00     0.145 C 
ENDBRANCH   4  20
TORSDOF 4
ENDMDL
MODEL 7
REMARK VINA RESULT:      -5.4      1.895      4.584
REMARK  4 active torsions:
REMARK  status: ('A' for Active; 'I' for Inactive)
REMARK    1  A    between atoms: S_10  and  C_1 
REMARK    2  A    between atoms: N_3  and  C_2 
REMARK    3  A    between atoms: S_4  and  C_9 
REMARK    4  A    between atoms: C_8  and  S_10 
ROOT
ATOM      1  C   UNL d   1     -48.282  12.268  23.000  0.00  0.00     0.133 A 
ATOM      2  C   UNL d   1     -48.561  13.016  22.768  0.00  0.00     0.035 A 
ATOM      3  C   UNL d   1     -47.521  12.191  23.312  0.00  0.00     0.053 A 
ATOM      4  C   UNL d   1     -48.076  13.683  22.849  0.00  0.00     0.086 A 
ATOM      5  C   UNL d   1     -47.039  12.856  23.392  0.00  0.00     0.009 A 
ATOM      6  C   UNL d   1     -47.313  13.602  23.162  0.00  0.00     0.012 A 
ENDROOT
BRANCH   3   7
ATOM      7  S   UNL d   1     -47.242  11.449  23.543  0.00  0.00    -0.060 SA
BRANCH   7   8
ATOM      8  C   UNL d   1     -46.438  11.268  23.477  0.00  0.00     0.141 A 
ATOM      9  N   UNL d   1     -45.853  11.768  23.178  0.00  0.00    -0.232 NA
ATOM     10  C   UNL d   1     -45.133  11.364  23.215  0.00  0.00     0.088 A 
ATOM     11  C   UNL d   1     -44.371  11.578  22.999  0.00  0.00     0.020 A 
ATOM     12  C   UNL d   1     -45.273  10.619  23.535  0.00  0.00     0.049 A 
ATOM     13  C   UNL d   1     -43.749  11.049  23.103  0.00  0.00     0.002 A 
ATOM     14  C   UNL d   1     -43.893  10.303  23.423  0.00  0.00     0.001 A 
ATOM     15  C   UNL d   1     -44.655  10.090  23.639  0.00  0.00     0.008 A 
ATOM     16  S   UNL d   1     -46.083  10.558  23.698  0.00  0.00    -0.060 SA
ENDBRANCH   7   8
ENDBRANCH   3   7
BRANCH   1  17
ATOM     17  N   UNL d   1     -48.767  11.599  22.919  0.00  0.00    -0.113 N 
ATOM     18  O   UNL d   1     -49.246  11.358  23.548  0.00  0.00    -0.532 OA
ATOM     19  O   UNL d   1     -48.770  11.175  22.209  0.00  0.00    -0.532 OA
ENDBRANCH   1  17
BRANCH   4  20
ATOM     20  S   UNL d   1     -48.351  14.426  22.619  0.00  0.00     0.191 S 
ATOM     21  O   UNL d   1     -48.625  15.170  22.385  0.00  0.00    -0.222 OA
ATOM     22  O   UNL d   1     -47.831  14.426  21.981  0.00  0.00    -0.222 OA
ATOM     23  C   UNL d   1     -48.877  14.430  23.260  0.00  0.00     0.145 C 
ENDBRANCH   4  20
TORSDOF 4
ENDMDL
MODEL 8
REMARK VINA RESULT:      -5.2      8.591     10.131
REMARK  4 active torsions:
REMARK  status: ('A' for Active; 'I' for Inactive)
REMARK    1  A    between atoms: S_10  and  C_1 
REMARK    2  A    between atoms: N_3  and  C_2 
REMARK    3  A    between atoms: S_4  and  C_9 
REMARK    4  A    between atoms: C_8  and  S_10 
ROOT
ATOM      1  C   UNL d   1     -38.666  13.825  17.526  0.00  0.00     0.133 A 
ATOM      2  C   UNL d   1     -38.482  14.136  16.778  0.00  0.00     0.035 A 
ATOM      3  C   UNL d   1     -38.851  14.335  18.150  0.00  0.00     0.053 A 
ATOM      4  C   UNL d   1     -38.483  14.956  16.657  0.00  0.00     0.086 A 
ATOM      5  C   UNL d   1     -38.852  15.151  18.028  0.00  0.00     0.009 A 
ATOM      6  C   UNL d   1     -38.669  15.464  17.285  0.00  0.00     0.012 A 
ENDROOT
BRANCH   3   7
ATOM      7  S   UNL d   1     -39.035  14.029  18.894  0.00  0.00    -0.060 SA
BRANCH   7   8
ATOM      8  C   UNL d   1     -39.488  14.472  19.425  0.00  0.00     0.141 A 
ATOM      9  N   UNL d   1     -40.266  14.719  19.308  0.00  0.00    -0.232 NA
ATOM     10  C   UNL d   1     -40.500  15.145  19.976  0.00  0.00     0.088 A 
ATOM     11  C   UNL d   1     -41.203  15.519  20.172  0.00  0.00     0.020 A 
ATOM     12  C   UNL d   1     -39.868  15.160  20.504  0.00  0.00     0.049 A 
ATOM     13  C   UNL d   1     -41.276  15.908  20.894  0.00  0.00     0.002 A 
ATOM     14  C   UNL d   1     -40.641  15.922  21.420  0.00  0.00     0.001 A 
ATOM     15  C   UNL d   1     -39.938  15.547  21.223  0.00  0.00     0.008 A 
ATOM     16  S   UNL d   1     -39.239  14.743  20.162  0.00  0.00    -0.060 SA
ENDBRANCH   7   8
ENDBRANCH   3   7
BRANCH   1  17
ATOM     17  N   UNL d   1     -38.666  13.004  17.648  0.00  0.00    -0.113 N 
ATOM     18  O   UNL d   1     -39.333  12.557  17.452  0.00  0.00    -0.532 OA
ATOM     19  O   UNL d   1     -37.997  12.634  17.967  0.00  0.00    -0.532 OA
ENDBRANCH   1  17
BRANCH   4  20
ATOM     20  S   UNL d   1     -38.299  15.265  15.914  0.00  0.00     0.191 S 
ATOM     21  O   UNL d   1     -38.117  15.572  15.168  0.00  0.00    -0.222 OA
ATOM     22  O   UNL d   1     -38.655  14.617  15.552  0.00  0.00    -0.222 OA
ATOM     23  C   UNL d   1     -37.940  15.921  16.276  0.00  0.00     0.145 C 
ENDBRANCH   4  20
TORSDOF 4
ENDMDL
