MODEL 1
REMARK VINA RESULT:      69.4      0.000      0.000
REMARK  5 active torsions:
REMARK  status: ('A' for Active; 'I' for Inactive)
REMARK    1  A    between atoms: C_8  and  C_1 
REMARK    2  A    between atoms: C_7  and  O_11 
REMARK    3  A    between atoms: C_9  and  C_7 
REMARK    4  A    between atoms: O_11  and  C_15 
REMARK    5  A    between atoms: O_23  and  C_18 
ROOT
ATOM      1  C   UNL d   1     -50.748  26.526  33.748  0.00  0.00     0.064 A 
ATOM      2  C   UNL d   1     -49.970  26.531  34.029  0.00  0.00     0.199 A 
ATOM      3  C   UNL d   1     -51.132  27.238  33.588  0.00  0.00     0.103 A 
ATOM      4  C   UNL d   1     -49.581  27.246  34.149  0.00  0.00     0.062 A 
ATOM      5  C   UNL d   1     -49.965  27.958  33.988  0.00  0.00     0.105 A 
ATOM      6  O   UNL d   1     -50.739  27.955  33.709  0.00  0.00    -0.307 OA
ATOM      7  C   UNL d   1     -49.575  28.674  34.108  0.00  0.00     0.050 A 
ATOM      8  C   UNL d   1     -48.806  27.250  34.429  0.00  0.00     0.007 A 
ATOM      9  O   UNL d   1     -49.585  25.819  34.190  0.00  0.00    -0.286 OA
ATOM     10  C   UNL d   1     -48.791  28.674  34.392  0.00  0.00     0.105 A 
ATOM     11  C   UNL d   1     -48.410  27.969  34.551  0.00  0.00     0.025 A 
ATOM     12  C   UNL d   1     -51.907  27.234  33.308  0.00  0.00     0.027 C 
ENDROOT
BRANCH   1  13
ATOM     13  C   UNL d   1     -51.134  25.803  33.630  0.00  0.00     0.027 A 
ATOM     14  C   UNL d   1     -50.704  25.123  33.446  0.00  0.00     0.094 A 
ATOM     15  C   UNL d   1     -51.094  24.408  33.330  0.00  0.00     0.024 A 
ATOM     16  C   UNL d   1     -51.921  24.367  33.397  0.00  0.00     0.002 A 
ATOM     17  C   UNL d   1     -52.355  25.054  33.583  0.00  0.00     0.000 A 
ATOM     18  C   UNL d   1     -51.965  25.769  33.699  0.00  0.00     0.002 A 
BRANCH  14  19
ATOM     19  O   UNL d   1     -49.889  25.166  33.380  0.00  0.00    -0.328 OA
ATOM     20  C   UNL d   1     -49.449  24.472  33.308  0.00  0.00     0.181 C 
ENDBRANCH  14  19
ENDBRANCH   1  13
BRANCH  10  21
ATOM     21  O   UNL d   1     -48.401  29.398  34.511  0.00  0.00    -0.271 OA
BRANCH  21  22
ATOM     22  C   UNL d   1     -47.916  29.490  35.175  0.00  0.00     0.323 C 
ATOM     23  O   UNL d   1     -47.746  28.845  35.662  0.00  0.00    -0.257 OA
BRANCH  22  24
ATOM     24  C   UNL d   1     -47.599  30.236  35.353  0.00  0.00     0.163 A 
ATOM     25  O   UNL d   1     -47.166  30.425  36.028  0.00  0.00    -0.300 OA
ATOM     26  C   UNL d   1     -46.961  31.224  35.977  0.00  0.00     0.123 A 
ATOM     27  C   UNL d   1     -47.266  31.527  35.275  0.00  0.00     0.029 A 
ATOM     28  C   UNL d   1     -47.663  30.913  34.885  0.00  0.00     0.032 A 
ENDBRANCH  22  24
ENDBRANCH  21  22
ENDBRANCH  10  21
TORSDOF 5
ENDMDL
