MODEL 1
REMARK VINA RESULT:      -8.6      0.000      0.000
REMARK  1 active torsions:
REMARK  status: ('A' for Active; 'I' for Inactive)
REMARK    1  A    between atoms: C_4  and  C_1 
ROOT
ATOM      1  C   UNL d   1      53.925  32.221  54.000  0.00  0.00     0.024 A 
ATOM      2  C   UNL d   1      53.773  32.367  54.798  0.00  0.00     0.002 A 
ATOM      3  C   UNL d   1      54.502  32.650  53.601  0.00  0.00     0.002 A 
ATOM      4  C   UNL d   1      54.197  32.941  55.196  0.00  0.00     0.000 A 
ATOM      5  C   UNL d   1      54.932  33.231  54.000  0.00  0.00     0.000 A 
ATOM      6  C   UNL d   1      54.775  33.373  54.798  0.00  0.00     0.000 A 
ATOM      7  C   UNL d   1      55.204  33.956  55.205  0.00  0.00     0.000 C 
ENDROOT
BRANCH   1   8
ATOM      8  C   UNL d   1      53.495  31.640  53.601  0.00  0.00     0.111 A 
ATOM      9  N   UNL d   1      52.907  31.858  53.064  0.00  0.00    -0.237 NA
ATOM     10  C   UNL d   1      52.636  30.478  52.802  0.00  0.00     0.106 A 
ATOM     11  C   UNL d   1      53.224  30.261  53.339  0.00  0.00     0.058 A 
ATOM     12  S   UNL d   1      53.654  30.842  53.738  0.00  0.00    -0.066 SA
ENDBRANCH   1   8
TORSDOF 1
ENDMDL
MODEL 2
REMARK VINA RESULT:      -8.0      1.064      3.059
REMARK  1 active torsions:
REMARK  status: ('A' for Active; 'I' for Inactive)
REMARK    1  A    between atoms: C_4  and  C_1 
ROOT
ATOM      1  C   UNL d   1      53.753  31.896  53.776  0.00  0.00     0.024 A 
ATOM      2  C   UNL d   1      53.955  31.118  53.960  0.00  0.00     0.002 A 
ATOM      3  C   UNL d   1      53.134  32.054  53.258  0.00  0.00     0.002 A 
ATOM      4  C   UNL d   1      53.539  30.498  53.627  0.00  0.00     0.000 A 
ATOM      5  C   UNL d   1      52.711  31.430  52.920  0.00  0.00     0.000 A 
ATOM      6  C   UNL d   1      52.918  30.654  53.108  0.00  0.00     0.000 A 
ATOM      7  C   UNL d   1      52.497  30.022  52.771  0.00  0.00     0.000 C 
ENDROOT
BRANCH   1   8
ATOM      8  C   UNL d   1      54.175  32.520  54.113  0.00  0.00     0.111 A 
ATOM      9  N   UNL d   1      54.783  32.884  53.691  0.00  0.00    -0.237 NA
ATOM     10  C   UNL d   1      55.019  33.768  54.790  0.00  0.00     0.106 A 
ATOM     11  C   UNL d   1      54.411  33.404  55.212  0.00  0.00     0.058 A 
ATOM     12  S   UNL d   1      53.989  32.780  54.875  0.00  0.00    -0.066 SA
ENDBRANCH   1   8
TORSDOF 1
ENDMDL
MODEL 3
REMARK VINA RESULT:      -7.8      2.539      3.402
REMARK  1 active torsions:
REMARK  status: ('A' for Active; 'I' for Inactive)
REMARK    1  A    between atoms: C_4  and  C_1 
ROOT
ATOM      1  C   UNL d   1      52.837  33.941  53.832  0.00  0.00     0.024 A 
ATOM      2  C   UNL d   1      52.754  34.617  53.366  0.00  0.00     0.002 A 
ATOM      3  C   UNL d   1      52.255  33.361  53.833  0.00  0.00     0.002 A 
ATOM      4  C   UNL d   1      52.089  34.712  52.900  0.00  0.00     0.000 A 
ATOM      5  C   UNL d   1      51.581  33.455  53.363  0.00  0.00     0.000 A 
ATOM      6  C   UNL d   1      51.504  34.132  52.899  0.00  0.00     0.000 A 
ATOM      7  C   UNL d   1      50.829  34.232  52.425  0.00  0.00     0.000 C 
ENDROOT
BRANCH   1   8
ATOM      8  C   UNL d   1      53.510  33.848  54.301  0.00  0.00     0.111 A 
ATOM      9  N   UNL d   1      53.683  34.400  54.890  0.00  0.00    -0.237 NA
ATOM     10  C   UNL d   1      54.856  33.661  55.239  0.00  0.00     0.106 A 
ATOM     11  C   UNL d   1      54.684  33.109  54.650  0.00  0.00     0.058 A 
ATOM     12  S   UNL d   1      54.011  33.202  54.181  0.00  0.00    -0.066 SA
ENDBRANCH   1   8
TORSDOF 1
ENDMDL
MODEL 4
REMARK VINA RESULT:      -7.6      2.256      2.437
REMARK  1 active torsions:
REMARK  status: ('A' for Active; 'I' for Inactive)
REMARK    1  A    between atoms: C_4  and  C_1 
ROOT
ATOM      1  C   UNL d   1      52.967  33.839  53.861  0.00  0.00     0.024 A 
ATOM      2  C   UNL d   1      53.135  34.336  54.497  0.00  0.00     0.002 A 
ATOM      3  C   UNL d   1      53.473  33.219  53.671  0.00  0.00     0.002 A 
ATOM      4  C   UNL d   1      53.808  34.214  54.945  0.00  0.00     0.000 A 
ATOM      5  C   UNL d   1      54.154  33.093  54.121  0.00  0.00     0.000 A 
ATOM      6  C   UNL d   1      54.317  33.593  54.757  0.00  0.00     0.000 A 
ATOM      7  C   UNL d   1      55.000  33.471  55.213  0.00  0.00     0.000 C 
ENDROOT
BRANCH   1   8
ATOM      8  C   UNL d   1      52.286  33.966  53.411  0.00  0.00     0.111 A 
ATOM      9  N   UNL d   1      52.242  34.614  52.902  0.00  0.00    -0.237 NA
ATOM     10  C   UNL d   1      50.924  34.218  52.512  0.00  0.00     0.106 A 
ATOM     11  C   UNL d   1      50.968  33.570  53.021  0.00  0.00     0.058 A 
ATOM     12  S   UNL d   1      51.649  33.443  53.471  0.00  0.00    -0.066 SA
ENDBRANCH   1   8
TORSDOF 1
ENDMDL
MODEL 5
REMARK VINA RESULT:      -7.1      1.475      1.570
REMARK  1 active torsions:
REMARK  status: ('A' for Active; 'I' for Inactive)
REMARK    1  A    between atoms: C_4  and  C_1 
ROOT
ATOM      1  C   UNL d   1      53.266  32.818  53.880  0.00  0.00     0.024 A 
ATOM      2  C   UNL d   1      52.599  33.246  53.651  0.00  0.00     0.002 A 
ATOM      3  C   UNL d   1      53.881  33.188  54.282  0.00  0.00     0.002 A 
ATOM      4  C   UNL d   1      52.546  34.043  53.823  0.00  0.00     0.000 A 
ATOM      5  C   UNL d   1      53.831  33.993  54.457  0.00  0.00     0.000 A 
ATOM      6  C   UNL d   1      53.161  34.416  54.226  0.00  0.00     0.000 A 
ATOM      7  C   UNL d   1      53.105  35.226  54.400  0.00  0.00     0.000 C 
ENDROOT
BRANCH   1   8
ATOM      8  C   UNL d   1      53.316  32.012  53.704  0.00  0.00     0.111 A 
ATOM      9  N   UNL d   1      53.820  31.525  54.140  0.00  0.00    -0.237 NA
ATOM     10  C   UNL d   1      53.416  30.403  53.351  0.00  0.00     0.106 A 
ATOM     11  C   UNL d   1      52.913  30.890  52.915  0.00  0.00     0.058 A 
ATOM     12  S   UNL d   1      52.863  31.695  53.091  0.00  0.00    -0.066 SA
ENDBRANCH   1   8
TORSDOF 1
ENDMDL
