MODEL 1
REMARK VINA RESULT:      -2.9      0.000      0.000
REMARK  4 active torsions:
REMARK  status: ('A' for Active; 'I' for Inactive)
REMARK    1  A    between atoms: N_5  and  S_1 
REMARK    2  A    between atoms: C_8  and  S_1 
REMARK    3  A    between atoms: C_18  and  N_2 
REMARK    4  A    between atoms: C_10  and  N_5 
ROOT
ATOM      1  N   UNL d   1     -42.204-123.358 -48.948  0.00  0.00    -0.273 N 
ATOM      2  C   UNL d   1     -42.976-123.067 -48.915  0.00  0.00     0.265 A 
ATOM      3  C   UNL d   1     -41.871-123.181 -49.695  0.00  0.00     0.067 A 
ATOM      4  C   UNL d   1     -42.457-122.770 -50.125  0.00  0.00     0.021 A 
ATOM      5  C   UNL d   1     -43.128-122.699 -49.656  0.00  0.00     0.058 A 
ATOM      6  C   UNL d   1     -41.774-122.536 -51.339  0.00  0.00     0.105 A 
ATOM      7  C   UNL d   1     -42.445-122.467 -50.866  0.00  0.00     0.014 A 
ATOM      8  C   UNL d   1     -41.142-123.334 -50.020  0.00  0.00     0.018 A 
ATOM      9  C   UNL d   1     -41.128-122.904 -51.069  0.00  0.00     0.014 A 
ATOM     10  O   UNL d   1     -43.492-123.139 -48.249  0.00  0.00    -0.267 OA
ATOM     11  C   UNL d   1     -43.788-122.325 -49.929  0.00  0.00     0.005 A 
ATOM     12  C   UNL d   1     -43.119-122.075 -51.168  0.00  0.00     0.001 A 
ATOM     13  C   UNL d   1     -43.805-121.987 -50.726  0.00  0.00     0.000 A 
ENDROOT
BRANCH   6  14
ATOM     14  S   UNL d   1     -41.777-122.221 -52.096  0.00  0.00     0.287 S 
ATOM     15  O   UNL d   1     -41.986-122.948 -52.415  0.00  0.00    -0.198 OA
ATOM     16  O   UNL d   1     -41.560-121.452 -51.804  0.00  0.00    -0.198 OA
BRANCH  14  17
ATOM     17  N   UNL d   1     -41.780-121.899 -52.868  0.00  0.00    -0.139 NA
BRANCH  17  18
ATOM     18  C   UNL d   1     -41.685-122.357 -53.538  0.00  0.00     0.174 A 
ATOM     19  N   UNL d   1     -41.243-123.058 -53.449  0.00  0.00    -0.225 NA
ATOM     20  C   UNL d   1     -41.123-123.550 -54.096  0.00  0.00     0.101 A 
ATOM     21  C   UNL d   1     -41.446-123.339 -54.837  0.00  0.00     0.021 A 
ATOM     22  C   UNL d   1     -41.890-122.636 -54.931  0.00  0.00     0.005 A 
ATOM     23  C   UNL d   1     -42.009-122.146 -54.279  0.00  0.00     0.037 A 
ATOM     24  C   UNL d   1     -42.418-121.302 -53.928  0.00  0.00     0.003 C 
ENDBRANCH  17  18
ENDBRANCH  14  17
ENDBRANCH   6  14
BRANCH   1  25
ATOM     25  C   UNL d   1     -41.833-123.760 -48.336  0.00  0.00     0.083 C 
ATOM     26  C   UNL d   1     -41.624-123.341 -47.662  0.00  0.00     0.021 C 
ENDBRANCH   1  25
TORSDOF 4
ENDMDL
MODEL 2
REMARK VINA RESULT:      -1.1      1.286      4.808
REMARK  4 active torsions:
REMARK  status: ('A' for Active; 'I' for Inactive)
REMARK    1  A    between atoms: N_5  and  S_1 
REMARK    2  A    between atoms: C_8  and  S_1 
REMARK    3  A    between atoms: C_18  and  N_2 
REMARK    4  A    between atoms: C_10  and  N_5 
ROOT
ATOM      1  N   UNL d   1     -41.859-121.561 -54.895  0.00  0.00    -0.273 N 
ATOM      2  C   UNL d   1     -41.603-122.315 -55.114  0.00  0.00     0.265 A 
ATOM      3  C   UNL d   1     -41.889-121.509 -54.060  0.00  0.00     0.067 A 
ATOM      4  C   UNL d   1     -41.644-122.251 -53.767  0.00  0.00     0.021 A 
ATOM      5  C   UNL d   1     -41.470-122.742 -54.402  0.00  0.00     0.058 A 
ATOM      6  C   UNL d   1     -41.739-122.027 -52.375  0.00  0.00     0.105 A 
ATOM      7  C   UNL d   1     -41.566-122.517 -53.015  0.00  0.00     0.014 A 
ATOM      8  C   UNL d   1     -42.097-120.907 -53.556  0.00  0.00     0.018 A 
ATOM      9  C   UNL d   1     -41.986-121.284 -52.492  0.00  0.00     0.014 A 
ATOM     10  O   UNL d   1     -41.503-122.578 -55.912  0.00  0.00    -0.267 OA
ATOM     11  C   UNL d   1     -41.218-123.499 -54.286  0.00  0.00     0.005 A 
ATOM     12  C   UNL d   1     -41.306-123.298 -52.872  0.00  0.00     0.001 A 
ATOM     13  C   UNL d   1     -41.124-123.813 -53.485  0.00  0.00     0.000 A 
ENDROOT
BRANCH   6  14
ATOM     14  S   UNL d   1     -41.655-122.313 -51.611  0.00  0.00     0.287 S 
ATOM     15  O   UNL d   1     -41.309-121.608 -51.370  0.00  0.00    -0.198 OA
ATOM     16  O   UNL d   1     -42.009-123.056 -51.823  0.00  0.00    -0.198 OA
BRANCH  14  17
ATOM     17  N   UNL d   1     -41.568-122.604 -50.832  0.00  0.00    -0.139 NA
BRANCH  17  18
ATOM     18  C   UNL d   1     -42.160-122.548 -50.272  0.00  0.00     0.174 A 
ATOM     19  N   UNL d   1     -42.815-122.071 -50.469  0.00  0.00    -0.225 NA
ATOM     20  C   UNL d   1     -43.434-121.986 -49.936  0.00  0.00     0.101 A 
ATOM     21  C   UNL d   1     -43.398-122.380 -49.200  0.00  0.00     0.021 A 
ATOM     22  C   UNL d   1     -42.743-122.860 -48.997  0.00  0.00     0.005 A 
ATOM     23  C   UNL d   1     -42.124-122.942 -49.535  0.00  0.00     0.037 A 
ATOM     24  C   UNL d   1     -41.232-123.355 -49.732  0.00  0.00     0.003 C 
ENDBRANCH  17  18
ENDBRANCH  14  17
ENDBRANCH   6  14
BRANCH   1  25
ATOM     25  C   UNL d   1     -42.051-120.964 -55.424  0.00  0.00     0.083 C 
ATOM     26  C   UNL d   1     -42.474-121.159 -56.099  0.00  0.00     0.021 C 
ENDBRANCH   1  25
TORSDOF 4
ENDMDL
