MODEL 1
REMARK VINA RESULT:      -2.8      0.000      0.000
REMARK  8 active torsions:
REMARK  status: ('A' for Active; 'I' for Inactive)
REMARK    1  A    between atoms: C_7  and  C_2 
REMARK    2  A    between atoms: C_12  and  N_3 
REMARK    3  A    between atoms: O_9  and  C_6 
REMARK    4  A    between atoms: O_22  and  C_7 
REMARK    5  A    between atoms: C_8  and  N_11 
REMARK    6  A    between atoms: C_20  and  O_9 
REMARK    7  A    between atoms: C_10  and  C_20 
REMARK       I    between atoms: N_11  and  C_10 
REMARK    8  A    between atoms: C_27  and  O_22 
ROOT
ATOM      1  N   UNL d   1      59.759  -1.610  29.180  0.00  0.00    -0.155 NA
ATOM      2  C   UNL d   1      59.471  -0.885  29.436  0.00  0.00     0.187 A 
ATOM      3  N   UNL d   1      59.274  -2.279  29.223  0.00  0.00    -0.194 N 
ATOM      4  C   UNL d   1      58.508  -2.216  29.521  0.00  0.00     0.282 A 
ATOM      5  C   UNL d   1      58.225  -1.484  29.777  0.00  0.00     0.089 A 
ATOM      6  C   UNL d   1      58.705  -0.821  29.734  0.00  0.00     0.130 A 
ATOM      7  O   UNL d   1      58.024  -2.885  29.564  0.00  0.00    -0.265 OA
ENDROOT
BRANCH   6   8
ATOM      8  O   UNL d   1      58.422  -0.090  29.989  0.00  0.00    -0.298 OA
BRANCH   8   9
ATOM      9  C   UNL d   1      57.615   0.040  30.065  0.00  0.00     0.185 C 
BRANCH   9  10
ATOM     10  C   UNL d   1      57.298   0.213  30.809  0.00  0.00     0.304 C 
ATOM     11  N   UNL d   1      57.659  -0.083  31.486  0.00  0.00    -0.206 NA
ATOM     12  O   UNL d   1      56.622   0.678  30.867  0.00  0.00    -0.263 OA
BRANCH  11  13
ATOM     13  C   UNL d   1      57.342   0.090  32.230  0.00  0.00     0.085 A 
ATOM     14  C   UNL d   1      56.537   0.095  32.345  0.00  0.00     0.019 A 
ATOM     15  C   UNL d   1      56.211   0.264  33.076  0.00  0.00     0.002 A 
ATOM     16  C   UNL d   1      55.406   0.266  33.178  0.00  0.00     0.000 C 
ATOM     17  C   UNL d   1      56.719   0.434  33.713  0.00  0.00     0.000 A 
ATOM     18  C   UNL d   1      57.529   0.430  33.600  0.00  0.00     0.002 A 
ATOM     19  C   UNL d   1      57.843   0.259  32.864  0.00  0.00     0.019 A 
ATOM     20  C   UNL d   1      58.029   0.599  34.234  0.00  0.00     0.000 C 
ENDBRANCH  11  13
ENDBRANCH   9  10
ENDBRANCH   8   9
ENDBRANCH   6   8
BRANCH   2  21
ATOM     21  C   UNL d   1      59.950  -0.223  29.393  0.00  0.00     0.322 C 
ATOM     22  O   UNL d   1      59.772   0.383  28.862  0.00  0.00    -0.257 OA
BRANCH  21  23
ATOM     23  O   UNL d   1      60.618  -0.153  29.880  0.00  0.00    -0.270 OA
BRANCH  23  24
ATOM     24  C   UNL d   1      60.656   0.430  30.454  0.00  0.00     0.126 C 
ATOM     25  C   UNL d   1      61.103   0.310  31.136  0.00  0.00     0.029 C 
ENDBRANCH  23  24
ENDBRANCH  21  23
ENDBRANCH   2  21
BRANCH   3  26
ATOM     26  C   UNL d   1      59.560  -3.007  28.968  0.00  0.00     0.086 A 
ATOM     27  C   UNL d   1      59.035  -3.589  28.733  0.00  0.00     0.019 A 
ATOM     28  C   UNL d   1      59.317  -4.321  28.476  0.00  0.00     0.002 A 
ATOM     29  C   UNL d   1      60.136  -4.469  28.455  0.00  0.00     0.000 A 
ATOM     30  C   UNL d   1      60.659  -3.876  28.694  0.00  0.00     0.002 A 
ATOM     31  C   UNL d   1      60.378  -3.155  28.947  0.00  0.00     0.019 A 
ENDBRANCH   3  26
TORSDOF 8
ENDMDL
MODEL 2
REMARK VINA RESULT:      -1.1      1.737      5.824
REMARK  8 active torsions:
REMARK  status: ('A' for Active; 'I' for Inactive)
REMARK    1  A    between atoms: C_7  and  C_2 
REMARK    2  A    between atoms: C_12  and  N_3 
REMARK    3  A    between atoms: O_9  and  C_6 
REMARK    4  A    between atoms: O_22  and  C_7 
REMARK    5  A    between atoms: C_8  and  N_11 
REMARK    6  A    between atoms: C_20  and  O_9 
REMARK    7  A    between atoms: C_10  and  C_20 
REMARK       I    between atoms: N_11  and  C_10 
REMARK    8  A    between atoms: C_27  and  O_22 
ROOT
ATOM      1  N   UNL d   1      56.723   0.643  34.072  0.00  0.00    -0.155 NA
ATOM      2  C   UNL d   1      57.157   0.625  33.376  0.00  0.00     0.187 A 
ATOM      3  N   UNL d   1      55.896   0.627  34.038  0.00  0.00    -0.194 N 
ATOM      4  C   UNL d   1      55.514   0.595  33.308  0.00  0.00     0.282 A 
ATOM      5  C   UNL d   1      55.956   0.578  32.612  0.00  0.00     0.089 A 
ATOM      6  C   UNL d   1      56.774   0.593  32.646  0.00  0.00     0.130 A 
ATOM      7  O   UNL d   1      54.688   0.580  33.274  0.00  0.00    -0.265 OA
ENDROOT
BRANCH   6   8
ATOM      8  O   UNL d   1      57.217   0.576  31.950  0.00  0.00    -0.298 OA
BRANCH   8   9
ATOM      9  C   UNL d   1      56.980   0.107  31.319  0.00  0.00     0.185 C 
BRANCH   9  10
ATOM     10  C   UNL d   1      57.520  -0.071  30.718  0.00  0.00     0.304 C 
ATOM     11  N   UNL d   1      57.883  -0.809  30.700  0.00  0.00    -0.206 NA
ATOM     12  O   UNL d   1      57.690   0.491  30.141  0.00  0.00    -0.263 OA
BRANCH  11  13
ATOM     13  C   UNL d   1      58.423  -0.987  30.099  0.00  0.00     0.085 A 
ATOM     14  C   UNL d   1      59.001  -0.453  29.892  0.00  0.00     0.019 A 
ATOM     15  C   UNL d   1      59.540  -0.618  29.299  0.00  0.00     0.002 A 
ATOM     16  C   UNL d   1      60.112  -0.078  29.101  0.00  0.00     0.000 C 
ATOM     17  C   UNL d   1      59.492  -1.349  28.902  0.00  0.00     0.000 A 
ATOM     18  C   UNL d   1      58.911  -1.886  29.110  0.00  0.00     0.002 A 
ATOM     19  C   UNL d   1      58.378  -1.710  29.704  0.00  0.00     0.019 A 
ATOM     20  C   UNL d   1      58.867  -2.609  28.715  0.00  0.00     0.000 C 
ENDBRANCH  11  13
ENDBRANCH   9  10
ENDBRANCH   8   9
ENDBRANCH   6   8
BRANCH   2  21
ATOM     21  C   UNL d   1      57.974   0.640  33.409  0.00  0.00     0.322 C 
ATOM     22  O   UNL d   1      58.418   0.616  32.714  0.00  0.00    -0.257 OA
BRANCH  21  23
ATOM     23  O   UNL d   1      58.366   0.680  34.139  0.00  0.00    -0.270 OA
BRANCH  23  24
ATOM     24  C   UNL d   1      59.154   0.466  34.202  0.00  0.00     0.126 C 
ATOM     25  C   UNL d   1      59.535   0.504  34.932  0.00  0.00     0.029 C 
ENDBRANCH  23  24
ENDBRANCH  21  23
ENDBRANCH   2  21
BRANCH   3  26
ATOM     26  C   UNL d   1      55.458   0.645  34.734  0.00  0.00     0.086 A 
ATOM     27  C   UNL d   1      55.842   0.661  35.456  0.00  0.00     0.019 A 
ATOM     28  C   UNL d   1      55.406   0.678  36.157  0.00  0.00     0.002 A 
ATOM     29  C   UNL d   1      54.574   0.679  36.130  0.00  0.00     0.000 A 
ATOM     30  C   UNL d   1      54.193   0.663  35.397  0.00  0.00     0.002 A 
ATOM     31  C   UNL d   1      54.626   0.646  34.707  0.00  0.00     0.019 A 
ENDBRANCH   3  26
TORSDOF 8
ENDMDL
