MODEL 1
REMARK VINA RESULT:      -7.8      0.000      0.000
REMARK  5 active torsions:
REMARK  status: ('A' for Active; 'I' for Inactive)
REMARK       I    between atoms: N_3  and  C_1 
REMARK    1  A    between atoms: C_4  and  C_1 
REMARK    2  A    between atoms: C_2  and  C_6 
REMARK    3  A    between atoms: O_5  and  C_2 
REMARK    4  A    between atoms: C_11  and  N_3 
REMARK    5  A    between atoms: C_14  and  O_5 
ROOT
ATOM      1  C   UNL d   1     -47.094  13.428  22.910  0.00  0.00     0.064 A 
ATOM      2  C   UNL d   1     -46.491  13.436  22.345  0.00  0.00     0.008 A 
ATOM      3  C   UNL d   1     -47.071  12.879  23.533  0.00  0.00     0.008 A 
ATOM      4  C   UNL d   1     -45.844  12.353  23.023  0.00  0.00     0.135 A 
ATOM      5  C   UNL d   1     -45.868  12.901  22.400  0.00  0.00     0.032 A 
ATOM      6  C   UNL d   1     -46.444  12.343  23.586  0.00  0.00     0.032 A 
ENDROOT
BRANCH   1   7
ATOM      7  C   UNL d   1     -47.719  13.968  22.850  0.00  0.00     0.300 C 
ATOM      8  O   UNL d   1     -47.589  14.697  22.491  0.00  0.00    -0.259 OA
BRANCH   7   9
ATOM      9  O   UNL d   1     -48.464  13.775  23.146  0.00  0.00    -0.273 OA
BRANCH   9  10
ATOM     10  C   UNL d   1     -49.123  14.210  22.910  0.00  0.00     0.103 A 
ATOM     11  C   UNL d   1     -49.397  14.827  23.382  0.00  0.00     0.025 A 
ATOM     12  C   UNL d   1     -50.050  15.255  23.144  0.00  0.00     0.002 A 
ATOM     13  C   UNL d   1     -50.439  15.079  22.439  0.00  0.00     0.000 A 
ATOM     14  C   UNL d   1     -50.160  14.456  21.967  0.00  0.00     0.002 A 
ATOM     15  C   UNL d   1     -49.502  14.021  22.202  0.00  0.00     0.025 A 
ENDBRANCH   9  10
ENDBRANCH   7   9
ENDBRANCH   1   7
BRANCH   4  16
ATOM     16  N   UNL d   1     -45.213  11.815  23.075  0.00  0.00    -0.368 NA
ATOM     17  C   UNL d   1     -44.591  11.282  23.127  0.00  0.00     0.303 C 
ATOM     18  O   UNL d   1     -43.854  11.476  22.813  0.00  0.00    -0.256 OA
BRANCH  17  19
ATOM     19  C   UNL d   1     -44.704  10.553  23.494  0.00  0.00     0.085 C 
ATOM     20  C   UNL d   1     -45.464  10.303  23.698  0.00  0.00     0.011 C 
ATOM     21  C   UNL d   1     -43.887  10.608  23.378  0.00  0.00     0.011 C 
ATOM     22  C   UNL d   1     -44.058  10.069  23.659  0.00  0.00     0.011 C 
ENDBRANCH  17  19
ENDBRANCH   4  16
TORSDOF 5
ENDMDL
MODEL 2
REMARK VINA RESULT:      -7.2      1.248      1.691
REMARK  5 active torsions:
REMARK  status: ('A' for Active; 'I' for Inactive)
REMARK       I    between atoms: N_3  and  C_1 
REMARK    1  A    between atoms: C_4  and  C_1 
REMARK    2  A    between atoms: C_2  and  C_6 
REMARK    3  A    between atoms: O_5  and  C_2 
REMARK    4  A    between atoms: C_11  and  N_3 
REMARK    5  A    between atoms: C_14  and  O_5 
ROOT
ATOM      1  C   UNL d   1     -47.651  14.091  22.635  0.00  0.00     0.064 A 
ATOM      2  C   UNL d   1     -47.618  13.352  22.265  0.00  0.00     0.008 A 
ATOM      3  C   UNL d   1     -46.967  14.413  22.978  0.00  0.00     0.008 A 
ATOM      4  C   UNL d   1     -46.224  13.259  22.580  0.00  0.00     0.135 A 
ATOM      5  C   UNL d   1     -46.908  12.937  22.237  0.00  0.00     0.032 A 
ATOM      6  C   UNL d   1     -46.255  13.994  22.948  0.00  0.00     0.032 A 
ENDROOT
BRANCH   1   7
ATOM      7  C   UNL d   1     -48.368  14.504  22.661  0.00  0.00     0.300 C 
ATOM      8  O   UNL d   1     -48.541  15.050  22.070  0.00  0.00    -0.259 OA
BRANCH   7   9
ATOM      9  O   UNL d   1     -48.903  14.367  23.273  0.00  0.00    -0.273 OA
BRANCH   9  10
ATOM     10  C   UNL d   1     -49.624  14.766  23.283  0.00  0.00     0.103 A 
ATOM     11  C   UNL d   1     -50.296  14.407  22.969  0.00  0.00     0.025 A 
ATOM     12  C   UNL d   1     -51.008  14.806  22.980  0.00  0.00     0.002 A 
ATOM     13  C   UNL d   1     -51.064  15.564  23.301  0.00  0.00     0.000 A 
ATOM     14  C   UNL d   1     -50.385  15.922  23.617  0.00  0.00     0.002 A 
ATOM     15  C   UNL d   1     -49.665  15.524  23.607  0.00  0.00     0.025 A 
ENDBRANCH   9  10
ENDBRANCH   7   9
ENDBRANCH   1   7
BRANCH   4  16
ATOM     16  N   UNL d   1     -45.510  12.837  22.549  0.00  0.00    -0.368 NA
ATOM     17  C   UNL d   1     -44.803  12.420  22.517  0.00  0.00     0.303 C 
ATOM     18  O   UNL d   1     -44.670  11.792  23.033  0.00  0.00    -0.256 OA
BRANCH  17  19
ATOM     19  C   UNL d   1     -44.226  12.632  21.968  0.00  0.00     0.085 C 
ATOM     20  C   UNL d   1     -44.346  13.275  21.464  0.00  0.00     0.011 C 
ATOM     21  C   UNL d   1     -43.912  11.975  22.362  0.00  0.00     0.011 C 
ATOM     22  C   UNL d   1     -43.525  12.201  21.918  0.00  0.00     0.011 C 
ENDBRANCH  17  19
ENDBRANCH   4  16
TORSDOF 5
ENDMDL
MODEL 3
REMARK VINA RESULT:      -6.8      1.771      5.310
REMARK  5 active torsions:
REMARK  status: ('A' for Active; 'I' for Inactive)
REMARK       I    between atoms: N_3  and  C_1 
REMARK    1  A    between atoms: C_4  and  C_1 
REMARK    2  A    between atoms: C_2  and  C_6 
REMARK    3  A    between atoms: O_5  and  C_2 
REMARK    4  A    between atoms: C_11  and  N_3 
REMARK    5  A    between atoms: C_14  and  O_5 
ROOT
ATOM      1  C   UNL d   1     -46.995  13.651  22.850  0.00  0.00     0.064 A 
ATOM      2  C   UNL d   1     -47.105  14.469  22.895  0.00  0.00     0.008 A 
ATOM      3  C   UNL d   1     -47.651  13.149  22.768  0.00  0.00     0.008 A 
ATOM      4  C   UNL d   1     -48.520  14.283  22.777  0.00  0.00     0.135 A 
ATOM      5  C   UNL d   1     -47.864  14.785  22.859  0.00  0.00     0.032 A 
ATOM      6  C   UNL d   1     -48.412  13.469  22.731  0.00  0.00     0.032 A 
ENDROOT
BRANCH   1   7
ATOM      7  C   UNL d   1     -46.229  13.339  22.887  0.00  0.00     0.300 C 
ATOM      8  O   UNL d   1     -45.706  13.617  23.458  0.00  0.00    -0.259 OA
BRANCH   7   9
ATOM      9  O   UNL d   1     -45.994  12.754  22.354  0.00  0.00    -0.273 OA
BRANCH   9  10
ATOM     10  C   UNL d   1     -45.192  12.638  22.202  0.00  0.00     0.103 A 
ATOM     11  C   UNL d   1     -44.809  13.108  21.644  0.00  0.00     0.025 A 
ATOM     12  C   UNL d   1     -44.015  12.989  21.497  0.00  0.00     0.002 A 
ATOM     13  C   UNL d   1     -43.591  12.407  21.899  0.00  0.00     0.000 A 
ATOM     14  C   UNL d   1     -43.981  11.936  22.460  0.00  0.00     0.002 A 
ATOM     15  C   UNL d   1     -44.782  12.051  22.612  0.00  0.00     0.025 A 
ENDBRANCH   9  10
ENDBRANCH   7   9
ENDBRANCH   1   7
BRANCH   4  16
ATOM     16  N   UNL d   1     -49.284  14.607  22.741  0.00  0.00    -0.368 NA
ATOM     17  C   UNL d   1     -50.040  14.925  22.706  0.00  0.00     0.303 C 
ATOM     18  O   UNL d   1     -50.208  15.533  22.176  0.00  0.00    -0.256 OA
BRANCH  17  19
ATOM     19  C   UNL d   1     -50.630  14.636  23.203  0.00  0.00     0.085 C 
ATOM     20  C   UNL d   1     -50.790  13.827  23.234  0.00  0.00     0.011 C 
ATOM     21  C   UNL d   1     -50.633  15.455  23.324  0.00  0.00     0.011 C 
ATOM     22  C   UNL d   1     -51.064  15.154  23.674  0.00  0.00     0.011 C 
ENDBRANCH  17  19
ENDBRANCH   4  16
TORSDOF 5
ENDMDL
MODEL 4
REMARK VINA RESULT:      -6.7      1.614      5.367
REMARK  5 active torsions:
REMARK  status: ('A' for Active; 'I' for Inactive)
REMARK       I    between atoms: N_3  and  C_1 
REMARK    1  A    between atoms: C_4  and  C_1 
REMARK    2  A    between atoms: C_2  and  C_6 
REMARK    3  A    between atoms: O_5  and  C_2 
REMARK    4  A    between atoms: C_11  and  N_3 
REMARK    5  A    between atoms: C_14  and  O_5 
ROOT
ATOM      1  C   UNL d   1     -47.032  12.044  23.302  0.00  0.00     0.064 A 
ATOM      2  C   UNL d   1     -47.258  12.666  22.806  0.00  0.00     0.008 A 
ATOM      3  C   UNL d   1     -47.611  11.595  23.693  0.00  0.00     0.008 A 
ATOM      4  C   UNL d   1     -48.634  12.390  23.091  0.00  0.00     0.135 A 
ATOM      5  C   UNL d   1     -48.055  12.840  22.700  0.00  0.00     0.032 A 
ATOM      6  C   UNL d   1     -48.411  11.771  23.584  0.00  0.00     0.032 A 
ENDROOT
BRANCH   1   7
ATOM      7  C   UNL d   1     -46.229  11.875  23.405  0.00  0.00     0.300 C 
ATOM      8  O   UNL d   1     -45.680  12.487  23.378  0.00  0.00    -0.259 OA
BRANCH   7   9
ATOM      9  O   UNL d   1     -45.982  11.098  23.532  0.00  0.00    -0.273 OA
BRANCH   9  10
ATOM     10  C   UNL d   1     -45.188  10.900  23.433  0.00  0.00     0.103 A 
ATOM     11  C   UNL d   1     -44.912  10.170  23.698  0.00  0.00     0.025 A 
ATOM     12  C   UNL d   1     -44.125   9.977  23.598  0.00  0.00     0.002 A 
ATOM     13  C   UNL d   1     -43.603  10.503  23.235  0.00  0.00     0.000 A 
ATOM     14  C   UNL d   1     -43.886  11.237  22.970  0.00  0.00     0.002 A 
ATOM     15  C   UNL d   1     -44.678  11.436  23.069  0.00  0.00     0.025 A 
ENDBRANCH   9  10
ENDBRANCH   7   9
ENDBRANCH   1   7
BRANCH   4  16
ATOM     16  N   UNL d   1     -49.438  12.569  22.981  0.00  0.00    -0.368 NA
ATOM     17  C   UNL d   1     -50.232  12.747  22.872  0.00  0.00     0.303 C 
ATOM     18  O   UNL d   1     -50.806  12.170  23.003  0.00  0.00    -0.256 OA
BRANCH  17  19
ATOM     19  C   UNL d   1     -50.454  13.503  22.631  0.00  0.00     0.085 C 
ATOM     20  C   UNL d   1     -50.145  14.168  23.009  0.00  0.00     0.011 C 
ATOM     21  C   UNL d   1     -50.869  12.991  22.131  0.00  0.00     0.011 C 
ATOM     22  C   UNL d   1     -50.986  13.599  22.009  0.00  0.00     0.011 C 
ENDBRANCH  17  19
ENDBRANCH   4  16
TORSDOF 5
ENDMDL
