MODEL 1
REMARK VINA RESULT:      -6.5      0.000      0.000
REMARK  5 active torsions:
REMARK  status: ('A' for Active; 'I' for Inactive)
REMARK    1  A    between atoms: N_8  and  C_1 
REMARK    2  A    between atoms: C_11  and  N_4 
REMARK    3  A    between atoms: N_6  and  C_7 
REMARK       I    between atoms: C_9  and  N_6 
REMARK    4  A    between atoms: C_7  and  N_8 
REMARK    5  A    between atoms: C_14  and  C_9 
ROOT
ATOM      1  C   UNL d   1     -47.099  13.416  22.366  0.00  0.00     0.209 A 
ATOM      2  C   UNL d   1     -48.262  12.854  21.941  0.00  0.00     0.310 A 
ATOM      3  N   UNL d   1     -48.275  14.072  22.546  0.00  0.00    -0.237 N 
ATOM      4  N   UNL d   1     -48.658  13.480  22.204  0.00  0.00    -0.208 N 
ATOM      5  C   UNL d   1     -47.494  14.038  22.626  0.00  0.00     0.116 A 
ATOM      6  O   UNL d   1     -48.471  12.114  21.546  0.00  0.00    -0.262 OA
ATOM      7  C   UNL d   1     -48.670  14.694  22.807  0.00  0.00     0.120 C 
ATOM      8  C   UNL d   1     -47.113  14.635  22.971  0.00  0.00     0.024 C 
ENDROOT
BRANCH   1   9
ATOM      9  N   UNL d   1     -46.263  13.180  22.351  0.00  0.00    -0.366 NA
BRANCH   9  10
ATOM     10  C   UNL d   1     -45.466  12.954  22.338  0.00  0.00     0.275 C 
ATOM     11  S   UNL d   1     -44.903  13.432  21.956  0.00  0.00    -0.023 SA
BRANCH  10  12
ATOM     12  N   UNL d   1     -45.230  12.250  22.708  0.00  0.00    -0.168 NA
ATOM     13  C   UNL d   1     -44.467  11.953  22.582  0.00  0.00     0.282 C 
ATOM     14  O   UNL d   1     -43.938  12.360  22.086  0.00  0.00    -0.265 OA
BRANCH  13  15
ATOM     15  C   UNL d   1     -44.231  11.249  22.952  0.00  0.00     0.058 A 
ATOM     16  C   UNL d   1     -43.436  11.025  22.949  0.00  0.00     0.005 A 
ATOM     17  C   UNL d   1     -43.202  10.317  23.321  0.00  0.00     0.000 A 
ATOM     18  C   UNL d   1     -43.777   9.833  23.698  0.00  0.00     0.000 A 
ATOM     19  C   UNL d   1     -44.575  10.066  23.696  0.00  0.00     0.000 A 
ATOM     20  C   UNL d   1     -44.802  10.767  23.327  0.00  0.00     0.005 A 
ENDBRANCH  13  15
ENDBRANCH  10  12
ENDBRANCH   9  10
ENDBRANCH   1   9
BRANCH   4  21
ATOM     21  C   UNL d   1     -49.435  13.511  22.122  0.00  0.00     0.085 A 
ATOM     22  C   UNL d   1     -49.747  13.798  21.466  0.00  0.00     0.019 A 
ATOM     23  C   UNL d   1     -50.525  13.832  21.378  0.00  0.00     0.002 A 
ATOM     24  C   UNL d   1     -50.997  13.571  21.963  0.00  0.00     0.000 A 
ATOM     25  C   UNL d   1     -50.677  13.284  22.618  0.00  0.00     0.002 A 
ATOM     26  C   UNL d   1     -49.900  13.254  22.698  0.00  0.00     0.019 A 
ENDBRANCH   4  21
TORSDOF 5
ENDMDL
MODEL 2
REMARK VINA RESULT:      -6.2      1.599      2.231
REMARK  5 active torsions:
REMARK  status: ('A' for Active; 'I' for Inactive)
REMARK    1  A    between atoms: N_8  and  C_1 
REMARK    2  A    between atoms: C_11  and  N_4 
REMARK    3  A    between atoms: N_6  and  C_7 
REMARK       I    between atoms: C_9  and  N_6 
REMARK    4  A    between atoms: C_7  and  N_8 
REMARK    5  A    between atoms: C_14  and  C_9 
ROOT
ATOM      1  C   UNL d   1     -48.085  12.775  23.227  0.00  0.00     0.209 A 
ATOM      2  C   UNL d   1     -48.527  14.034  22.963  0.00  0.00     0.310 A 
ATOM      3  N   UNL d   1     -49.409  13.065  23.324  0.00  0.00    -0.237 N 
ATOM      4  N   UNL d   1     -49.262  13.806  23.116  0.00  0.00    -0.208 N 
ATOM      5  C   UNL d   1     -48.817  12.550  23.379  0.00  0.00     0.116 A 
ATOM      6  O   UNL d   1     -48.148  14.774  22.726  0.00  0.00    -0.262 OA
ATOM      7  C   UNL d   1     -50.142  12.839  23.475  0.00  0.00     0.120 C 
ATOM      8  C   UNL d   1     -48.968  11.806  23.588  0.00  0.00     0.024 C 
ENDROOT
BRANCH   1   9
ATOM      9  N   UNL d   1     -47.309  12.386  23.227  0.00  0.00    -0.366 NA
BRANCH   9  10
ATOM     10  C   UNL d   1     -46.568  12.014  23.227  0.00  0.00     0.275 C 
ATOM     11  S   UNL d   1     -46.438  11.341  23.697  0.00  0.00    -0.023 SA
BRANCH  10  12
ATOM     12  N   UNL d   1     -45.955  12.316  22.755  0.00  0.00    -0.168 NA
ATOM     13  C   UNL d   1     -45.189  12.009  22.830  0.00  0.00     0.282 C 
ATOM     14  O   UNL d   1     -45.034  11.402  23.376  0.00  0.00    -0.265 OA
BRANCH  13  15
ATOM     15  C   UNL d   1     -44.576  12.311  22.358  0.00  0.00     0.058 A 
ATOM     16  C   UNL d   1     -43.846  11.926  22.332  0.00  0.00     0.005 A 
ATOM     17  C   UNL d   1     -43.232  12.230  21.858  0.00  0.00     0.000 A 
ATOM     18  C   UNL d   1     -43.360  12.929  21.407  0.00  0.00     0.000 A 
ATOM     19  C   UNL d   1     -44.098  13.309  21.439  0.00  0.00     0.000 A 
ATOM     20  C   UNL d   1     -44.702  13.004  21.910  0.00  0.00     0.005 A 
ENDBRANCH  13  15
ENDBRANCH  10  12
ENDBRANCH   9  10
ENDBRANCH   1   9
BRANCH   4  21
ATOM     21  C   UNL d   1     -49.849  14.321  23.060  0.00  0.00     0.085 A 
ATOM     22  C   UNL d   1     -50.001  14.803  23.655  0.00  0.00     0.019 A 
ATOM     23  C   UNL d   1     -50.587  15.322  23.606  0.00  0.00     0.002 A 
ATOM     24  C   UNL d   1     -51.028  15.353  22.944  0.00  0.00     0.000 A 
ATOM     25  C   UNL d   1     -50.869  14.865  22.352  0.00  0.00     0.002 A 
ATOM     26  C   UNL d   1     -50.283  14.351  22.408  0.00  0.00     0.019 A 
ENDBRANCH   4  21
TORSDOF 5
ENDMDL
MODEL 3
REMARK VINA RESULT:      -6.2      7.864      9.383
REMARK  5 active torsions:
REMARK  status: ('A' for Active; 'I' for Inactive)
REMARK    1  A    between atoms: N_8  and  C_1 
REMARK    2  A    between atoms: C_11  and  N_4 
REMARK    3  A    between atoms: N_6  and  C_7 
REMARK       I    between atoms: C_9  and  N_6 
REMARK    4  A    between atoms: C_7  and  N_8 
REMARK    5  A    between atoms: C_14  and  C_9 
ROOT
ATOM      1  C   UNL d   1     -39.860  15.078  18.823  0.00  0.00     0.209 A 
ATOM      2  C   UNL d   1     -38.736  14.666  18.177  0.00  0.00     0.310 A 
ATOM      3  N   UNL d   1     -39.836  15.029  17.465  0.00  0.00    -0.237 N 
ATOM      4  N   UNL d   1     -39.096  14.771  17.487  0.00  0.00    -0.208 N 
ATOM      5  C   UNL d   1     -40.217  15.182  18.135  0.00  0.00     0.116 A 
ATOM      6  O   UNL d   1     -37.953  14.400  18.429  0.00  0.00    -0.262 OA
ATOM      7  C   UNL d   1     -40.193  15.133  16.777  0.00  0.00     0.120 C 
ATOM      8  C   UNL d   1     -40.960  15.441  18.109  0.00  0.00     0.024 C 
ENDROOT
BRANCH   1   9
ATOM      9  N   UNL d   1     -40.085  15.181  19.655  0.00  0.00    -0.366 NA
BRANCH   9  10
ATOM     10  C   UNL d   1     -40.300  15.280  20.449  0.00  0.00     0.275 C 
ATOM     11  S   UNL d   1     -40.841  15.873  20.665  0.00  0.00    -0.023 SA
BRANCH  10  12
ATOM     12  N   UNL d   1     -39.973  14.784  21.029  0.00  0.00    -0.168 NA
ATOM     13  C   UNL d   1     -39.484  15.105  21.617  0.00  0.00     0.282 C 
ATOM     14  O   UNL d   1     -39.322  15.920  21.625  0.00  0.00    -0.265 OA
BRANCH  13  15
ATOM     15  C   UNL d   1     -39.157  14.610  22.197  0.00  0.00     0.058 A 
ATOM     16  C   UNL d   1     -38.916  14.924  22.922  0.00  0.00     0.005 A 
ATOM     17  C   UNL d   1     -38.588  14.425  23.503  0.00  0.00     0.000 A 
ATOM     18  C   UNL d   1     -38.505  13.603  23.349  0.00  0.00     0.000 A 
ATOM     19  C   UNL d   1     -38.750  13.295  22.617  0.00  0.00     0.000 A 
ATOM     20  C   UNL d   1     -39.074  13.793  22.045  0.00  0.00     0.005 A 
ENDBRANCH  13  15
ENDBRANCH  10  12
ENDBRANCH   9  10
ENDBRANCH   1   9
BRANCH   4  21
ATOM     21  C   UNL d   1     -38.714  14.618  16.821  0.00  0.00     0.085 A 
ATOM     22  C   UNL d   1     -38.695  13.888  16.543  0.00  0.00     0.019 A 
ATOM     23  C   UNL d   1     -38.315  13.727  15.877  0.00  0.00     0.002 A 
ATOM     24  C   UNL d   1     -37.947  14.313  15.484  0.00  0.00     0.000 A 
ATOM     25  C   UNL d   1     -37.971  15.043  15.770  0.00  0.00     0.002 A 
ATOM     26  C   UNL d   1     -38.353  15.195  16.435  0.00  0.00     0.019 A 
ENDBRANCH   4  21
TORSDOF 5
ENDMDL
MODEL 4
REMARK VINA RESULT:      -4.0      1.726      5.589
REMARK  5 active torsions:
REMARK  status: ('A' for Active; 'I' for Inactive)
REMARK    1  A    between atoms: N_8  and  C_1 
REMARK    2  A    between atoms: C_11  and  N_4 
REMARK    3  A    between atoms: N_6  and  C_7 
REMARK       I    between atoms: C_9  and  N_6 
REMARK    4  A    between atoms: C_7  and  N_8 
REMARK    5  A    between atoms: C_14  and  C_9 
ROOT
ATOM      1  C   UNL d   1     -47.099  12.298  22.992  0.00  0.00     0.209 A 
ATOM      2  C   UNL d   1     -46.143  12.939  22.267  0.00  0.00     0.310 A 
ATOM      3  N   UNL d   1     -45.827  11.821  22.972  0.00  0.00    -0.237 N 
ATOM      4  N   UNL d   1     -45.615  12.406  22.496  0.00  0.00    -0.208 N 
ATOM      5  C   UNL d   1     -46.572  11.768  23.220  0.00  0.00     0.116 A 
ATOM      6  O   UNL d   1     -46.131  13.641  21.763  0.00  0.00    -0.262 OA
ATOM      7  C   UNL d   1     -45.299  11.291  23.200  0.00  0.00     0.120 C 
ATOM      8  C   UNL d   1     -46.782  11.179  23.698  0.00  0.00     0.024 C 
ENDROOT
BRANCH   1   9
ATOM      9  N   UNL d   1     -47.945  12.427  23.139  0.00  0.00    -0.366 NA
BRANCH   9  10
ATOM     10  C   UNL d   1     -48.753  12.549  23.280  0.00  0.00     0.275 C 
ATOM     11  S   UNL d   1     -49.284  11.912  23.243  0.00  0.00    -0.023 SA
BRANCH  10  12
ATOM     12  N   UNL d   1     -49.029  13.311  23.457  0.00  0.00    -0.168 NA
ATOM     13  C   UNL d   1     -49.695  13.610  23.063  0.00  0.00     0.282 C 
ATOM     14  O   UNL d   1     -50.084  13.149  22.492  0.00  0.00    -0.265 OA
BRANCH  13  15
ATOM     15  C   UNL d   1     -49.971  14.372  23.241  0.00  0.00     0.058 A 
ATOM     16  C   UNL d   1     -49.476  15.026  23.141  0.00  0.00     0.005 A 
ATOM     17  C   UNL d   1     -49.755  15.791  23.320  0.00  0.00     0.000 A 
ATOM     18  C   UNL d   1     -50.541  15.893  23.601  0.00  0.00     0.000 A 
ATOM     19  C   UNL d   1     -51.032  15.230  23.698  0.00  0.00     0.000 A 
ATOM     20  C   UNL d   1     -50.751  14.475  23.520  0.00  0.00     0.005 A 
ENDBRANCH  13  15
ENDBRANCH  10  12
ENDBRANCH   9  10
ENDBRANCH   1   9
BRANCH   4  21
ATOM     21  C   UNL d   1     -44.875  12.460  22.249  0.00  0.00     0.085 A 
ATOM     22  C   UNL d   1     -44.322  12.013  22.573  0.00  0.00     0.019 A 
ATOM     23  C   UNL d   1     -43.578  12.062  22.330  0.00  0.00     0.002 A 
ATOM     24  C   UNL d   1     -43.389  12.572  21.749  0.00  0.00     0.000 A 
ATOM     25  C   UNL d   1     -43.949  13.017  21.429  0.00  0.00     0.002 A 
ATOM     26  C   UNL d   1     -44.688  12.962  21.677  0.00  0.00     0.019 A 
ENDBRANCH   4  21
TORSDOF 5
ENDMDL
MODEL 5
REMARK VINA RESULT:      -3.6      6.466      8.734
REMARK  5 active torsions:
REMARK  status: ('A' for Active; 'I' for Inactive)
REMARK    1  A    between atoms: N_8  and  C_1 
REMARK    2  A    between atoms: C_11  and  N_4 
REMARK    3  A    between atoms: N_6  and  C_7 
REMARK       I    between atoms: C_9  and  N_6 
REMARK    4  A    between atoms: C_7  and  N_8 
REMARK    5  A    between atoms: C_14  and  C_9 
ROOT
ATOM      1  C   UNL d   1     -40.194  14.974  18.852  0.00  0.00     0.209 A 
ATOM      2  C   UNL d   1     -39.144  14.343  18.261  0.00  0.00     0.310 A 
ATOM      3  N   UNL d   1     -39.914  15.204  17.543  0.00  0.00    -0.237 N 
ATOM      4  N   UNL d   1     -39.309  14.708  17.585  0.00  0.00    -0.208 N 
ATOM      5  C   UNL d   1     -40.357  15.335  18.179  0.00  0.00     0.116 A 
ATOM      6  O   UNL d   1     -38.547  13.777  18.526  0.00  0.00    -0.262 OA
ATOM      7  C   UNL d   1     -40.077  15.566  16.869  0.00  0.00     0.120 C 
ATOM      8  C   UNL d   1     -40.964  15.834  18.133  0.00  0.00     0.024 C 
ENDROOT
BRANCH   1   9
ATOM      9  N   UNL d   1     -40.539  14.972  19.649  0.00  0.00    -0.366 NA
BRANCH   9  10
ATOM     10  C   UNL d   1     -40.869  14.971  20.410  0.00  0.00     0.275 C 
ATOM     11  S   UNL d   1     -40.524  15.425  21.015  0.00  0.00    -0.023 SA
BRANCH  10  12
ATOM     12  N   UNL d   1     -41.545  14.515  20.566  0.00  0.00    -0.168 NA
ATOM     13  C   UNL d   1     -41.508  13.900  21.120  0.00  0.00     0.282 C 
ATOM     14  O   UNL d   1     -40.796  13.740  21.519  0.00  0.00    -0.265 OA
BRANCH  13  15
ATOM     15  C   UNL d   1     -42.183  13.445  21.276  0.00  0.00     0.058 A 
ATOM     16  C   UNL d   1     -42.109  12.700  21.625  0.00  0.00     0.005 A 
ATOM     17  C   UNL d   1     -42.789  12.244  21.781  0.00  0.00     0.000 A 
ATOM     18  C   UNL d   1     -43.548  12.544  21.581  0.00  0.00     0.000 A 
ATOM     19  C   UNL d   1     -43.614  13.295  21.230  0.00  0.00     0.000 A 
ATOM     20  C   UNL d   1     -42.938  13.742  21.078  0.00  0.00     0.005 A 
ENDBRANCH  13  15
ENDBRANCH  10  12
ENDBRANCH   9  10
ENDBRANCH   1   9
BRANCH   4  21
ATOM     21  C   UNL d   1     -38.867  14.575  16.953  0.00  0.00     0.085 A 
ATOM     22  C   UNL d   1     -38.385  15.131  16.691  0.00  0.00     0.019 A 
ATOM     23  C   UNL d   1     -37.940  15.005  16.059  0.00  0.00     0.002 A 
ATOM     24  C   UNL d   1     -37.980  14.304  15.685  0.00  0.00     0.000 A 
ATOM     25  C   UNL d   1     -38.465  13.751  15.954  0.00  0.00     0.002 A 
ATOM     26  C   UNL d   1     -38.907  13.884  16.585  0.00  0.00     0.019 A 
ENDBRANCH   4  21
TORSDOF 5
ENDMDL
