MODEL 1
REMARK VINA RESULT:      96.7      0.000      0.000
REMARK  6 active torsions:
REMARK  status: ('A' for Active; 'I' for Inactive)
REMARK    1  A    between atoms: N_3  and  C_1 
REMARK    2  A    between atoms: C_5  and  C_2 
REMARK    3  A    between atoms: C_7  and  C_5 
REMARK    4  A    between atoms: C_8  and  C_5 
REMARK    5  A    between atoms: O_15  and  C_7 
REMARK    6  A    between atoms: C_19  and  O_15 
ROOT
ATOM      1  C   UNL d   1      60.838  48.009  51.340  0.00  0.00     0.166 A 
ATOM      2  C   UNL d   1      60.890  48.248  50.552  0.00  0.00     0.122 A 
ATOM      3  N   UNL d   1      60.828  47.203  51.534  0.00  0.00    -0.225 NA
ATOM      4  N   UNL d   1      60.932  47.676  49.956  0.00  0.00    -0.241 NA
ATOM      5  C   UNL d   1      60.870  46.637  50.931  0.00  0.00     0.101 A 
ATOM      6  C   UNL d   1      60.921  46.874  50.147  0.00  0.00     0.099 A 
ATOM      7  C   UNL d   1      60.860  45.843  51.125  0.00  0.00     0.021 A 
ATOM      8  C   UNL d   1      60.963  46.308  49.549  0.00  0.00     0.021 A 
ATOM      9  C   UNL d   1      60.953  45.510  49.740  0.00  0.00     0.002 A 
ATOM     10  C   UNL d   1      60.901  45.272  50.529  0.00  0.00     0.002 A 
ENDROOT
BRANCH   2  11
ATOM     11  C   UNL d   1      60.900  49.054  50.358  0.00  0.00     0.105 C 
BRANCH  11  12
ATOM     12  C   UNL d   1      60.348  49.358  49.826  0.00  0.00     0.303 C 
ATOM     13  O   UNL d   1      60.578  49.543  49.058  0.00  0.00    -0.259 OA
BRANCH  12  14
ATOM     14  O   UNL d   1      59.571  49.477  50.063  0.00  0.00    -0.273 OA
BRANCH  14  15
ATOM     15  C   UNL d   1      58.770  49.488  49.884  0.00  0.00     0.103 A 
ATOM     16  C   UNL d   1      58.528  49.694  49.123  0.00  0.00     0.025 A 
ATOM     17  C   UNL d   1      57.725  49.705  48.941  0.00  0.00     0.002 A 
ATOM     18  C   UNL d   1      57.174  49.514  49.512  0.00  0.00     0.000 A 
ATOM     19  C   UNL d   1      57.414  49.310  50.267  0.00  0.00     0.002 A 
ATOM     20  C   UNL d   1      58.220  49.296  50.457  0.00  0.00     0.025 A 
ENDBRANCH  14  15
ENDBRANCH  12  14
ENDBRANCH  11  12
BRANCH  11  21
ATOM     21  C   UNL d   1      61.465  49.561  50.697  0.00  0.00     0.129 C 
ATOM     22  N   UNL d   1      62.325  49.707  50.315  0.00  0.00    -0.146 N 
ENDBRANCH  11  21
ENDBRANCH   2  11
BRANCH   1  23
ATOM     23  N   UNL d   1      60.796  48.575  51.942  0.00  0.00    -0.284 N 
ATOM     24  C   UNL d   1      61.492  48.861  52.293  0.00  0.00     0.106 A 
ATOM     25  C   UNL d   1      61.444  49.424  52.891  0.00  0.00     0.118 A 
ATOM     26  C   UNL d   1      62.141  49.707  53.239  0.00  0.00     0.028 C 
ATOM     27  O   UNL d   1      60.714  49.708  53.147  0.00  0.00    -0.304 OA
ATOM     28  C   UNL d   1      60.018  49.422  52.797  0.00  0.00     0.118 A 
ATOM     29  C   UNL d   1      60.053  48.852  52.190  0.00  0.00     0.106 A 
ATOM     30  C   UNL d   1      59.274  49.699  53.045  0.00  0.00     0.028 C 
ENDBRANCH   1  23
TORSDOF 6
ENDMDL
