MODEL 1
REMARK VINA RESULT:      -3.9      0.000      0.000
REMARK  5 active torsions:
REMARK  status: ('A' for Active; 'I' for Inactive)
REMARK    1  A    between atoms: C_6  and  C_1 
REMARK    2  A    between atoms: C_11  and  N_3 
REMARK    3  A    between atoms: C_14  and  C_11 
REMARK    4  A    between atoms: O_12  and  C_14 
REMARK    5  A    between atoms: C_13  and  O_12 
ROOT
ATOM      1  C   UNL d   1      60.123  -1.405  28.973  0.00  0.00     0.171 A 
ATOM      2  N   UNL d   1      60.558  -2.043  28.674  0.00  0.00    -0.225 NA
ATOM      3  N   UNL d   1      59.373  -1.707  29.159  0.00  0.00    -0.286 N 
ATOM      4  C   UNL d   1      59.356  -2.492  28.980  0.00  0.00     0.083 A 
ATOM      5  C   UNL d   1      60.096  -2.702  28.677  0.00  0.00     0.099 A 
ATOM      6  C   UNL d   1      58.763  -3.060  29.049  0.00  0.00     0.019 A 
ATOM      7  C   UNL d   1      60.214  -3.472  28.456  0.00  0.00     0.021 A 
ATOM      8  C   UNL d   1      58.916  -3.813  28.820  0.00  0.00     0.002 A 
ATOM      9  C   UNL d   1      59.655  -4.023  28.517  0.00  0.00     0.002 A 
ENDROOT
BRANCH   3  10
ATOM     10  C   UNL d   1      58.856  -1.159  29.465  0.00  0.00     0.108 C 
BRANCH  10  11
ATOM     11  C   UNL d   1      58.208  -1.364  29.912  0.00  0.00     0.142 C 
BRANCH  11  12
ATOM     12  O   UNL d   1      57.839  -0.847  30.416  0.00  0.00    -0.304 OA
BRANCH  12  13
ATOM     13  C   UNL d   1      57.383  -0.675  31.007  0.00  0.00     0.100 A 
ATOM     14  C   UNL d   1      57.581   0.125  30.963  0.00  0.00     0.025 A 
ATOM     15  C   UNL d   1      57.249   0.662  31.494  0.00  0.00     0.002 A 
ATOM     16  C   UNL d   1      56.716   0.401  32.073  0.00  0.00     0.000 A 
ATOM     17  C   UNL d   1      56.517  -0.399  32.117  0.00  0.00     0.002 A 
ATOM     18  C   UNL d   1      56.852  -0.937  31.582  0.00  0.00     0.025 A 
ENDBRANCH  12  13
ENDBRANCH  11  12
ENDBRANCH  10  11
ENDBRANCH   3  10
BRANCH   1  19
ATOM     19  C   UNL d   1      60.382  -0.628  29.067  0.00  0.00     0.134 A 
ATOM     20  O   UNL d   1      60.145   0.001  28.617  0.00  0.00    -0.302 OA
ATOM     21  C   UNL d   1      60.539   0.680  28.897  0.00  0.00     0.123 A 
ATOM     22  C   UNL d   1      61.019   0.444  29.526  0.00  0.00     0.029 A 
ATOM     23  C   UNL d   1      60.915  -0.378  29.625  0.00  0.00     0.030 A 
ENDBRANCH   1  19
TORSDOF 5
ENDMDL
MODEL 2
REMARK VINA RESULT:      -3.5      0.906      2.640
REMARK  5 active torsions:
REMARK  status: ('A' for Active; 'I' for Inactive)
REMARK    1  A    between atoms: C_6  and  C_1 
REMARK    2  A    between atoms: C_11  and  N_3 
REMARK    3  A    between atoms: C_14  and  C_11 
REMARK    4  A    between atoms: O_12  and  C_14 
REMARK    5  A    between atoms: C_13  and  O_12 
ROOT
ATOM      1  C   UNL d   1      59.451  -1.725  28.862  0.00  0.00     0.171 A 
ATOM      2  N   UNL d   1      60.173  -1.538  28.502  0.00  0.00    -0.225 NA
ATOM      3  N   UNL d   1      59.249  -1.068  29.327  0.00  0.00    -0.286 N 
ATOM      4  C   UNL d   1      59.824  -0.508  29.250  0.00  0.00     0.083 A 
ATOM      5  C   UNL d   1      60.400  -0.801  28.736  0.00  0.00     0.099 A 
ATOM      6  C   UNL d   1      59.910   0.242  29.580  0.00  0.00     0.019 A 
ATOM      7  C   UNL d   1      61.040  -0.333  28.571  0.00  0.00     0.021 A 
ATOM      8  C   UNL d   1      60.557   0.678  29.394  0.00  0.00     0.002 A 
ATOM      9  C   UNL d   1      61.133   0.385  28.880  0.00  0.00     0.002 A 
ENDROOT
BRANCH   3  10
ATOM     10  C   UNL d   1      58.548  -1.142  29.731  0.00  0.00     0.108 C 
BRANCH  10  11
ATOM     11  C   UNL d   1      58.207  -0.530  30.143  0.00  0.00     0.142 C 
BRANCH  11  12
ATOM     12  O   UNL d   1      57.614  -0.639  30.685  0.00  0.00    -0.304 OA
BRANCH  12  13
ATOM     13  C   UNL d   1      57.144  -0.404  31.243  0.00  0.00     0.100 A 
ATOM     14  C   UNL d   1      56.992  -1.180  31.479  0.00  0.00     0.025 A 
ATOM     15  C   UNL d   1      56.482  -1.326  32.111  0.00  0.00     0.002 A 
ATOM     16  C   UNL d   1      56.122  -0.695  32.511  0.00  0.00     0.000 A 
ATOM     17  C   UNL d   1      56.274   0.080  32.274  0.00  0.00     0.002 A 
ATOM     18  C   UNL d   1      56.786   0.226  31.639  0.00  0.00     0.025 A 
ENDBRANCH  12  13
ENDBRANCH  11  12
ENDBRANCH  10  11
ENDBRANCH   3  10
BRANCH   1  19
ATOM     19  C   UNL d   1      59.020  -2.423  28.778  0.00  0.00     0.134 A 
ATOM     20  O   UNL d   1      58.259  -2.472  28.507  0.00  0.00    -0.302 OA
ATOM     21  C   UNL d   1      58.037  -3.275  28.509  0.00  0.00     0.123 A 
ATOM     22  C   UNL d   1      58.683  -3.708  28.787  0.00  0.00     0.029 A 
ATOM     23  C   UNL d   1      59.295  -3.165  28.953  0.00  0.00     0.030 A 
ENDBRANCH   1  19
TORSDOF 5
ENDMDL
