MODEL 1
REMARK VINA RESULT:      -2.8      0.000      0.000
REMARK  4 active torsions:
REMARK  status: ('A' for Active; 'I' for Inactive)
REMARK    1  A    between atoms: C_4  and  C_1 
REMARK    2  A    between atoms: C_13  and  N_3 
REMARK    3  A    between atoms: C_11  and  N_5 
REMARK    4  A    between atoms: C_14  and  C_11 
ROOT
ATOM      1  C   UNL d   1     -41.539-122.397 -51.396  0.00  0.00     0.057 A 
ATOM      2  N   UNL d   1     -41.267-122.395 -52.711  0.00  0.00    -0.272 N 
ATOM      3  C   UNL d   1     -41.270-121.608 -52.446  0.00  0.00     0.265 A 
ATOM      4  C   UNL d   1     -41.432-122.874 -52.065  0.00  0.00     0.086 A 
ATOM      5  C   UNL d   1     -41.436-121.610 -51.640  0.00  0.00     0.066 A 
ATOM      6  O   UNL d   1     -41.128-120.945 -52.918  0.00  0.00    -0.267 OA
ENDROOT
BRANCH   1   7
ATOM      7  C   UNL d   1     -41.712-122.698 -50.656  0.00  0.00     0.149 A 
ATOM      8  N   UNL d   1     -41.303-123.215 -50.212  0.00  0.00    -0.227 NA
ATOM      9  C   UNL d   1     -41.714-123.342 -49.505  0.00  0.00     0.099 A 
ATOM     10  C   UNL d   1     -41.550-123.812 -48.858  0.00  0.00     0.021 A 
ATOM     11  C   UNL d   1     -42.389-122.885 -49.530  0.00  0.00     0.083 A 
ATOM     12  C   UNL d   1     -42.085-123.817 -48.223  0.00  0.00     0.002 A 
ATOM     13  C   UNL d   1     -42.759-123.361 -48.249  0.00  0.00     0.002 A 
ATOM     14  C   UNL d   1     -42.920-122.885 -48.910  0.00  0.00     0.019 A 
ATOM     15  N   UNL d   1     -42.387-122.482 -50.253  0.00  0.00    -0.289 N 
BRANCH  15  16
ATOM     16  C   UNL d   1     -42.969-121.948 -50.524  0.00  0.00     0.082 C 
ATOM     17  C   UNL d   1     -43.780-122.090 -50.354  0.00  0.00     0.021 C 
ENDBRANCH  15  16
ENDBRANCH   1   7
BRANCH   2  18
ATOM     18  C   UNL d   1     -41.123-122.653 -53.493  0.00  0.00     0.083 C 
BRANCH  18  19
ATOM     19  C   UNL d   1     -41.743-122.641 -54.047  0.00  0.00     0.018 A 
ATOM     20  C   UNL d   1     -42.212-123.319 -54.140  0.00  0.00     0.002 A 
ATOM     21  C   UNL d   1     -42.827-123.304 -54.690  0.00  0.00     0.000 A 
ATOM     22  C   UNL d   1     -42.977-122.635 -55.139  0.00  0.00     0.000 A 
ATOM     23  C   UNL d   1     -42.508-121.964 -55.043  0.00  0.00     0.000 A 
ATOM     24  C   UNL d   1     -41.887-121.969 -54.492  0.00  0.00     0.002 A 
ENDBRANCH  18  19
ENDBRANCH   2  18
TORSDOF 4
ENDMDL
MODEL 2
REMARK VINA RESULT:      -2.6      1.050      4.467
REMARK  4 active torsions:
REMARK  status: ('A' for Active; 'I' for Inactive)
REMARK    1  A    between atoms: C_4  and  C_1 
REMARK    2  A    between atoms: C_13  and  N_3 
REMARK    3  A    between atoms: C_11  and  N_5 
REMARK    4  A    between atoms: C_14  and  C_11 
ROOT
ATOM      1  C   UNL d   1     -41.296-122.517 -52.037  0.00  0.00     0.057 A 
ATOM      2  N   UNL d   1     -41.221-122.694 -50.708  0.00  0.00    -0.272 N 
ATOM      3  C   UNL d   1     -41.198-121.878 -50.862  0.00  0.00     0.265 A 
ATOM      4  C   UNL d   1     -41.281-123.080 -51.428  0.00  0.00     0.086 A 
ATOM      5  C   UNL d   1     -41.244-121.771 -51.676  0.00  0.00     0.066 A 
ATOM      6  O   UNL d   1     -41.139-121.285 -50.289  0.00  0.00    -0.267 OA
ENDROOT
BRANCH   1   7
ATOM      7  C   UNL d   1     -41.353-122.715 -52.827  0.00  0.00     0.149 A 
ATOM      8  N   UNL d   1     -41.123-123.377 -53.201  0.00  0.00    -0.227 NA
ATOM      9  C   UNL d   1     -41.304-123.306 -54.005  0.00  0.00     0.099 A 
ATOM     10  C   UNL d   1     -41.190-123.814 -54.634  0.00  0.00     0.021 A 
ATOM     11  C   UNL d   1     -41.654-122.578 -54.112  0.00  0.00     0.083 A 
ATOM     12  C   UNL d   1     -41.439-123.574 -55.389  0.00  0.00     0.002 A 
ATOM     13  C   UNL d   1     -41.789-122.845 -55.496  0.00  0.00     0.002 A 
ATOM     14  C   UNL d   1     -41.901-122.335 -54.851  0.00  0.00     0.019 A 
ATOM     15  N   UNL d   1     -41.684-122.207 -53.373  0.00  0.00    -0.289 N 
BRANCH  15  16
ATOM     16  C   UNL d   1     -41.997-121.450 -53.210  0.00  0.00     0.082 C 
ATOM     17  C   UNL d   1     -42.406-121.027 -53.811  0.00  0.00     0.021 C 
ENDBRANCH  15  16
ENDBRANCH   1   7
BRANCH   2  18
ATOM     18  C   UNL d   1     -41.189-123.055 -49.954  0.00  0.00     0.083 C 
BRANCH  18  19
ATOM     19  C   UNL d   1     -41.897-123.286 -49.582  0.00  0.00     0.018 A 
ATOM     20  C   UNL d   1     -41.964-123.207 -48.760  0.00  0.00     0.002 A 
ATOM     21  C   UNL d   1     -42.667-123.437 -48.394  0.00  0.00     0.000 A 
ATOM     22  C   UNL d   1     -43.291-123.739 -48.832  0.00  0.00     0.000 A 
ATOM     23  C   UNL d   1     -43.220-123.815 -49.650  0.00  0.00     0.000 A 
ATOM     24  C   UNL d   1     -42.516-123.587 -50.026  0.00  0.00     0.002 A 
ENDBRANCH  18  19
ENDBRANCH   2  18
TORSDOF 4
ENDMDL
MODEL 3
REMARK VINA RESULT:      -1.8      0.932      1.111
REMARK  4 active torsions:
REMARK  status: ('A' for Active; 'I' for Inactive)
REMARK    1  A    between atoms: C_4  and  C_1 
REMARK    2  A    between atoms: C_13  and  N_3 
REMARK    3  A    between atoms: C_11  and  N_5 
REMARK    4  A    between atoms: C_14  and  C_11 
ROOT
ATOM      1  C   UNL d   1     -41.447-123.175 -51.792  0.00  0.00     0.057 A 
ATOM      2  N   UNL d   1     -41.240-122.602 -52.989  0.00  0.00    -0.272 N 
ATOM      3  C   UNL d   1     -41.261-123.425 -53.096  0.00  0.00     0.265 A 
ATOM      4  C   UNL d   1     -41.354-122.454 -52.190  0.00  0.00     0.086 A 
ATOM      5  C   UNL d   1     -41.389-123.775 -52.363  0.00  0.00     0.066 A 
ATOM      6  O   UNL d   1     -41.170-123.815 -53.820  0.00  0.00    -0.267 OA
ENDROOT
BRANCH   1   7
ATOM      7  C   UNL d   1     -41.572-123.227 -50.987  0.00  0.00     0.149 A 
ATOM      8  N   UNL d   1     -41.123-123.567 -50.426  0.00  0.00    -0.227 NA
ATOM      9  C   UNL d   1     -41.493-123.469 -49.692  0.00  0.00     0.099 A 
ATOM     10  C   UNL d   1     -41.279-123.705 -48.940  0.00  0.00     0.021 A 
ATOM     11  C   UNL d   1     -42.184-123.058 -49.822  0.00  0.00     0.083 A 
ATOM     12  C   UNL d   1     -41.781-123.517 -48.307  0.00  0.00     0.002 A 
ATOM     13  C   UNL d   1     -42.472-123.106 -48.436  0.00  0.00     0.002 A 
ATOM     14  C   UNL d   1     -42.683-122.869 -49.204  0.00  0.00     0.019 A 
ATOM     15  N   UNL d   1     -42.233-122.906 -50.634  0.00  0.00    -0.289 N 
BRANCH  15  16
ATOM     16  C   UNL d   1     -42.848-122.498 -51.026  0.00  0.00     0.082 C 
ATOM     17  C   UNL d   1     -43.461-122.134 -50.580  0.00  0.00     0.021 C 
ENDBRANCH  15  16
ENDBRANCH   1   7
BRANCH   2  18
ATOM     18  C   UNL d   1     -41.123-122.028 -53.587  0.00  0.00     0.083 C 
BRANCH  18  19
ATOM     19  C   UNL d   1     -41.687-121.952 -54.193  0.00  0.00     0.018 A 
ATOM     20  C   UNL d   1     -41.493-122.207 -54.958  0.00  0.00     0.002 A 
ATOM     21  C   UNL d   1     -42.054-122.130 -55.557  0.00  0.00     0.000 A 
ATOM     22  C   UNL d   1     -42.793-121.808 -55.406  0.00  0.00     0.000 A 
ATOM     23  C   UNL d   1     -42.981-121.556 -54.644  0.00  0.00     0.000 A 
ATOM     24  C   UNL d   1     -42.423-121.629 -54.034  0.00  0.00     0.002 A 
ENDBRANCH  18  19
ENDBRANCH   2  18
TORSDOF 4
ENDMDL
