MODEL 1
REMARK VINA RESULT:      -1.9      0.000      0.000
REMARK  6 active torsions:
REMARK  status: ('A' for Active; 'I' for Inactive)
REMARK    1  A    between atoms: C_7  and  C_1 
REMARK    2  A    between atoms: C_6  and  O_13 
REMARK    3  A    between atoms: C_12  and  C_6 
REMARK    4  A    between atoms: O_13  and  C_10 
REMARK    5  A    between atoms: C_28  and  C_14 
REMARK    6  A    between atoms: C_31  and  C_28 
ROOT
ATOM      1  C   UNL d   1      33.221  21.452 -20.146  0.00  0.00     0.064 A 
ATOM      2  C   UNL d   1      33.229  21.134 -21.535  0.00  0.00     0.062 A 
ATOM      3  C   UNL d   1      33.225  21.696 -20.932  0.00  0.00     0.199 A 
ATOM      4  C   UNL d   1      33.221  20.649 -19.961  0.00  0.00     0.126 A 
ATOM      5  C   UNL d   1      33.229  20.330 -21.350  0.00  0.00     0.105 A 
ATOM      6  O   UNL d   1      33.225  20.088 -20.563  0.00  0.00    -0.305 OA
ATOM      7  C   UNL d   1      33.233  21.377 -22.321  0.00  0.00     0.007 A 
ATOM      8  C   UNL d   1      33.237  20.011 -22.743  0.00  0.00     0.105 A 
ATOM      9  C   UNL d   1      33.233  19.769 -21.952  0.00  0.00     0.050 A 
ATOM     10  C   UNL d   1      33.237  20.814 -22.927  0.00  0.00     0.023 A 
ATOM     11  O   UNL d   1      33.225  22.500 -21.117  0.00  0.00    -0.286 OA
ENDROOT
BRANCH   1  12
ATOM     12  C   UNL d   1      33.218  22.015 -19.543  0.00  0.00     0.007 A 
ATOM     13  C   UNL d   1      33.222  21.774 -18.744  0.00  0.00     0.027 A 
ATOM     14  C   UNL d   1      33.218  22.328 -18.145  0.00  0.00     0.123 A 
ATOM     15  O   UNL d   1      33.223  22.084 -17.359  0.00  0.00    -0.301 OA
ATOM     16  C   UNL d   1      33.210  23.144 -18.328  0.00  0.00     0.123 A 
ATOM     17  C   UNL d   1      33.219  22.647 -16.752  0.00  0.00     0.149 A 
ATOM     18  C   UNL d   1      33.210  23.453 -16.929  0.00  0.00     0.149 A 
ATOM     19  O   UNL d   1      33.206  23.702 -17.725  0.00  0.00    -0.301 OA
ATOM     20  C   UNL d   1      33.205  23.384 -19.127  0.00  0.00     0.027 A 
ATOM     21  C   UNL d   1      33.209  22.823 -19.729  0.00  0.00     0.002 A 
ENDBRANCH   1  12
BRANCH  10  22
ATOM     22  C   UNL d   1      33.241  21.055 -23.722  0.00  0.00     0.002 C 
BRANCH  22  23
ATOM     23  C   UNL d   1      33.224  21.856 -23.911  0.00  0.00     0.000 C 
ATOM     24  C   UNL d   1      33.199  22.096 -24.694  0.00  0.00     0.000 C 
ENDBRANCH  22  23
ENDBRANCH  10  22
BRANCH   8  25
ATOM     25  O   UNL d   1      33.241  19.447 -23.353  0.00  0.00    -0.271 OA
BRANCH  25  26
ATOM     26  C   UNL d   1      32.923  18.696 -23.225  0.00  0.00     0.323 C 
ATOM     27  O   UNL d   1      33.047  18.306 -22.514  0.00  0.00    -0.257 OA
BRANCH  26  28
ATOM     28  C   UNL d   1      32.474  18.332 -23.819  0.00  0.00     0.163 A 
ATOM     29  O   UNL d   1      31.689  18.096 -23.760  0.00  0.00    -0.300 OA
ATOM     30  C   UNL d   1      31.459  17.759 -24.477  0.00  0.00     0.123 A 
ATOM     31  C   UNL d   1      32.115  17.789 -24.986  0.00  0.00     0.029 A 
ATOM     32  C   UNL d   1      32.742  18.145 -24.573  0.00  0.00     0.032 A 
ENDBRANCH  26  28
ENDBRANCH  25  26
ENDBRANCH   8  25
TORSDOF 6
ENDMDL
MODEL 2
REMARK VINA RESULT:       1.0      1.249      1.758
REMARK  6 active torsions:
REMARK  status: ('A' for Active; 'I' for Inactive)
REMARK    1  A    between atoms: C_7  and  C_1 
REMARK    2  A    between atoms: C_6  and  O_13 
REMARK    3  A    between atoms: C_12  and  C_6 
REMARK    4  A    between atoms: O_13  and  C_10 
REMARK    5  A    between atoms: C_28  and  C_14 
REMARK    6  A    between atoms: C_31  and  C_28 
ROOT
ATOM      1  C   UNL d   1      33.100  20.688 -21.201  0.00  0.00     0.064 A 
ATOM      2  C   UNL d   1      33.094  19.892 -22.383  0.00  0.00     0.062 A 
ATOM      3  C   UNL d   1      33.050  20.631 -22.021  0.00  0.00     0.199 A 
ATOM      4  C   UNL d   1      33.194  20.009 -20.744  0.00  0.00     0.126 A 
ATOM      5  C   UNL d   1      33.189  19.213 -21.926  0.00  0.00     0.105 A 
ATOM      6  O   UNL d   1      33.238  19.271 -21.105  0.00  0.00    -0.305 OA
ATOM      7  C   UNL d   1      33.045  19.834 -23.203  0.00  0.00     0.007 A 
ATOM      8  C   UNL d   1      33.183  18.414 -23.111  0.00  0.00     0.105 A 
ATOM      9  C   UNL d   1      33.233  18.474 -22.287  0.00  0.00     0.050 A 
ATOM     10  C   UNL d   1      33.089  19.093 -23.568  0.00  0.00     0.023 A 
ATOM     11  O   UNL d   1      32.956  21.310 -22.479  0.00  0.00    -0.286 OA
ENDROOT
BRANCH   1  12
ATOM     12  C   UNL d   1      33.055  21.427 -20.839  0.00  0.00     0.007 A 
ATOM     13  C   UNL d   1      32.825  21.490 -20.040  0.00  0.00     0.027 A 
ATOM     14  C   UNL d   1      32.779  22.219 -19.677  0.00  0.00     0.123 A 
ATOM     15  O   UNL d   1      32.552  22.275 -18.888  0.00  0.00    -0.301 OA
ATOM     16  C   UNL d   1      32.964  22.913 -20.107  0.00  0.00     0.123 A 
ATOM     17  C   UNL d   1      32.506  23.016 -18.523  0.00  0.00     0.149 A 
ATOM     18  C   UNL d   1      32.688  23.702 -18.944  0.00  0.00     0.149 A 
ATOM     19  O   UNL d   1      32.919  23.648 -19.743  0.00  0.00    -0.301 OA
ATOM     20  C   UNL d   1      33.195  22.850 -20.907  0.00  0.00     0.027 A 
ATOM     21  C   UNL d   1      33.239  22.112 -21.268  0.00  0.00     0.002 A 
ENDBRANCH   1  12
BRANCH  10  22
ATOM     22  C   UNL d   1      33.039  19.031 -24.395  0.00  0.00     0.002 C 
BRANCH  22  23
ATOM     23  C   UNL d   1      32.711  19.643 -24.836  0.00  0.00     0.000 C 
ATOM     24  C   UNL d   1      33.174  20.276 -25.075  0.00  0.00     0.000 C 
ENDBRANCH  22  23
ENDBRANCH  10  22
BRANCH   8  25
ATOM     25  O   UNL d   1      33.228  17.671 -23.480  0.00  0.00    -0.271 OA
BRANCH  25  26
ATOM     26  C   UNL d   1      32.926  17.003 -23.102  0.00  0.00     0.323 C 
ATOM     27  O   UNL d   1      33.099  16.854 -22.314  0.00  0.00    -0.257 OA
BRANCH  26  28
ATOM     28  C   UNL d   1      32.442  16.477 -23.520  0.00  0.00     0.163 A 
ATOM     29  O   UNL d   1      31.666  16.278 -23.337  0.00  0.00    -0.300 OA
ATOM     30  C   UNL d   1      31.391  15.737 -23.896  0.00  0.00     0.123 A 
ATOM     31  C   UNL d   1      32.010  15.601 -24.433  0.00  0.00     0.029 A 
ATOM     32  C   UNL d   1      32.659  16.062 -24.195  0.00  0.00     0.032 A 
ENDBRANCH  26  28
ENDBRANCH  25  26
ENDBRANCH   8  25
TORSDOF 6
ENDMDL
