MODEL 1
REMARK VINA RESULT:      -6.6      0.000      0.000
REMARK  4 active torsions:
REMARK  status: ('A' for Active; 'I' for Inactive)
REMARK    1  A    between atoms: C_7  and  C_1 
REMARK    2  A    between atoms: C_12  and  C_6 
REMARK       I    between atoms: N_11  and  C_7 
REMARK    3  A    between atoms: C_20  and  N_11 
REMARK       I    between atoms: C_13  and  N_14 
REMARK    4  A    between atoms: N_14  and  C_21 
ROOT
ATOM      1  C   UNL d   1      51.567  34.218  52.630  0.00  0.00     0.108 A 
ATOM      2  C   UNL d   1      52.439  33.805  53.383  0.00  0.00     0.044 A 
ATOM      3  C   UNL d   1      51.943  33.637  52.849  0.00  0.00     0.116 A 
ATOM      4  C   UNL d   1      52.381  34.553  53.522  0.00  0.00     0.112 A 
ATOM      5  S   UNL d   1      51.836  34.819  53.053  0.00  0.00    -0.061 SA
ATOM      6  C   UNL d   1      52.954  33.376  53.778  0.00  0.00     0.005 A 
ATOM      7  N   UNL d   1      52.835  34.898  54.060  0.00  0.00    -0.239 NA
ATOM      8  C   UNL d   1      53.408  33.708  54.313  0.00  0.00     0.018 A 
ATOM      9  C   UNL d   1      53.350  34.456  54.452  0.00  0.00     0.082 A 
ATOM     10  N   UNL d   1      51.774  32.807  52.464  0.00  0.00    -0.147 N 
ATOM     11  C   UNL d   1      54.002  33.377  54.812  0.00  0.00     0.002 A 
ATOM     12  C   UNL d   1      53.861  34.695  55.019  0.00  0.00     0.019 A 
ATOM     13  C   UNL d   1      54.290  33.984  55.256  0.00  0.00     0.002 A 
ENDROOT
BRANCH   1  14
ATOM     14  C   UNL d   1      50.843  34.291  51.935  0.00  0.00     0.287 C 
ATOM     15  N   UNL d   1      49.910  34.566  51.752  0.00  0.00    -0.208 NA
ATOM     16  O   UNL d   1      51.185  33.971  51.141  0.00  0.00    -0.265 OA
BRANCH  15  17
ATOM     17  C   UNL d   1      49.437  34.886  52.367  0.00  0.00     0.085 A 
ATOM     18  C   UNL d   1      49.170  35.668  52.293  0.00  0.00     0.021 A 
ATOM     19  C   UNL d   1      48.695  36.005  52.899  0.00  0.00     0.021 A 
ATOM     20  C   UNL d   1      48.490  35.561  53.572  0.00  0.00     0.085 A 
ATOM     21  C   UNL d   1      48.759  34.784  53.638  0.00  0.00     0.021 A 
ATOM     22  C   UNL d   1      49.231  34.447  53.038  0.00  0.00     0.021 A 
BRANCH  20  23
ATOM     23  N   UNL d   1      47.919  35.987  54.286  0.00  0.00    -0.208 NA
ATOM     24  C   UNL d   1      46.761  36.092  53.979  0.00  0.00     0.279 C 
ATOM     25  O   UNL d   1      46.106  36.567  54.765  0.00  0.00    -0.265 OA
ATOM     26  C   UNL d   1      46.078  35.740  52.846  0.00  0.00     0.068 C 
ENDBRANCH  20  23
ENDBRANCH  15  17
ENDBRANCH   1  14
BRANCH   6  27
ATOM     27  C   UNL d   1      53.016  32.576  53.629  0.00  0.00     0.000 A 
ATOM     28  C   UNL d   1      53.596  32.306  53.117  0.00  0.00     0.000 A 
ATOM     29  C   UNL d   1      53.658  31.506  52.969  0.00  0.00     0.000 A 
ATOM     30  C   UNL d   1      53.157  30.958  53.316  0.00  0.00     0.000 A 
ATOM     31  C   UNL d   1      52.582  31.222  53.822  0.00  0.00     0.000 A 
ATOM     32  C   UNL d   1      53.218  29.771  53.121  0.00  0.00     0.000 C 
ATOM     33  C   UNL d   1      52.498  32.031  53.990  0.00  0.00     0.000 A 
ENDBRANCH   6  27
TORSDOF 4
ENDMDL
MODEL 2
REMARK VINA RESULT:      -5.6      1.488      6.088
REMARK  4 active torsions:
REMARK  status: ('A' for Active; 'I' for Inactive)
REMARK    1  A    between atoms: C_7  and  C_1 
REMARK    2  A    between atoms: C_12  and  C_6 
REMARK       I    between atoms: N_11  and  C_7 
REMARK    3  A    between atoms: C_20  and  N_11 
REMARK       I    between atoms: C_13  and  N_14 
REMARK    4  A    between atoms: N_14  and  C_21 
ROOT
ATOM      1  C   UNL d   1      48.954  34.993  52.369  0.00  0.00     0.108 A 
ATOM      2  C   UNL d   1      47.995  35.516  52.920  0.00  0.00     0.044 A 
ATOM      3  C   UNL d   1      48.258  35.186  52.302  0.00  0.00     0.116 A 
ATOM      4  C   UNL d   1      48.565  35.539  53.427  0.00  0.00     0.112 A 
ATOM      5  S   UNL d   1      49.170  35.213  53.088  0.00  0.00    -0.061 SA
ATOM      6  C   UNL d   1      47.299  35.808  53.106  0.00  0.00     0.005 A 
ATOM      7  N   UNL d   1      48.458  35.856  54.136  0.00  0.00    -0.239 NA
ATOM      8  C   UNL d   1      47.183  36.125  53.806  0.00  0.00     0.018 A 
ATOM      9  C   UNL d   1      47.753  36.148  54.312  0.00  0.00     0.082 A 
ATOM     10  N   UNL d   1      47.805  35.011  51.509  0.00  0.00    -0.147 N 
ATOM     11  C   UNL d   1      46.494  36.476  54.143  0.00  0.00     0.002 A 
ATOM     12  C   UNL d   1      47.528  36.493  54.999  0.00  0.00     0.019 A 
ATOM     13  C   UNL d   1      46.699  36.709  54.887  0.00  0.00     0.002 A 
ENDROOT
BRANCH   1  14
ATOM     14  C   UNL d   1      49.561  34.538  51.707  0.00  0.00     0.287 C 
ATOM     15  N   UNL d   1      50.443  34.111  51.567  0.00  0.00    -0.208 NA
ATOM     16  O   UNL d   1      49.118  34.502  50.900  0.00  0.00    -0.265 OA
BRANCH  15  17
ATOM     17  C   UNL d   1      50.989  34.052  52.201  0.00  0.00     0.085 A 
ATOM     18  C   UNL d   1      50.940  33.395  52.704  0.00  0.00     0.021 A 
ATOM     19  C   UNL d   1      51.478  33.319  53.345  0.00  0.00     0.021 A 
ATOM     20  C   UNL d   1      52.061  33.898  53.479  0.00  0.00     0.085 A 
ATOM     21  C   UNL d   1      52.102  34.550  52.973  0.00  0.00     0.021 A 
ATOM     22  C   UNL d   1      51.569  34.627  52.337  0.00  0.00     0.021 A 
BRANCH  20  23
ATOM     23  N   UNL d   1      52.696  33.786  54.254  0.00  0.00    -0.208 NA
ATOM     24  C   UNL d   1      53.296  32.745  54.238  0.00  0.00     0.279 C 
ATOM     25  O   UNL d   1      54.013  32.600  55.099  0.00  0.00    -0.265 OA
ATOM     26  C   UNL d   1      53.278  31.689  53.367  0.00  0.00     0.068 C 
ENDBRANCH  20  23
ENDBRANCH  15  17
ENDBRANCH   1  14
BRANCH   6  27
ATOM     27  C   UNL d   1      46.689  35.783  52.564  0.00  0.00     0.000 A 
ATOM     28  C   UNL d   1      46.680  36.320  51.944  0.00  0.00     0.000 A 
ATOM     29  C   UNL d   1      46.070  36.295  51.402  0.00  0.00     0.000 A 
ATOM     30  C   UNL d   1      45.462  35.748  51.455  0.00  0.00     0.000 A 
ATOM     31  C   UNL d   1      45.469  35.216  52.067  0.00  0.00     0.000 A 
ATOM     32  C   UNL d   1      44.546  35.679  50.676  0.00  0.00     0.000 C 
ATOM     33  C   UNL d   1      46.078  35.221  52.632  0.00  0.00     0.000 A 
ENDBRANCH   6  27
TORSDOF 4
ENDMDL
MODEL 3
REMARK VINA RESULT:      -5.4      1.117      2.398
REMARK  4 active torsions:
REMARK  status: ('A' for Active; 'I' for Inactive)
REMARK    1  A    between atoms: C_7  and  C_1 
REMARK    2  A    between atoms: C_12  and  C_6 
REMARK       I    between atoms: N_11  and  C_7 
REMARK    3  A    between atoms: C_20  and  N_11 
REMARK       I    between atoms: C_13  and  N_14 
REMARK    4  A    between atoms: N_14  and  C_21 
ROOT
ATOM      1  C   UNL d   1      52.209  33.296  52.412  0.00  0.00     0.108 A 
ATOM      2  C   UNL d   1      52.774  32.485  53.133  0.00  0.00     0.044 A 
ATOM      3  C   UNL d   1      52.718  33.200  52.920  0.00  0.00     0.116 A 
ATOM      4  C   UNL d   1      52.261  32.086  52.733  0.00  0.00     0.112 A 
ATOM      5  S   UNL d   1      51.902  32.588  52.278  0.00  0.00    -0.061 SA
ATOM      6  C   UNL d   1      53.229  32.123  53.649  0.00  0.00     0.005 A 
ATOM      7  N   UNL d   1      52.186  31.312  52.835  0.00  0.00    -0.239 NA
ATOM      8  C   UNL d   1      53.163  31.357  53.758  0.00  0.00     0.018 A 
ATOM      9  C   UNL d   1      52.650  30.958  53.358  0.00  0.00     0.082 A 
ATOM     10  N   UNL d   1      53.209  33.929  53.225  0.00  0.00    -0.147 N 
ATOM     11  C   UNL d   1      53.581  30.836  54.273  0.00  0.00     0.002 A 
ATOM     12  C   UNL d   1      52.664  30.180  53.545  0.00  0.00     0.019 A 
ATOM     13  C   UNL d   1      53.277  30.101  54.148  0.00  0.00     0.002 A 
ENDROOT
BRANCH   1  14
ATOM     14  C   UNL d   1      51.918  34.139  51.945  0.00  0.00     0.287 C 
ATOM     15  N   UNL d   1      51.221  34.839  51.881  0.00  0.00    -0.208 NA
ATOM     16  O   UNL d   1      52.562  34.349  51.321  0.00  0.00    -0.265 OA
BRANCH  15  17
ATOM     17  C   UNL d   1      50.548  34.810  52.381  0.00  0.00     0.085 A 
ATOM     18  C   UNL d   1      50.602  35.151  53.134  0.00  0.00     0.021 A 
ATOM     19  C   UNL d   1      49.938  35.133  53.650  0.00  0.00     0.021 A 
ATOM     20  C   UNL d   1      49.226  34.775  53.409  0.00  0.00     0.085 A 
ATOM     21  C   UNL d   1      49.180  34.437  52.657  0.00  0.00     0.021 A 
ATOM     22  C   UNL d   1      49.838  34.455  52.145  0.00  0.00     0.021 A 
BRANCH  20  23
ATOM     23  N   UNL d   1      48.443  34.764  54.044  0.00  0.00    -0.208 NA
ATOM     24  C   UNL d   1      47.662  35.660  53.862  0.00  0.00     0.279 C 
ATOM     25  O   UNL d   1      46.778  35.665  54.564  0.00  0.00    -0.265 OA
ATOM     26  C   UNL d   1      47.640  36.687  52.957  0.00  0.00     0.068 C 
ENDBRANCH  20  23
ENDBRANCH  15  17
ENDBRANCH   1  14
BRANCH   6  27
ATOM     27  C   UNL d   1      53.778  32.550  54.077  0.00  0.00     0.000 A 
ATOM     28  C   UNL d   1      54.530  32.659  53.772  0.00  0.00     0.000 A 
ATOM     29  C   UNL d   1      55.078  33.085  54.200  0.00  0.00     0.000 A 
ATOM     30  C   UNL d   1      54.903  33.411  54.931  0.00  0.00     0.000 A 
ATOM     31  C   UNL d   1      54.159  33.305  55.236  0.00  0.00     0.000 A 
ATOM     32  C   UNL d   1      55.684  34.046  55.592  0.00  0.00     0.000 C 
ATOM     33  C   UNL d   1      53.583  32.875  54.820  0.00  0.00     0.000 A 
ENDBRANCH   6  27
TORSDOF 4
ENDMDL
MODEL 4
REMARK VINA RESULT:      -4.5      2.468      5.363
REMARK  4 active torsions:
REMARK  status: ('A' for Active; 'I' for Inactive)
REMARK    1  A    between atoms: C_7  and  C_1 
REMARK    2  A    between atoms: C_12  and  C_6 
REMARK       I    between atoms: N_11  and  C_7 
REMARK    3  A    between atoms: C_20  and  N_11 
REMARK       I    between atoms: C_13  and  N_14 
REMARK    4  A    between atoms: N_14  and  C_21 
ROOT
ATOM      1  C   UNL d   1      53.093  31.777  53.066  0.00  0.00     0.108 A 
ATOM      2  C   UNL d   1      52.891  32.920  53.454  0.00  0.00     0.044 A 
ATOM      3  C   UNL d   1      52.642  32.345  53.046  0.00  0.00     0.116 A 
ATOM      4  C   UNL d   1      53.556  32.709  53.764  0.00  0.00     0.112 A 
ATOM      5  S   UNL d   1      53.689  31.993  53.525  0.00  0.00    -0.061 SA
ATOM      6  C   UNL d   1      52.605  33.628  53.597  0.00  0.00     0.005 A 
ATOM      7  N   UNL d   1      53.956  33.199  54.227  0.00  0.00    -0.239 NA
ATOM      8  C   UNL d   1      52.994  34.121  54.054  0.00  0.00     0.018 A 
ATOM      9  C   UNL d   1      53.658  33.910  54.364  0.00  0.00     0.082 A 
ATOM     10  N   UNL d   1      51.858  32.294  52.547  0.00  0.00    -0.147 N 
ATOM     11  C   UNL d   1      52.811  34.909  54.295  0.00  0.00     0.002 A 
ATOM     12  C   UNL d   1      53.975  34.490  54.816  0.00  0.00     0.019 A 
ATOM     13  C   UNL d   1      53.417  35.147  54.770  0.00  0.00     0.002 A 
ENDROOT
BRANCH   1  14
ATOM     14  C   UNL d   1      53.016  30.879  52.618  0.00  0.00     0.287 C 
ATOM     15  N   UNL d   1      52.990  29.899  52.751  0.00  0.00    -0.208 NA
ATOM     16  O   UNL d   1      52.939  31.025  51.711  0.00  0.00    -0.265 OA
BRANCH  15  17
ATOM     17  C   UNL d   1      53.048  29.577  53.524  0.00  0.00     0.085 A 
ATOM     18  C   UNL d   1      53.785  29.297  53.780  0.00  0.00     0.021 A 
ATOM     19  C   UNL d   1      53.862  28.970  54.551  0.00  0.00     0.021 A 
ATOM     20  C   UNL d   1      53.205  28.926  55.059  0.00  0.00     0.085 A 
ATOM     21  C   UNL d   1      52.474  29.207  54.796  0.00  0.00     0.021 A 
ATOM     22  C   UNL d   1      52.396  29.531  54.032  0.00  0.00     0.021 A 
BRANCH  20  23
ATOM     23  N   UNL d   1      53.322  28.531  55.980  0.00  0.00    -0.208 NA
ATOM     24  C   UNL d   1      53.554  29.348  56.829  0.00  0.00     0.279 C 
ATOM     25  O   UNL d   1      53.689  28.924  57.867  0.00  0.00    -0.265 OA
ATOM     26  C   UNL d   1      53.689  30.709  56.780  0.00  0.00     0.068 C 
ENDBRANCH  20  23
ENDBRANCH  15  17
ENDBRANCH   1  14
BRANCH   6  27
ATOM     27  C   UNL d   1      51.894  33.854  53.266  0.00  0.00     0.000 A 
ATOM     28  C   UNL d   1      51.891  34.234  52.540  0.00  0.00     0.000 A 
ATOM     29  C   UNL d   1      51.181  34.459  52.208  0.00  0.00     0.000 A 
ATOM     30  C   UNL d   1      50.463  34.320  52.579  0.00  0.00     0.000 A 
ATOM     31  C   UNL d   1      50.462  33.944  53.297  0.00  0.00     0.000 A 
ATOM     32  C   UNL d   1      49.394  34.637  52.122  0.00  0.00     0.000 C 
ATOM     33  C   UNL d   1      51.172  33.705  53.656  0.00  0.00     0.000 A 
ENDBRANCH   6  27
TORSDOF 4
ENDMDL
