MODEL 1
REMARK VINA RESULT:      -3.4      0.000      0.000
REMARK  4 active torsions:
REMARK  status: ('A' for Active; 'I' for Inactive)
REMARK    1  A    between atoms: C_9  and  C_3 
REMARK    2  A    between atoms: C_6  and  C_10 
REMARK    3  A    between atoms: S_8  and  C_9 
REMARK    4  A    between atoms: C_10  and  S_8 
ROOT
ATOM      1  C   UNL d   1      33.241  19.291 -22.107  0.00  0.00     0.074 C 
ENDROOT
BRANCH   1   2
ATOM      2  S   UNL d   1      32.833  18.923 -22.723  0.00  0.00    -0.083 SA
BRANCH   2   3
ATOM      3  C   UNL d   1      32.993  18.128 -22.877  0.00  0.00     0.035 C 
BRANCH   3   4
ATOM      4  C   UNL d   1      32.555  17.748 -23.462  0.00  0.00     0.006 A 
ATOM      5  C   UNL d   1      32.688  16.941 -23.583  0.00  0.00     0.001 A 
ATOM      6  C   UNL d   1      33.239  16.517 -23.139  0.00  0.00     0.000 C 
ATOM      7  C   UNL d   1      32.255  16.532 -24.172  0.00  0.00     0.000 A 
ATOM      8  C   UNL d   1      31.706  16.935 -24.620  0.00  0.00     0.000 A 
ATOM      9  C   UNL d   1      31.594  17.735 -24.479  0.00  0.00     0.000 A 
ATOM     10  C   UNL d   1      32.030  18.142 -23.888  0.00  0.00     0.001 A 
ENDBRANCH   3   4
ENDBRANCH   2   3
ENDBRANCH   1   2
BRANCH   1  11
ATOM     11  C   UNL d   1      33.077  20.077 -21.916  0.00  0.00     0.169 A 
ATOM     12  N   UNL d   1      33.218  20.718 -22.424  0.00  0.00    -0.225 NA
ATOM     13  C   UNL d   1      32.975  21.406 -22.016  0.00  0.00     0.101 A 
ATOM     14  C   UNL d   1      32.686  21.161 -21.255  0.00  0.00     0.101 A 
ATOM     15  C   UNL d   1      32.965  22.198 -22.198  0.00  0.00     0.021 A 
ATOM     16  N   UNL d   1      32.761  20.330 -21.218  0.00  0.00    -0.225 NA
ATOM     17  C   UNL d   1      32.413  21.730 -20.743  0.00  0.00     0.021 A 
ATOM     18  C   UNL d   1      32.409  22.494 -20.932  0.00  0.00     0.002 A 
ATOM     19  C   UNL d   1      32.698  22.738 -21.693  0.00  0.00     0.002 A 
ENDBRANCH   1  11
TORSDOF 4
ENDMDL
MODEL 2
REMARK VINA RESULT:      -3.1      1.222      4.765
REMARK  4 active torsions:
REMARK  status: ('A' for Active; 'I' for Inactive)
REMARK    1  A    between atoms: C_9  and  C_3 
REMARK    2  A    between atoms: C_6  and  C_10 
REMARK    3  A    between atoms: S_8  and  C_9 
REMARK    4  A    between atoms: C_10  and  S_8 
ROOT
ATOM      1  C   UNL d   1      33.222  18.984 -23.190  0.00  0.00     0.074 C 
ENDROOT
BRANCH   1   2
ATOM      2  S   UNL d   1      32.954  19.516 -22.620  0.00  0.00    -0.083 SA
BRANCH   2   3
ATOM      3  C   UNL d   1      33.236  20.291 -22.646  0.00  0.00     0.035 C 
BRANCH   3   4
ATOM      4  C   UNL d   1      33.070  20.789 -22.010  0.00  0.00     0.006 A 
ATOM      5  C   UNL d   1      33.076  21.605 -22.144  0.00  0.00     0.001 A 
ATOM      6  C   UNL d   1      33.241  21.924 -22.886  0.00  0.00     0.000 C 
ATOM      7  C   UNL d   1      32.910  22.131 -21.514  0.00  0.00     0.000 A 
ATOM      8  C   UNL d   1      32.745  21.833 -20.774  0.00  0.00     0.000 A 
ATOM      9  C   UNL d   1      32.746  21.019 -20.668  0.00  0.00     0.000 A 
ATOM     10  C   UNL d   1      32.912  20.494 -21.302  0.00  0.00     0.001 A 
ENDBRANCH   3   4
ENDBRANCH   2   3
ENDBRANCH   1   2
BRANCH   1  11
ATOM     11  C   UNL d   1      32.747  18.347 -23.415  0.00  0.00     0.169 A 
ATOM     12  N   UNL d   1      32.846  17.573 -23.135  0.00  0.00    -0.225 NA
ATOM     13  C   UNL d   1      32.254  17.108 -23.500  0.00  0.00     0.101 A 
ATOM     14  C   UNL d   1      31.801  17.623 -24.003  0.00  0.00     0.101 A 
ATOM     15  C   UNL d   1      32.050  16.322 -23.464  0.00  0.00     0.021 A 
ATOM     16  N   UNL d   1      32.129  18.388 -23.932  0.00  0.00    -0.225 NA
ATOM     17  C   UNL d   1      31.185  17.306 -24.426  0.00  0.00     0.021 A 
ATOM     18  C   UNL d   1      30.997  16.543 -24.383  0.00  0.00     0.002 A 
ATOM     19  C   UNL d   1      31.450  16.029 -23.880  0.00  0.00     0.002 A 
ENDBRANCH   1  11
TORSDOF 4
ENDMDL
MODEL 3
REMARK VINA RESULT:      -3.1      1.147      4.781
REMARK  4 active torsions:
REMARK  status: ('A' for Active; 'I' for Inactive)
REMARK    1  A    between atoms: C_9  and  C_3 
REMARK    2  A    between atoms: C_6  and  C_10 
REMARK    3  A    between atoms: S_8  and  C_9 
REMARK    4  A    between atoms: C_10  and  S_8 
ROOT
ATOM      1  C   UNL d   1      33.174  20.089 -21.681  0.00  0.00     0.074 C 
ENDROOT
BRANCH   1   2
ATOM      2  S   UNL d   1      32.955  20.885 -21.672  0.00  0.00    -0.083 SA
BRANCH   2   3
ATOM      3  C   UNL d   1      32.955  21.281 -20.948  0.00  0.00     0.035 C 
BRANCH   3   4
ATOM      4  C   UNL d   1      32.708  22.068 -20.933  0.00  0.00     0.006 A 
ATOM      5  C   UNL d   1      32.857  22.509 -20.251  0.00  0.00     0.001 A 
ATOM      6  C   UNL d   1      33.241  22.184 -19.596  0.00  0.00     0.000 C 
ATOM      7  C   UNL d   1      32.616  23.310 -20.211  0.00  0.00     0.000 A 
ATOM      8  C   UNL d   1      32.236  23.647 -20.849  0.00  0.00     0.000 A 
ATOM      9  C   UNL d   1      32.100  23.186 -21.514  0.00  0.00     0.000 A 
ATOM     10  C   UNL d   1      32.343  22.384 -21.550  0.00  0.00     0.001 A 
ENDBRANCH   3   4
ENDBRANCH   2   3
ENDBRANCH   1   2
BRANCH   1  11
ATOM     11  C   UNL d   1      33.104  19.651 -22.376  0.00  0.00     0.169 A 
ATOM     12  N   UNL d   1      33.241  19.958 -23.135  0.00  0.00    -0.225 NA
ATOM     13  C   UNL d   1      33.110  19.332 -23.674  0.00  0.00     0.101 A 
ATOM     14  C   UNL d   1      32.893  18.647 -23.221  0.00  0.00     0.101 A 
ATOM     15  C   UNL d   1      33.149  19.266 -24.483  0.00  0.00     0.021 A 
ATOM     16  N   UNL d   1      32.897  18.872 -22.416  0.00  0.00    -0.225 NA
ATOM     17  C   UNL d   1      32.734  17.956 -23.616  0.00  0.00     0.021 A 
ATOM     18  C   UNL d   1      32.775  17.904 -24.400  0.00  0.00     0.002 A 
ATOM     19  C   UNL d   1      32.993  18.589 -24.854  0.00  0.00     0.002 A 
ENDBRANCH   1  11
TORSDOF 4
ENDMDL
MODEL 4
REMARK VINA RESULT:      -2.4      1.833      4.912
REMARK  4 active torsions:
REMARK  status: ('A' for Active; 'I' for Inactive)
REMARK    1  A    between atoms: C_9  and  C_3 
REMARK    2  A    between atoms: C_6  and  C_10 
REMARK    3  A    between atoms: S_8  and  C_9 
REMARK    4  A    between atoms: C_10  and  S_8 
ROOT
ATOM      1  C   UNL d   1      32.684  17.785 -23.693  0.00  0.00     0.074 C 
ENDROOT
BRANCH   1   2
ATOM      2  S   UNL d   1      32.582  18.504 -23.301  0.00  0.00    -0.083 SA
BRANCH   2   3
ATOM      3  C   UNL d   1      33.210  19.039 -23.297  0.00  0.00     0.035 C 
BRANCH   3   4
ATOM      4  C   UNL d   1      33.218  19.629 -22.721  0.00  0.00     0.006 A 
ATOM      5  C   UNL d   1      33.231  20.416 -22.972  0.00  0.00     0.001 A 
ATOM      6  C   UNL d   1      33.237  20.620 -23.772  0.00  0.00     0.000 C 
ATOM      7  C   UNL d   1      33.239  21.034 -22.406  0.00  0.00     0.000 A 
ATOM      8  C   UNL d   1      33.233  20.850 -21.612  0.00  0.00     0.000 A 
ATOM      9  C   UNL d   1      33.220  20.061 -21.390  0.00  0.00     0.000 A 
ATOM     10  C   UNL d   1      33.212  19.444 -21.960  0.00  0.00     0.001 A 
ENDBRANCH   3   4
ENDBRANCH   2   3
ENDBRANCH   1   2
BRANCH   1  11
ATOM     11  C   UNL d   1      32.031  17.305 -23.849  0.00  0.00     0.169 A 
ATOM     12  N   UNL d   1      31.840  16.624 -23.415  0.00  0.00    -0.225 NA
ATOM     13  C   UNL d   1      31.144  16.310 -23.757  0.00  0.00     0.101 A 
ATOM     14  C   UNL d   1      30.926  16.817 -24.403  0.00  0.00     0.101 A 
ATOM     15  C   UNL d   1      30.679  15.663 -23.598  0.00  0.00     0.021 A 
ATOM     16  N   UNL d   1      31.494  17.429 -24.439  0.00  0.00    -0.225 NA
ATOM     17  C   UNL d   1      30.262  16.633 -24.833  0.00  0.00     0.021 A 
ATOM     18  C   UNL d   1      29.820  16.003 -24.668  0.00  0.00     0.002 A 
ATOM     19  C   UNL d   1      30.038  15.496 -24.022  0.00  0.00     0.002 A 
ENDBRANCH   1  11
TORSDOF 4
ENDMDL
MODEL 5
REMARK VINA RESULT:      -2.1      2.230      3.123
REMARK  4 active torsions:
REMARK  status: ('A' for Active; 'I' for Inactive)
REMARK    1  A    between atoms: C_9  and  C_3 
REMARK    2  A    between atoms: C_6  and  C_10 
REMARK    3  A    between atoms: S_8  and  C_9 
REMARK    4  A    between atoms: C_10  and  S_8 
ROOT
ATOM      1  C   UNL d   1      31.892  17.198 -23.981  0.00  0.00     0.074 C 
ENDROOT
BRANCH   1   2
ATOM      2  S   UNL d   1      31.086  17.120 -24.139  0.00  0.00    -0.083 SA
BRANCH   2   3
ATOM      3  C   UNL d   1      30.744  16.372 -24.066  0.00  0.00     0.035 C 
BRANCH   3   4
ATOM      4  C   UNL d   1      29.929  16.303 -24.169  0.00  0.00     0.006 A 
ATOM      5  C   UNL d   1      29.508  15.840 -23.630  0.00  0.00     0.001 A 
ATOM      6  C   UNL d   1      29.879  15.453 -23.003  0.00  0.00     0.000 C 
ATOM      7  C   UNL d   1      28.678  15.754 -23.714  0.00  0.00     0.000 A 
ATOM      8  C   UNL d   1      28.296  16.130 -24.328  0.00  0.00     0.000 A 
ATOM      9  C   UNL d   1      28.738  16.584 -24.848  0.00  0.00     0.000 A 
ATOM     10  C   UNL d   1      29.569  16.668 -24.762  0.00  0.00     0.001 A 
ENDBRANCH   3   4
ENDBRANCH   2   3
ENDBRANCH   1   2
BRANCH   1  11
ATOM     11  C   UNL d   1      32.207  17.940 -23.804  0.00  0.00     0.169 A 
ATOM     12  N   UNL d   1      32.410  18.507 -24.375  0.00  0.00    -0.225 NA
ATOM     13  C   UNL d   1      32.705  19.170 -23.960  0.00  0.00     0.101 A 
ATOM     14  C   UNL d   1      32.674  18.986 -23.131  0.00  0.00     0.101 A 
ATOM     15  C   UNL d   1      32.992  19.896 -24.186  0.00  0.00     0.021 A 
ATOM     16  N   UNL d   1      32.360  18.215 -23.061  0.00  0.00    -0.225 NA
ATOM     17  C   UNL d   1      32.932  19.544 -22.600  0.00  0.00     0.021 A 
ATOM     18  C   UNL d   1      33.208  20.244 -22.831  0.00  0.00     0.002 A 
ATOM     19  C   UNL d   1      33.239  20.428 -23.660  0.00  0.00     0.002 A 
ENDBRANCH   1  11
TORSDOF 4
ENDMDL
