MODEL 1
REMARK VINA RESULT:      -7.4      0.000      0.000
REMARK  5 active torsions:
REMARK  status: ('A' for Active; 'I' for Inactive)
REMARK    1  A    between atoms: C_14  and  C_3 
REMARK    2  A    between atoms: C_8  and  C_4 
REMARK    3  A    between atoms: N_10  and  C_9 
REMARK    4  A    between atoms: O_21  and  C_14 
REMARK    5  A    between atoms: C_25  and  O_21 
ROOT
ATOM      1  C   UNL d   1     -47.587  13.473  22.389  0.00  0.00     0.059 A 
ATOM      2  C   UNL d   1     -46.965  14.014  22.377  0.00  0.00     0.085 A 
ATOM      3  C   UNL d   1     -48.523  14.547  22.370  0.00  0.00     0.083 A 
ATOM      4  C   UNL d   1     -48.363  13.743  22.386  0.00  0.00     0.034 A 
ATOM      5  N   UNL d   1     -47.113  14.819  22.361  0.00  0.00    -0.245 NA
ATOM      6  C   UNL d   1     -47.268  12.713  22.404  0.00  0.00     0.197 A 
ATOM      7  C   UNL d   1     -47.898  15.091  22.357  0.00  0.00     0.087 A 
ATOM      8  C   UNL d   1     -46.256  13.587  22.384  0.00  0.00     0.021 A 
ATOM      9  C   UNL d   1     -46.441  12.785  22.401  0.00  0.00     0.041 A 
ATOM     10  O   UNL d   1     -47.694  12.004  22.419  0.00  0.00    -0.286 OA
ATOM     11  C   UNL d   1     -48.054  15.900  22.341  0.00  0.00     0.021 C 
ATOM     12  C   UNL d   1     -45.457  13.825  22.378  0.00  0.00     0.002 A 
ATOM     13  C   UNL d   1     -45.840  12.215  22.411  0.00  0.00     0.003 A 
ATOM     14  C   UNL d   1     -44.864  13.258  22.388  0.00  0.00     0.000 A 
ATOM     15  C   UNL d   1     -45.047  12.458  22.404  0.00  0.00     0.000 A 
ENDROOT
BRANCH   4  16
ATOM     16  C   UNL d   1     -48.986  13.201  22.398  0.00  0.00     0.102 A 
ATOM     17  O   UNL d   1     -49.323  12.860  23.070  0.00  0.00    -0.286 OA
ATOM     18  C   UNL d   1     -49.922  12.357  22.832  0.00  0.00     0.227 A 
ATOM     19  C   UNL d   1     -49.966  12.377  22.009  0.00  0.00     0.051 A 
ATOM     20  C   UNL d   1     -49.385  12.901  21.735  0.00  0.00     0.029 A 
BRANCH  18  21
ATOM     21  N   UNL d   1     -50.409  11.899  23.325  0.00  0.00    -0.089 N 
ATOM     22  O   UNL d   1     -51.061  12.234  23.693  0.00  0.00    -0.530 OA
ATOM     23  O   UNL d   1     -50.227  11.096  23.441  0.00  0.00    -0.530 OA
ENDBRANCH  18  21
ENDBRANCH   4  16
BRANCH   3  24
ATOM     24  C   UNL d   1     -49.302  14.820  22.366  0.00  0.00     0.302 C 
ATOM     25  O   UNL d   1     -49.726  14.832  21.659  0.00  0.00    -0.259 OA
BRANCH  24  26
ATOM     26  O   UNL d   1     -49.653  15.080  23.063  0.00  0.00    -0.271 OA
BRANCH  26  27
ATOM     27  C   UNL d   1     -50.117  15.761  23.059  0.00  0.00     0.126 C 
ATOM     28  C   UNL d   1     -50.613  15.922  23.697  0.00  0.00     0.029 C 
ENDBRANCH  26  27
ENDBRANCH  24  26
ENDBRANCH   3  24
TORSDOF 5
ENDMDL
MODEL 2
REMARK VINA RESULT:      -7.2      1.471      4.315
REMARK  5 active torsions:
REMARK  status: ('A' for Active; 'I' for Inactive)
REMARK    1  A    between atoms: C_14  and  C_3 
REMARK    2  A    between atoms: C_8  and  C_4 
REMARK    3  A    between atoms: N_10  and  C_9 
REMARK    4  A    between atoms: O_21  and  C_14 
REMARK    5  A    between atoms: C_25  and  O_21 
ROOT
ATOM      1  C   UNL d   1     -48.865  13.678  23.014  0.00  0.00     0.059 A 
ATOM      2  C   UNL d   1     -49.604  13.523  23.347  0.00  0.00     0.085 A 
ATOM      3  C   UNL d   1     -48.521  12.301  23.132  0.00  0.00     0.083 A 
ATOM      4  C   UNL d   1     -48.328  13.066  22.908  0.00  0.00     0.034 A 
ATOM      5  N   UNL d   1     -49.807  12.763  23.573  0.00  0.00    -0.245 NA
ATOM      6  C   UNL d   1     -48.823  14.484  22.845  0.00  0.00     0.197 A 
ATOM      7  C   UNL d   1     -49.263  12.144  23.466  0.00  0.00     0.087 A 
ATOM      8  C   UNL d   1     -50.021  14.237  23.384  0.00  0.00     0.021 A 
ATOM      9  C   UNL d   1     -49.542  14.829  23.075  0.00  0.00     0.041 A 
ATOM     10  O   UNL d   1     -48.180  14.879  22.506  0.00  0.00    -0.286 OA
ATOM     11  C   UNL d   1     -49.461  11.377  23.692  0.00  0.00     0.021 C 
ATOM     12  C   UNL d   1     -50.784  14.427  23.662  0.00  0.00     0.002 A 
ATOM     13  C   UNL d   1     -49.811  15.612  23.039  0.00  0.00     0.003 A 
ATOM     14  C   UNL d   1     -51.048  15.203  23.625  0.00  0.00     0.000 A 
ATOM     15  C   UNL d   1     -50.571  15.795  23.317  0.00  0.00     0.000 A 
ENDROOT
BRANCH   4  16
ATOM     16  C   UNL d   1     -47.590  13.222  22.575  0.00  0.00     0.102 A 
ATOM     17  O   UNL d   1     -46.886  13.351  22.987  0.00  0.00    -0.286 OA
ATOM     18  C   UNL d   1     -46.289  13.484  22.443  0.00  0.00     0.227 A 
ATOM     19  C   UNL d   1     -46.612  13.440  21.686  0.00  0.00     0.051 A 
ATOM     20  C   UNL d   1     -47.422  13.277  21.764  0.00  0.00     0.029 A 
BRANCH  18  21
ATOM     21  N   UNL d   1     -45.491  13.638  22.613  0.00  0.00    -0.089 N 
ATOM     22  O   UNL d   1     -45.260  13.853  23.370  0.00  0.00    -0.530 OA
ATOM     23  O   UNL d   1     -44.927  13.572  22.005  0.00  0.00    -0.530 OA
ENDBRANCH  18  21
ENDBRANCH   4  16
BRANCH   3  24
ATOM     24  C   UNL d   1     -47.983  11.684  23.026  0.00  0.00     0.302 C 
ATOM     25  O   UNL d   1     -47.933  11.307  22.294  0.00  0.00    -0.259 OA
BRANCH  24  26
ATOM     26  O   UNL d   1     -47.498  11.447  23.647  0.00  0.00    -0.271 OA
BRANCH  26  27
ATOM     27  C   UNL d   1     -47.249  10.663  23.696  0.00  0.00     0.126 C 
ATOM     28  C   UNL d   1     -46.445  10.488  23.682  0.00  0.00     0.029 C 
ENDBRANCH  26  27
ENDBRANCH  24  26
ENDBRANCH   3  24
TORSDOF 5
ENDMDL
MODEL 3
REMARK VINA RESULT:      -6.4      1.282      3.614
REMARK  5 active torsions:
REMARK  status: ('A' for Active; 'I' for Inactive)
REMARK    1  A    between atoms: C_14  and  C_3 
REMARK    2  A    between atoms: C_8  and  C_4 
REMARK    3  A    between atoms: N_10  and  C_9 
REMARK    4  A    between atoms: O_21  and  C_14 
REMARK    5  A    between atoms: C_25  and  O_21 
ROOT
ATOM      1  C   UNL d   1     -48.627  13.934  22.981  0.00  0.00     0.059 A 
ATOM      2  C   UNL d   1     -48.625  14.758  22.936  0.00  0.00     0.085 A 
ATOM      3  C   UNL d   1     -47.205  13.927  22.888  0.00  0.00     0.083 A 
ATOM      4  C   UNL d   1     -47.916  13.523  22.957  0.00  0.00     0.034 A 
ATOM      5  N   UNL d   1     -47.922  15.170  22.868  0.00  0.00    -0.245 NA
ATOM      6  C   UNL d   1     -49.408  13.680  23.047  0.00  0.00     0.197 A 
ATOM      7  C   UNL d   1     -47.204  14.754  22.843  0.00  0.00     0.087 A 
ATOM      8  C   UNL d   1     -49.411  15.015  22.974  0.00  0.00     0.021 A 
ATOM      9  C   UNL d   1     -49.894  14.353  23.042  0.00  0.00     0.041 A 
ATOM     10  O   UNL d   1     -49.664  12.896  23.106  0.00  0.00    -0.286 OA
ATOM     11  C   UNL d   1     -46.491  15.163  22.774  0.00  0.00     0.021 C 
ATOM     12  C   UNL d   1     -49.754  15.775  22.956  0.00  0.00     0.002 A 
ATOM     13  C   UNL d   1     -50.717  14.436  23.092  0.00  0.00     0.003 A 
ATOM     14  C   UNL d   1     -50.570  15.854  23.005  0.00  0.00     0.000 A 
ATOM     15  C   UNL d   1     -51.053  15.194  23.073  0.00  0.00     0.000 A 
ENDROOT
BRANCH   4  16
ATOM     16  C   UNL d   1     -47.917  12.699  23.001  0.00  0.00     0.102 A 
ATOM     17  O   UNL d   1     -47.969  12.176  22.365  0.00  0.00    -0.286 OA
ATOM     18  C   UNL d   1     -47.951  11.411  22.656  0.00  0.00     0.227 A 
ATOM     19  C   UNL d   1     -47.888  11.448  23.478  0.00  0.00     0.051 A 
ATOM     20  C   UNL d   1     -47.866  12.248  23.696  0.00  0.00     0.029 A 
BRANCH  18  21
ATOM     21  N   UNL d   1     -47.989  10.711  22.212  0.00  0.00    -0.089 N 
ATOM     22  O   UNL d   1     -47.508  10.073  22.398  0.00  0.00    -0.530 OA
ATOM     23  O   UNL d   1     -48.521  10.663  21.575  0.00  0.00    -0.530 OA
ENDBRANCH  18  21
ENDBRANCH   4  16
BRANCH   3  24
ATOM     24  C   UNL d   1     -46.490  13.516  22.863  0.00  0.00     0.302 C 
ATOM     25  O   UNL d   1     -46.184  13.187  23.555  0.00  0.00    -0.259 OA
BRANCH  24  26
ATOM     26  O   UNL d   1     -46.084  13.433  22.152  0.00  0.00    -0.271 OA
BRANCH  26  27
ATOM     27  C   UNL d   1     -45.261  13.379  22.154  0.00  0.00     0.126 C 
ATOM     28  C   UNL d   1     -44.881  12.908  21.597  0.00  0.00     0.029 C 
ENDBRANCH  26  27
ENDBRANCH  24  26
ENDBRANCH   3  24
TORSDOF 5
ENDMDL
MODEL 4
REMARK VINA RESULT:      -6.3      1.448      2.017
REMARK  5 active torsions:
REMARK  status: ('A' for Active; 'I' for Inactive)
REMARK    1  A    between atoms: C_14  and  C_3 
REMARK    2  A    between atoms: C_8  and  C_4 
REMARK    3  A    between atoms: N_10  and  C_9 
REMARK    4  A    between atoms: O_21  and  C_14 
REMARK    5  A    between atoms: C_25  and  O_21 
ROOT
ATOM      1  C   UNL d   1     -47.179  12.208  23.258  0.00  0.00     0.059 A 
ATOM      2  C   UNL d   1     -46.372  12.363  23.328  0.00  0.00     0.085 A 
ATOM      3  C   UNL d   1     -47.429  13.599  23.073  0.00  0.00     0.083 A 
ATOM      4  C   UNL d   1     -47.703  12.828  23.131  0.00  0.00     0.034 A 
ATOM      5  N   UNL d   1     -46.087  13.128  23.272  0.00  0.00    -0.245 NA
ATOM      6  C   UNL d   1     -47.294  11.396  23.338  0.00  0.00     0.197 A 
ATOM      7  C   UNL d   1     -46.618  13.754  23.143  0.00  0.00     0.087 A 
ATOM      8  C   UNL d   1     -45.985  11.642  23.452  0.00  0.00     0.021 A 
ATOM      9  C   UNL d   1     -46.552  11.045  23.459  0.00  0.00     0.041 A 
ATOM     10  O   UNL d   1     -48.019  11.000  23.305  0.00  0.00    -0.286 OA
ATOM     11  C   UNL d   1     -46.339  14.527  23.085  0.00  0.00     0.021 C 
ATOM     12  C   UNL d   1     -45.181  11.447  23.561  0.00  0.00     0.002 A 
ATOM     13  C   UNL d   1     -46.329  10.255  23.573  0.00  0.00     0.003 A 
ATOM     14  C   UNL d   1     -44.964  10.664  23.674  0.00  0.00     0.000 A 
ATOM     15  C   UNL d   1     -45.529  10.068  23.681  0.00  0.00     0.000 A 
ENDROOT
BRANCH   4  16
ATOM     16  C   UNL d   1     -48.511  12.673  23.061  0.00  0.00     0.102 A 
ATOM     17  O   UNL d   1     -48.941  12.635  22.358  0.00  0.00    -0.286 OA
ATOM     18  C   UNL d   1     -49.721  12.469  22.540  0.00  0.00     0.227 A 
ATOM     19  C   UNL d   1     -49.787  12.402  23.360  0.00  0.00     0.051 A 
ATOM     20  C   UNL d   1     -49.036  12.528  23.687  0.00  0.00     0.029 A 
BRANCH  18  21
ATOM     21  N   UNL d   1     -50.348  12.381  22.003  0.00  0.00    -0.089 N 
ATOM     22  O   UNL d   1     -50.317  11.807  21.418  0.00  0.00    -0.530 OA
ATOM     23  O   UNL d   1     -51.008  12.882  22.064  0.00  0.00    -0.530 OA
ENDBRANCH  18  21
ENDBRANCH   4  16
BRANCH   3  24
ATOM     24  C   UNL d   1     -47.954  14.222  22.945  0.00  0.00     0.302 C 
ATOM     25  O   UNL d   1     -48.425  14.493  23.566  0.00  0.00    -0.259 OA
BRANCH  24  26
ATOM     26  O   UNL d   1     -48.009  14.573  22.202  0.00  0.00    -0.271 OA
BRANCH  26  27
ATOM     27  C   UNL d   1     -48.358  15.315  22.124  0.00  0.00     0.126 C 
ATOM     28  C   UNL d   1     -48.598  15.578  21.382  0.00  0.00     0.029 C 
ENDBRANCH  26  27
ENDBRANCH  24  26
ENDBRANCH   3  24
TORSDOF 5
ENDMDL
MODEL 5
REMARK VINA RESULT:      -6.1      8.204      9.894
REMARK  5 active torsions:
REMARK  status: ('A' for Active; 'I' for Inactive)
REMARK    1  A    between atoms: C_14  and  C_3 
REMARK    2  A    between atoms: C_8  and  C_4 
REMARK    3  A    between atoms: N_10  and  C_9 
REMARK    4  A    between atoms: O_21  and  C_14 
REMARK    5  A    between atoms: C_25  and  O_21 
ROOT
ATOM      1  C   UNL d   1     -39.247  14.106  20.201  0.00  0.00     0.059 A 
ATOM      2  C   UNL d   1     -39.711  14.394  20.819  0.00  0.00     0.085 A 
ATOM      3  C   UNL d   1     -40.232  14.529  19.263  0.00  0.00     0.083 A 
ATOM      4  C   UNL d   1     -39.510  14.176  19.426  0.00  0.00     0.034 A 
ATOM      5  N   UNL d   1     -40.433  14.748  20.668  0.00  0.00    -0.245 NA
ATOM      6  C   UNL d   1     -38.560  13.784  20.523  0.00  0.00     0.197 A 
ATOM      7  C   UNL d   1     -40.699  14.818  19.884  0.00  0.00     0.087 A 
ATOM      8  C   UNL d   1     -39.310  14.248  21.528  0.00  0.00     0.021 A 
ATOM      9  C   UNL d   1     -38.600  13.873  21.347  0.00  0.00     0.041 A 
ATOM     10  O   UNL d   1     -37.940  13.434  20.102  0.00  0.00    -0.286 OA
ATOM     11  C   UNL d   1     -41.425  15.174  19.724  0.00  0.00     0.021 C 
ATOM     12  C   UNL d   1     -39.499  14.410  22.324  0.00  0.00     0.002 A 
ATOM     13  C   UNL d   1     -38.074  13.655  21.950  0.00  0.00     0.003 A 
ATOM     14  C   UNL d   1     -38.976  14.194  22.918  0.00  0.00     0.000 A 
ATOM     15  C   UNL d   1     -38.268  13.820  22.739  0.00  0.00     0.000 A 
ENDROOT
BRANCH   4  16
ATOM     16  C   UNL d   1     -39.045  13.888  18.808  0.00  0.00     0.102 A 
ATOM     17  O   UNL d   1     -39.133  13.160  18.429  0.00  0.00    -0.286 OA
ATOM     18  C   UNL d   1     -38.558  13.098  17.851  0.00  0.00     0.227 A 
ATOM     19  C   UNL d   1     -38.104  13.787  17.861  0.00  0.00     0.051 A 
ATOM     20  C   UNL d   1     -38.404  14.281  18.456  0.00  0.00     0.029 A 
BRANCH  18  21
ATOM     21  N   UNL d   1     -38.440  12.458  17.335  0.00  0.00    -0.089 N 
ATOM     22  O   UNL d   1     -38.481  11.687  17.614  0.00  0.00    -0.530 OA
ATOM     23  O   UNL d   1     -38.281  12.607  16.533  0.00  0.00    -0.530 OA
ENDBRANCH  18  21
ENDBRANCH   4  16
BRANCH   3  24
ATOM     24  C   UNL d   1     -40.498  14.600  18.485  0.00  0.00     0.302 C 
ATOM     25  O   UNL d   1     -40.913  13.978  18.138  0.00  0.00    -0.259 OA
BRANCH  24  26
ATOM     26  O   UNL d   1     -40.350  15.288  18.057  0.00  0.00    -0.271 OA
BRANCH  26  27
ATOM     27  C   UNL d   1     -40.910  15.563  17.519  0.00  0.00     0.126 C 
ATOM     28  C   UNL d   1     -40.664  15.922  16.821  0.00  0.00     0.029 C 
ENDBRANCH  26  27
ENDBRANCH  24  26
ENDBRANCH   3  24
TORSDOF 5
ENDMDL
MODEL 6
REMARK VINA RESULT:      -5.5      9.185     10.431
REMARK  5 active torsions:
REMARK  status: ('A' for Active; 'I' for Inactive)
REMARK    1  A    between atoms: C_14  and  C_3 
REMARK    2  A    between atoms: C_8  and  C_4 
REMARK    3  A    between atoms: N_10  and  C_9 
REMARK    4  A    between atoms: O_21  and  C_14 
REMARK    5  A    between atoms: C_25  and  O_21 
ROOT
ATOM      1  C   UNL d   1     -39.235  14.682  19.143  0.00  0.00     0.059 A 
ATOM      2  C   UNL d   1     -38.771  14.225  19.651  0.00  0.00     0.085 A 
ATOM      3  C   UNL d   1     -38.844  13.860  18.047  0.00  0.00     0.083 A 
ATOM      4  C   UNL d   1     -39.269  14.496  18.344  0.00  0.00     0.034 A 
ATOM      5  N   UNL d   1     -38.343  13.589  19.365  0.00  0.00    -0.245 NA
ATOM      6  C   UNL d   1     -39.595  15.276  19.587  0.00  0.00     0.197 A 
ATOM      7  C   UNL d   1     -38.378  13.402  18.556  0.00  0.00     0.087 A 
ATOM      8  C   UNL d   1     -38.845  14.539  20.413  0.00  0.00     0.021 A 
ATOM      9  C   UNL d   1     -39.352  15.186  20.375  0.00  0.00     0.041 A 
ATOM     10  O   UNL d   1     -40.108  15.858  19.299  0.00  0.00    -0.286 OA
ATOM     11  C   UNL d   1     -37.950  12.762  18.262  0.00  0.00     0.021 C 
ATOM     12  C   UNL d   1     -38.513  14.318  21.145  0.00  0.00     0.002 A 
ATOM     13  C   UNL d   1     -39.534  15.618  21.059  0.00  0.00     0.003 A 
ATOM     14  C   UNL d   1     -38.695  14.748  21.820  0.00  0.00     0.000 A 
ATOM     15  C   UNL d   1     -39.201  15.393  21.784  0.00  0.00     0.000 A 
ENDROOT
BRANCH   4  16
ATOM     16  C   UNL d   1     -39.732  14.952  17.836  0.00  0.00     0.102 A 
ATOM     17  O   UNL d   1     -40.517  14.804  17.627  0.00  0.00    -0.286 OA
ATOM     18  C   UNL d   1     -40.764  15.392  17.114  0.00  0.00     0.227 A 
ATOM     19  C   UNL d   1     -40.136  15.914  16.997  0.00  0.00     0.051 A 
ATOM     20  C   UNL d   1     -39.492  15.643  17.445  0.00  0.00     0.029 A 
BRANCH  18  21
ATOM     21  N   UNL d   1     -41.513  15.462  16.765  0.00  0.00    -0.089 N 
ATOM     22  O   UNL d   1     -41.611  15.335  15.960  0.00  0.00    -0.530 OA
ATOM     23  O   UNL d   1     -42.165  15.663  17.240  0.00  0.00    -0.530 OA
ENDBRANCH  18  21
ENDBRANCH   4  16
BRANCH   3  24
ATOM     24  C   UNL d   1     -38.876  13.672  17.244  0.00  0.00     0.302 C 
ATOM     25  O   UNL d   1     -39.460  13.159  16.968  0.00  0.00    -0.259 OA
BRANCH  24  26
ATOM     26  O   UNL d   1     -38.329  13.995  16.720  0.00  0.00    -0.271 OA
BRANCH  26  27
ATOM     27  C   UNL d   1     -37.968  13.514  16.157  0.00  0.00     0.126 C 
ATOM     28  C   UNL d   1     -38.017  13.710  15.359  0.00  0.00     0.029 C 
ENDBRANCH  26  27
ENDBRANCH  24  26
ENDBRANCH   3  24
TORSDOF 5
ENDMDL
MODEL 7
REMARK VINA RESULT:      -5.4      6.765      9.051
REMARK  5 active torsions:
REMARK  status: ('A' for Active; 'I' for Inactive)
REMARK    1  A    between atoms: C_14  and  C_3 
REMARK    2  A    between atoms: C_8  and  C_4 
REMARK    3  A    between atoms: N_10  and  C_9 
REMARK    4  A    between atoms: O_21  and  C_14 
REMARK    5  A    between atoms: C_25  and  O_21 
ROOT
ATOM      1  C   UNL d   1     -39.935  14.824  19.262  0.00  0.00     0.059 A 
ATOM      2  C   UNL d   1     -39.206  15.012  18.925  0.00  0.00     0.085 A 
ATOM      3  C   UNL d   1     -39.337  14.819  20.555  0.00  0.00     0.083 A 
ATOM      4  C   UNL d   1     -39.997  14.729  20.075  0.00  0.00     0.034 A 
ATOM      5  N   UNL d   1     -38.542  15.104  19.394  0.00  0.00    -0.245 NA
ATOM      6  C   UNL d   1     -40.492  14.768  18.656  0.00  0.00     0.197 A 
ATOM      7  C   UNL d   1     -38.604  15.008  20.216  0.00  0.00     0.087 A 
ATOM      8  C   UNL d   1     -39.312  15.072  18.106  0.00  0.00     0.021 A 
ATOM      9  C   UNL d   1     -40.104  14.922  17.940  0.00  0.00     0.041 A 
ATOM     10  O   UNL d   1     -41.295  14.590  18.746  0.00  0.00    -0.286 OA
ATOM     11  C   UNL d   1     -37.940  15.099  20.695  0.00  0.00     0.021 C 
ATOM     12  C   UNL d   1     -38.786  15.246  17.483  0.00  0.00     0.002 A 
ATOM     13  C   UNL d   1     -40.381  14.943  17.159  0.00  0.00     0.003 A 
ATOM     14  C   UNL d   1     -39.063  15.265  16.711  0.00  0.00     0.000 A 
ATOM     15  C   UNL d   1     -39.852  15.116  16.543  0.00  0.00     0.000 A 
ENDROOT
BRANCH   4  16
ATOM     16  C   UNL d   1     -40.726  14.541  20.412  0.00  0.00     0.102 A 
ATOM     17  O   UNL d   1     -41.036  13.783  20.515  0.00  0.00    -0.286 OA
ATOM     18  C   UNL d   1     -41.770  13.849  20.869  0.00  0.00     0.227 A 
ATOM     19  C   UNL d   1     -41.928  14.649  20.992  0.00  0.00     0.051 A 
ATOM     20  C   UNL d   1     -41.280  15.083  20.709  0.00  0.00     0.029 A 
BRANCH  18  21
ATOM     21  N   UNL d   1     -42.278  13.226  21.075  0.00  0.00    -0.089 N 
ATOM     22  O   UNL d   1     -42.274  12.919  21.836  0.00  0.00    -0.530 OA
ATOM     23  O   UNL d   1     -42.793  12.916  20.500  0.00  0.00    -0.530 OA
ENDBRANCH  18  21
ENDBRANCH   4  16
BRANCH   3  24
ATOM     24  C   UNL d   1     -39.397  14.724  21.372  0.00  0.00     0.302 C 
ATOM     25  O   UNL d   1     -39.697  15.339  21.834  0.00  0.00    -0.259 OA
BRANCH  24  26
ATOM     26  O   UNL d   1     -39.158  14.020  21.726  0.00  0.00    -0.271 OA
BRANCH  26  27
ATOM     27  C   UNL d   1     -38.930  14.017  22.518  0.00  0.00     0.126 C 
ATOM     28  C   UNL d   1     -38.790  13.302  22.900  0.00  0.00     0.029 C 
ENDBRANCH  26  27
ENDBRANCH  24  26
ENDBRANCH   3  24
TORSDOF 5
ENDMDL
MODEL 8
REMARK VINA RESULT:      -4.7      1.306      2.687
REMARK  5 active torsions:
REMARK  status: ('A' for Active; 'I' for Inactive)
REMARK    1  A    between atoms: C_14  and  C_3 
REMARK    2  A    between atoms: C_8  and  C_4 
REMARK    3  A    between atoms: N_10  and  C_9 
REMARK    4  A    between atoms: O_21  and  C_14 
REMARK    5  A    between atoms: C_25  and  O_21 
ROOT
ATOM      1  C   UNL d   1     -47.442  13.287  22.633  0.00  0.00     0.059 A 
ATOM      2  C   UNL d   1     -46.935  12.647  22.516  0.00  0.00     0.085 A 
ATOM      3  C   UNL d   1     -48.546  12.392  22.742  0.00  0.00     0.083 A 
ATOM      4  C   UNL d   1     -48.245  13.156  22.746  0.00  0.00     0.034 A 
ATOM      5  N   UNL d   1     -47.224  11.881  22.511  0.00  0.00    -0.245 NA
ATOM      6  C   UNL d   1     -46.994  13.978  22.611  0.00  0.00     0.197 A 
ATOM      7  C   UNL d   1     -48.037  11.749  22.624  0.00  0.00     0.087 A 
ATOM      8  C   UNL d   1     -46.168  12.944  22.421  0.00  0.00     0.021 A 
ATOM      9  C   UNL d   1     -46.203  13.764  22.478  0.00  0.00     0.041 A 
ATOM     10  O   UNL d   1     -47.280  14.749  22.703  0.00  0.00    -0.286 OA
ATOM     11  C   UNL d   1     -48.335  10.981  22.620  0.00  0.00     0.021 C 
ATOM     12  C   UNL d   1     -45.435  12.572  22.287  0.00  0.00     0.002 A 
ATOM     13  C   UNL d   1     -45.516  14.220  22.405  0.00  0.00     0.003 A 
ATOM     14  C   UNL d   1     -44.755  13.026  22.214  0.00  0.00     0.000 A 
ATOM     15  C   UNL d   1     -44.789  13.844  22.271  0.00  0.00     0.000 A 
ENDROOT
BRANCH   4  16
ATOM     16  C   UNL d   1     -48.752  13.796  22.863  0.00  0.00     0.102 A 
ATOM     17  O   UNL d   1     -49.189  14.185  22.280  0.00  0.00    -0.286 OA
ATOM     18  C   UNL d   1     -49.617  14.786  22.635  0.00  0.00     0.227 A 
ATOM     19  C   UNL d   1     -49.452  14.779  23.444  0.00  0.00     0.051 A 
ATOM     20  C   UNL d   1     -48.914  14.164  23.588  0.00  0.00     0.029 A 
BRANCH  18  21
ATOM     21  N   UNL d   1     -50.131  15.317  22.259  0.00  0.00    -0.089 N 
ATOM     22  O   UNL d   1     -49.834  15.920  21.787  0.00  0.00    -0.530 OA
ATOM     23  O   UNL d   1     -50.951  15.232  22.364  0.00  0.00    -0.530 OA
ENDBRANCH  18  21
ENDBRANCH   4  16
BRANCH   3  24
ATOM     24  C   UNL d   1     -49.353  12.259  22.854  0.00  0.00     0.302 C 
ATOM     25  O   UNL d   1     -49.866  12.296  22.209  0.00  0.00    -0.259 OA
BRANCH  24  26
ATOM     26  O   UNL d   1     -49.644  12.090  23.605  0.00  0.00    -0.271 OA
BRANCH  26  27
ATOM     27  C   UNL d   1     -50.227  11.515  23.698  0.00  0.00     0.126 C 
ATOM     28  C   UNL d   1     -51.021  11.726  23.653  0.00  0.00     0.029 C 
ENDBRANCH  26  27
ENDBRANCH  24  26
ENDBRANCH   3  24
TORSDOF 5
ENDMDL
MODEL 9
REMARK VINA RESULT:      -4.6      0.902      1.236
REMARK  5 active torsions:
REMARK  status: ('A' for Active; 'I' for Inactive)
REMARK    1  A    between atoms: C_14  and  C_3 
REMARK    2  A    between atoms: C_8  and  C_4 
REMARK    3  A    between atoms: N_10  and  C_9 
REMARK    4  A    between atoms: O_21  and  C_14 
REMARK    5  A    between atoms: C_25  and  O_21 
ROOT
ATOM      1  C   UNL d   1     -46.788  13.232  22.611  0.00  0.00     0.059 A 
ATOM      2  C   UNL d   1     -46.195  13.781  22.442  0.00  0.00     0.085 A 
ATOM      3  C   UNL d   1     -47.731  14.293  22.742  0.00  0.00     0.083 A 
ATOM      4  C   UNL d   1     -47.553  13.492  22.760  0.00  0.00     0.034 A 
ATOM      5  N   UNL d   1     -46.361  14.582  22.422  0.00  0.00    -0.245 NA
ATOM      6  C   UNL d   1     -46.456  12.478  22.591  0.00  0.00     0.197 A 
ATOM      7  C   UNL d   1     -47.135  14.844  22.573  0.00  0.00     0.087 A 
ATOM      8  C   UNL d   1     -45.491  13.363  22.317  0.00  0.00     0.021 A 
ATOM      9  C   UNL d   1     -45.651  12.561  22.409  0.00  0.00     0.041 A 
ATOM     10  O   UNL d   1     -46.853  11.766  22.728  0.00  0.00    -0.286 OA
ATOM     11  C   UNL d   1     -47.310  15.649  22.554  0.00  0.00     0.021 C 
ATOM     12  C   UNL d   1     -44.717  13.610  22.131  0.00  0.00     0.002 A 
ATOM     13  C   UNL d   1     -45.048  11.999  22.317  0.00  0.00     0.003 A 
ATOM     14  C   UNL d   1     -44.123  13.052  22.040  0.00  0.00     0.000 A 
ATOM     15  C   UNL d   1     -44.280  12.252  22.131  0.00  0.00     0.000 A 
ENDROOT
BRANCH   4  16
ATOM     16  C   UNL d   1     -48.147  12.944  22.928  0.00  0.00     0.102 A 
ATOM     17  O   UNL d   1     -48.623  12.556  22.377  0.00  0.00    -0.286 OA
ATOM     18  C   UNL d   1     -49.136  12.062  22.780  0.00  0.00     0.227 A 
ATOM     19  C   UNL d   1     -48.986  12.137  23.588  0.00  0.00     0.051 A 
ATOM     20  C   UNL d   1     -48.371  12.685  23.684  0.00  0.00     0.029 A 
BRANCH  18  21
ATOM     21  N   UNL d   1     -49.712  11.567  22.446  0.00  0.00    -0.089 N 
ATOM     22  O   UNL d   1     -49.525  11.078  21.815  0.00  0.00    -0.530 OA
ATOM     23  O   UNL d   1     -50.483  11.573  22.758  0.00  0.00    -0.530 OA
ENDBRANCH  18  21
ENDBRANCH   4  16
BRANCH   3  24
ATOM     24  C   UNL d   1     -48.499  14.556  22.891  0.00  0.00     0.302 C 
ATOM     25  O   UNL d   1     -48.756  14.643  23.671  0.00  0.00    -0.259 OA
BRANCH  24  26
ATOM     26  O   UNL d   1     -49.006  14.730  22.267  0.00  0.00    -0.271 OA
BRANCH  26  27
ATOM     27  C   UNL d   1     -49.547  15.347  22.339  0.00  0.00     0.126 C 
ATOM     28  C   UNL d   1     -50.312  15.257  22.048  0.00  0.00     0.029 C 
ENDBRANCH  26  27
ENDBRANCH  24  26
ENDBRANCH   3  24
TORSDOF 5
ENDMDL
