MODEL 1
REMARK VINA RESULT:      13.6      0.000      0.000
REMARK  3 active torsions:
REMARK  status: ('A' for Active; 'I' for Inactive)
REMARK       I    between atoms: N_4  and  C_1 
REMARK    1  A    between atoms: O_11  and  C_3 
REMARK    2  A    between atoms: C_6  and  N_4 
REMARK    3  A    between atoms: O_12  and  C_7 
ROOT
ATOM      1  C   UNL d   1      57.618  49.705  51.174  0.00  0.00     0.046 A 
ATOM      2  C   UNL d   1      56.902  49.703  50.768  0.00  0.00     0.118 A 
ATOM      3  C   UNL d   1      58.333  49.705  50.755  0.00  0.00     0.102 A 
ATOM      4  C   UNL d   1      56.896  49.701  49.942  0.00  0.00     0.116 A 
ATOM      5  C   UNL d   1      57.610  49.701  49.523  0.00  0.00     0.028 A 
ATOM      6  C   UNL d   1      58.326  49.703  49.933  0.00  0.00     0.022 A 
ENDROOT
BRANCH   3   7
ATOM      7  N   UNL d   1      59.052  49.708  51.163  0.00  0.00    -0.056 NA
ATOM      8  C   UNL d   1      59.759  49.644  50.759  0.00  0.00     0.787 C 
ATOM      9  N   UNL d   1      60.471  49.646  51.162  0.00  0.00     0.064 N 
ATOM     10  N   UNL d   1      59.751  49.578  49.934  0.00  0.00     0.064 N 
ENDBRANCH   3   7
BRANCH   2  11
ATOM     11  O   UNL d   1      56.195  49.703  51.183  0.00  0.00    -0.326 OA
ATOM     12  C   UNL d   1      56.130  49.277  51.883  0.00  0.00     0.181 C 
ENDBRANCH   2  11
BRANCH   4  13
ATOM     13  O   UNL d   1      56.185  49.699  49.538  0.00  0.00    -0.326 OA
ATOM     14  C   UNL d   1      56.114  49.282  48.831  0.00  0.00     0.181 C 
ENDBRANCH   4  13
TORSDOF 3
ENDMDL
