MODEL 1
REMARK VINA RESULT:      24.0      0.000      0.000
REMARK  3 active torsions:
REMARK  status: ('A' for Active; 'I' for Inactive)
REMARK       I    between atoms: C_4  and  N_1 
REMARK    1  A    between atoms: C_7  and  C_3 
REMARK    2  A    between atoms: C_9  and  C_4 
REMARK    3  A    between atoms: C_8  and  C_5 
ROOT
ATOM      1  N   UNL d   1      46.065 -18.171  43.349  0.00  0.00    -0.191 N 
ATOM      2  N   UNL d   1      46.006 -17.358  43.310  0.00  0.00    -0.163 NA
ATOM      3  C   UNL d   1      45.953 -18.378  44.160  0.00  0.00     0.110 A 
ATOM      4  C   UNL d   1      46.204 -18.686  42.739  0.00  0.00     0.303 C 
ATOM      5  C   UNL d   1      45.861 -17.055  44.064  0.00  0.00     0.103 A 
ATOM      6  C   UNL d   1      45.829 -17.677  44.581  0.00  0.00     0.042 A 
ATOM      7  O   UNL d   1      46.245 -19.537  42.909  0.00  0.00    -0.263 OA
ENDROOT
BRANCH   3   8
ATOM      8  C   UNL d   1      45.965 -19.144  44.470  0.00  0.00     0.118 A 
ATOM      9  O   UNL d   1      45.309 -19.594  44.635  0.00  0.00    -0.304 OA
ATOM     10  C   UNL d   1      45.571 -20.329  44.939  0.00  0.00     0.123 A 
ATOM     11  C   UNL d   1      46.395 -20.310  44.952  0.00  0.00     0.029 A 
ATOM     12  C   UNL d   1      46.631 -19.564  44.656  0.00  0.00     0.028 A 
ENDBRANCH   3   8
BRANCH   4  13
ATOM     13  C   UNL d   1      46.306 -18.434  41.969  0.00  0.00     0.158 A 
ATOM     14  O   UNL d   1      46.647 -17.730  41.722  0.00  0.00    -0.300 OA
ATOM     15  C   UNL d   1      46.639 -17.698  40.902  0.00  0.00     0.123 A 
ATOM     16  C   UNL d   1      46.288 -18.391  40.630  0.00  0.00     0.029 A 
ATOM     17  C   UNL d   1      46.079 -18.853  41.287  0.00  0.00     0.032 A 
ENDBRANCH   4  13
BRANCH   5  18
ATOM     18  C   UNL d   1      45.769 -16.244  44.233  0.00  0.00     0.019 A 
ATOM     19  C   UNL d   1      46.363 -15.746  44.031  0.00  0.00     0.002 A 
ATOM     20  C   UNL d   1      46.305 -14.938  44.184  0.00  0.00     0.000 A 
ATOM     21  C   UNL d   1      45.633 -14.647  44.546  0.00  0.00     0.000 A 
ATOM     22  C   UNL d   1      45.005 -15.151  44.764  0.00  0.00     0.000 A 
ATOM     23  C   UNL d   1      45.581 -13.838  44.697  0.00  0.00     0.000 C 
ATOM     24  C   UNL d   1      45.083 -15.978  44.599  0.00  0.00     0.002 A 
ENDBRANCH   5  18
TORSDOF 3
ENDMDL
