MODEL 1
REMARK VINA RESULT:       2.4      0.000      0.000
REMARK  6 active torsions:
REMARK  status: ('A' for Active; 'I' for Inactive)
REMARK    1  A    between atoms: N_2  and  C_1 
REMARK       I    between atoms: C_4  and  N_2 
REMARK    2  A    between atoms: C_21  and  N_2 
REMARK    3  A    between atoms: C_6  and  C_4 
REMARK    4  A    between atoms: C_23  and  C_21 
REMARK    5  A    between atoms: C_25  and  C_23 
REMARK    6  A    between atoms: N_24  and  C_25 
ROOT
ATOM      1  N   UNL d   1     -41.586-122.573 -52.332  0.00  0.00    -0.252 N 
ATOM      2  C   UNL d   1     -41.940-123.039 -52.918  0.00  0.00     0.272 C 
ATOM      3  O   UNL d   1     -42.397-123.685 -52.714  0.00  0.00    -0.266 OA
ENDROOT
BRANCH   1   4
ATOM      4  C   UNL d   1     -41.701-122.771 -51.529  0.00  0.00     0.182 A 
ATOM      5  N   UNL d   1     -42.398-122.654 -51.099  0.00  0.00    -0.222 NA
ATOM      6  C   UNL d   1     -42.274-122.928 -50.327  0.00  0.00     0.092 A 
ATOM      7  C   UNL d   1     -42.762-122.950 -49.676  0.00  0.00     0.046 A 
ATOM      8  C   UNL d   1     -41.502-123.212 -50.283  0.00  0.00     0.052 A 
ATOM      9  C   UNL d   1     -42.489-123.259 -48.960  0.00  0.00     0.121 A 
ATOM     10  O   UNL d   1     -42.837-123.354 -48.230  0.00  0.00    -0.299 OA
ATOM     11  C   UNL d   1     -41.720-123.542 -48.918  0.00  0.00     0.120 A 
ATOM     12  C   UNL d   1     -42.284-123.698 -47.729  0.00  0.00     0.304 A 
ATOM     13  O   UNL d   1     -41.595-123.815 -48.149  0.00  0.00    -0.300 OA
ATOM     14  C   UNL d   1     -41.222-123.521 -49.577  0.00  0.00     0.034 A 
ATOM     15  S   UNL d   1     -41.142-123.118 -51.023  0.00  0.00    -0.048 SA
ENDBRANCH   1   4
BRANCH   1  16
ATOM     16  C   UNL d   1     -41.124-121.919 -52.537  0.00  0.00     0.086 C 
BRANCH  16  17
ATOM     17  C   UNL d   1     -41.289-121.177 -52.204  0.00  0.00     0.038 C 
BRANCH  17  18
ATOM     18  C   UNL d   1     -41.173-120.492 -52.650  0.00  0.00     0.082 C 
BRANCH  18  19
ATOM     19  N   UNL d   1     -41.163-119.755 -52.281  0.00  0.00    -0.300 N 
ATOM     20  C   UNL d   1     -41.189-119.069 -52.736  0.00  0.00     0.100 C 
ATOM     21  C   UNL d   1     -41.128-119.705 -51.459  0.00  0.00     0.100 C 
ENDBRANCH  18  19
ENDBRANCH  17  18
ENDBRANCH  16  17
ENDBRANCH   1  16
BRANCH   2  22
ATOM     22  C   UNL d   1     -41.823-122.839 -53.713  0.00  0.00     0.087 A 
ATOM     23  S   UNL d   1     -42.352-122.423 -54.208  0.00  0.00    -0.071 SA
ATOM     24  C   UNL d   1     -41.997-122.355 -54.953  0.00  0.00     0.087 A 
ATOM     25 CL   UNL d   1     -42.325-121.978 -55.632  0.00  0.00    -0.075 Cl
ATOM     26  C   UNL d   1     -41.263-122.722 -54.917  0.00  0.00     0.019 A 
ATOM     27  C   UNL d   1     -41.154-123.018 -54.160  0.00  0.00     0.013 A 
ENDBRANCH   2  22
TORSDOF 6
ENDMDL
MODEL 2
REMARK VINA RESULT:       3.7      1.926      4.543
REMARK  6 active torsions:
REMARK  status: ('A' for Active; 'I' for Inactive)
REMARK    1  A    between atoms: N_2  and  C_1 
REMARK       I    between atoms: C_4  and  N_2 
REMARK    2  A    between atoms: C_21  and  N_2 
REMARK    3  A    between atoms: C_6  and  C_4 
REMARK    4  A    between atoms: C_23  and  C_21 
REMARK    5  A    between atoms: C_25  and  C_23 
REMARK    6  A    between atoms: N_24  and  C_25 
ROOT
ATOM      1  N   UNL d   1     -41.666-122.551 -51.518  0.00  0.00    -0.252 N 
ATOM      2  C   UNL d   1     -42.012-123.201 -51.139  0.00  0.00     0.272 C 
ATOM      3  O   UNL d   1     -42.423-123.762 -51.568  0.00  0.00    -0.266 OA
ENDROOT
BRANCH   1   4
ATOM      4  C   UNL d   1     -41.742-122.475 -52.346  0.00  0.00     0.182 A 
ATOM      5  N   UNL d   1     -41.157-122.656 -52.902  0.00  0.00    -0.222 NA
ATOM      6  C   UNL d   1     -41.460-122.501 -53.657  0.00  0.00     0.092 A 
ATOM      7  C   UNL d   1     -41.134-122.577 -54.398  0.00  0.00     0.046 A 
ATOM      8  C   UNL d   1     -42.231-122.225 -53.564  0.00  0.00     0.052 A 
ATOM      9  C   UNL d   1     -41.571-122.379 -55.070  0.00  0.00     0.121 A 
ATOM     10  O   UNL d   1     -41.400-122.395 -55.866  0.00  0.00    -0.299 OA
ATOM     11  C   UNL d   1     -42.338-122.104 -54.976  0.00  0.00     0.120 A 
ATOM     12  C   UNL d   1     -42.063-122.129 -56.272  0.00  0.00     0.304 A 
ATOM     13  O   UNL d   1     -42.643-121.948 -55.728  0.00  0.00    -0.300 OA
ATOM     14  C   UNL d   1     -42.674-122.025 -54.226  0.00  0.00     0.034 A 
ATOM     15  S   UNL d   1     -42.411-122.206 -52.756  0.00  0.00    -0.048 SA
ENDBRANCH   1   4
BRANCH   1  16
ATOM     16  C   UNL d   1     -41.251-121.984 -51.084  0.00  0.00     0.086 C 
BRANCH  16  17
ATOM     17  C   UNL d   1     -41.164-121.216 -51.387  0.00  0.00     0.038 C 
BRANCH  17  18
ATOM     18  C   UNL d   1     -41.137-120.572 -50.871  0.00  0.00     0.082 C 
BRANCH  18  19
ATOM     19  N   UNL d   1     -41.131-119.803 -51.169  0.00  0.00    -0.300 N 
ATOM     20  C   UNL d   1     -41.132-119.163 -50.650  0.00  0.00     0.100 C 
ATOM     21  C   UNL d   1     -41.124-119.676 -51.984  0.00  0.00     0.100 C 
ENDBRANCH  18  19
ENDBRANCH  17  18
ENDBRANCH  16  17
ENDBRANCH   1  16
BRANCH   2  22
ATOM     22  C   UNL d   1     -41.935-123.273 -50.318  0.00  0.00     0.087 A 
ATOM     23  S   UNL d   1     -42.520-123.113 -49.744  0.00  0.00    -0.071 SA
ATOM     24  C   UNL d   1     -42.188-123.264 -48.999  0.00  0.00     0.087 A 
ATOM     25 CL   UNL d   1     -42.572-123.180 -48.254  0.00  0.00    -0.075 Cl
ATOM     26  C   UNL d   1     -41.414-123.513 -49.114  0.00  0.00     0.019 A 
ATOM     27  C   UNL d   1     -41.256-123.519 -49.918  0.00  0.00     0.013 A 
ENDBRANCH   2  22
TORSDOF 6
ENDMDL
