MODEL 1
REMARK VINA RESULT:      -2.7      0.000      0.000
REMARK  4 active torsions:
REMARK  status: ('A' for Active; 'I' for Inactive)
REMARK    1  A    between atoms: C_8  and  C_1 
REMARK    2  A    between atoms: C_10  and  C_5 
REMARK    3  A    between atoms: N_9  and  C_10 
REMARK    4  A    between atoms: O_19  and  C_14 
ROOT
ATOM      1  C   UNL d   1      33.204  20.667 -22.477  0.00  0.00     0.066 A 
ATOM      2  C   UNL d   1      33.219  20.664 -23.302  0.00  0.00     0.200 A 
ATOM      3  C   UNL d   1      33.201  19.235 -23.306  0.00  0.00     0.108 A 
ATOM      4  C   UNL d   1      33.218  19.961 -23.719  0.00  0.00     0.062 A 
ATOM      5  C   UNL d   1      33.200  18.537 -23.732  0.00  0.00     0.079 A 
ATOM      6  C   UNL d   1      33.187  19.941 -22.064  0.00  0.00     0.126 A 
ATOM      7  O   UNL d   1      33.185  19.229 -22.471  0.00  0.00    -0.305 OA
ATOM      8  C   UNL d   1      33.234  19.959 -24.540  0.00  0.00     0.009 A 
ATOM      9  C   UNL d   1      33.215  18.528 -24.548  0.00  0.00     0.199 A 
ATOM     10  O   UNL d   1      33.236  21.378 -23.708  0.00  0.00    -0.286 OA
ATOM     11  C   UNL d   1      33.233  19.254 -24.961  0.00  0.00     0.042 A 
ATOM     12  O   UNL d   1      33.214  17.835 -24.966  0.00  0.00    -0.286 OA
ENDROOT
BRANCH   1  13
ATOM     13  C   UNL d   1      33.205  21.430 -22.027  0.00  0.00     0.027 A 
ATOM     14  C   UNL d   1      33.223  21.420 -21.146  0.00  0.00     0.094 A 
ATOM     15  C   UNL d   1      33.225  22.193 -20.679  0.00  0.00     0.024 A 
ATOM     16  C   UNL d   1      33.208  22.966 -21.129  0.00  0.00     0.002 A 
ATOM     17  C   UNL d   1      33.189  22.976 -22.009  0.00  0.00     0.000 A 
ATOM     18  C   UNL d   1      33.188  22.213 -22.472  0.00  0.00     0.002 A 
BRANCH  14  19
ATOM     19  O   UNL d   1      33.241  20.647 -20.697  0.00  0.00    -0.328 OA
ATOM     20  C   UNL d   1      33.237  20.637 -19.807  0.00  0.00     0.181 C 
ENDBRANCH  14  19
ENDBRANCH   1  13
BRANCH   5  21
ATOM     21  C   UNL d   1      33.183  17.815 -23.321  0.00  0.00     0.085 C 
BRANCH  21  22
ATOM     22  N   UNL d   1      32.572  17.280 -23.460  0.00  0.00    -0.302 N 
ATOM     23  C   UNL d   1      32.747  16.508 -23.667  0.00  0.00     0.080 A 
ATOM     24  C   UNL d   1      32.141  15.978 -23.805  0.00  0.00     0.019 A 
ATOM     25  C   UNL d   1      31.357  16.211 -23.737  0.00  0.00     0.003 A 
ATOM     26  C   UNL d   1      31.181  16.983 -23.529  0.00  0.00     0.019 A 
ATOM     27  C   UNL d   1      30.754  15.682 -23.874  0.00  0.00     0.000 C 
ATOM     28  C   UNL d   1      31.778  17.515 -23.391  0.00  0.00     0.080 A 
ENDBRANCH  21  22
ENDBRANCH   5  21
TORSDOF 4
ENDMDL
MODEL 2
REMARK VINA RESULT:      -2.5      2.392      5.383
REMARK  4 active torsions:
REMARK  status: ('A' for Active; 'I' for Inactive)
REMARK    1  A    between atoms: C_8  and  C_1 
REMARK    2  A    between atoms: C_10  and  C_5 
REMARK    3  A    between atoms: N_9  and  C_10 
REMARK    4  A    between atoms: O_19  and  C_14 
ROOT
ATOM      1  C   UNL d   1      29.607  16.201 -23.646  0.00  0.00     0.066 A 
ATOM      2  C   UNL d   1      29.970  15.849 -24.298  0.00  0.00     0.200 A 
ATOM      3  C   UNL d   1      31.257  16.185 -23.777  0.00  0.00     0.108 A 
ATOM      4  C   UNL d   1      30.784  15.837 -24.371  0.00  0.00     0.062 A 
ATOM      5  C   UNL d   1      32.070  16.168 -23.858  0.00  0.00     0.079 A 
ATOM      6  C   UNL d   1      30.081  16.549 -23.052  0.00  0.00     0.126 A 
ATOM      7  O   UNL d   1      30.899  16.543 -23.113  0.00  0.00    -0.305 OA
ATOM      8  C   UNL d   1      31.143  15.487 -25.021  0.00  0.00     0.009 A 
ATOM      9  C   UNL d   1      32.434  15.822 -24.502  0.00  0.00     0.199 A 
ATOM     10  O   UNL d   1      29.504  15.507 -24.883  0.00  0.00    -0.286 OA
ATOM     11  C   UNL d   1      31.960  15.474 -25.096  0.00  0.00     0.042 A 
ATOM     12  O   UNL d   1      33.239  15.807 -24.579  0.00  0.00    -0.286 OA
ENDROOT
BRANCH   1  13
ATOM     13  C   UNL d   1      28.725  16.213 -23.569  0.00  0.00     0.027 A 
ATOM     14  C   UNL d   1      28.285  16.967 -23.683  0.00  0.00     0.094 A 
ATOM     15  C   UNL d   1      27.386  16.989 -23.607  0.00  0.00     0.024 A 
ATOM     16  C   UNL d   1      26.952  16.231 -23.415  0.00  0.00     0.002 A 
ATOM     17  C   UNL d   1      27.393  15.476 -23.302  0.00  0.00     0.000 A 
ATOM     18  C   UNL d   1      28.281  15.453 -23.376  0.00  0.00     0.002 A 
BRANCH  14  19
ATOM     19  O   UNL d   1      28.718  17.726 -23.875  0.00  0.00    -0.328 OA
ATOM     20  C   UNL d   1      28.286  18.504 -23.899  0.00  0.00     0.181 C 
ENDBRANCH  14  19
ENDBRANCH   1  13
BRANCH   5  21
ATOM     21  C   UNL d   1      32.541  16.514 -23.268  0.00  0.00     0.085 C 
BRANCH  21  22
ATOM     22  N   UNL d   1      32.717  17.318 -23.303  0.00  0.00    -0.302 N 
ATOM     23  C   UNL d   1      32.635  17.782 -22.634  0.00  0.00     0.080 A 
ATOM     24  C   UNL d   1      32.810  18.579 -22.670  0.00  0.00     0.019 A 
ATOM     25  C   UNL d   1      33.066  18.921 -23.371  0.00  0.00     0.003 A 
ATOM     26  C   UNL d   1      33.147  18.458 -24.040  0.00  0.00     0.019 A 
ATOM     27  C   UNL d   1      33.239  19.716 -23.405  0.00  0.00     0.000 C 
ATOM     28  C   UNL d   1      32.976  17.665 -24.012  0.00  0.00     0.080 A 
ENDBRANCH  21  22
ENDBRANCH   5  21
TORSDOF 4
ENDMDL
MODEL 3
REMARK VINA RESULT:      -2.1      1.315      4.824
REMARK  4 active torsions:
REMARK  status: ('A' for Active; 'I' for Inactive)
REMARK    1  A    between atoms: C_8  and  C_1 
REMARK    2  A    between atoms: C_10  and  C_5 
REMARK    3  A    between atoms: N_9  and  C_10 
REMARK    4  A    between atoms: O_19  and  C_14 
ROOT
ATOM      1  C   UNL d   1      31.652  17.779 -23.772  0.00  0.00     0.066 A 
ATOM      2  C   UNL d   1      31.660  18.328 -24.387  0.00  0.00     0.200 A 
ATOM      3  C   UNL d   1      32.442  19.222 -23.593  0.00  0.00     0.108 A 
ATOM      4  C   UNL d   1      32.048  19.043 -24.307  0.00  0.00     0.062 A 
ATOM      5  C   UNL d   1      32.827  19.939 -23.522  0.00  0.00     0.079 A 
ATOM      6  C   UNL d   1      32.046  17.958 -23.058  0.00  0.00     0.126 A 
ATOM      7  O   UNL d   1      32.439  18.672 -22.965  0.00  0.00    -0.305 OA
ATOM      8  C   UNL d   1      32.055  19.589 -24.921  0.00  0.00     0.009 A 
ATOM      9  C   UNL d   1      32.838  20.486 -24.128  0.00  0.00     0.199 A 
ATOM     10  O   UNL d   1      31.271  18.153 -25.090  0.00  0.00    -0.286 OA
ATOM     11  C   UNL d   1      32.444  20.308 -24.842  0.00  0.00     0.042 A 
ATOM     12  O   UNL d   1      33.221  21.196 -24.054  0.00  0.00    -0.286 OA
ENDROOT
BRANCH   1  13
ATOM     13  C   UNL d   1      31.230  17.005 -23.861  0.00  0.00     0.027 A 
ATOM     14  C   UNL d   1      31.671  16.295 -24.141  0.00  0.00     0.094 A 
ATOM     15  C   UNL d   1      31.250  15.502 -24.236  0.00  0.00     0.024 A 
ATOM     16  C   UNL d   1      30.379  15.453 -24.039  0.00  0.00     0.002 A 
ATOM     17  C   UNL d   1      29.938  16.162 -23.759  0.00  0.00     0.000 A 
ATOM     18  C   UNL d   1      30.353  16.946 -23.665  0.00  0.00     0.002 A 
BRANCH  14  19
ATOM     19  O   UNL d   1      32.542  16.345 -24.338  0.00  0.00    -0.328 OA
ATOM     20  C   UNL d   1      33.069  15.632 -24.260  0.00  0.00     0.181 C 
ENDBRANCH  14  19
ENDBRANCH   1  13
BRANCH   5  21
ATOM     21  C   UNL d   1      33.220  20.117 -22.812  0.00  0.00     0.085 C 
BRANCH  21  22
ATOM     22  N   UNL d   1      32.872  20.631 -22.270  0.00  0.00    -0.302 N 
ATOM     23  C   UNL d   1      32.740  21.411 -22.477  0.00  0.00     0.080 A 
ATOM     24  C   UNL d   1      32.394  21.920 -21.938  0.00  0.00     0.019 A 
ATOM     25  C   UNL d   1      32.179  21.657 -21.191  0.00  0.00     0.003 A 
ATOM     26  C   UNL d   1      32.311  20.877 -20.984  0.00  0.00     0.019 A 
ATOM     27  C   UNL d   1      31.835  22.165 -20.656  0.00  0.00     0.000 C 
ATOM     28  C   UNL d   1      32.653  20.366 -21.513  0.00  0.00     0.080 A 
ENDBRANCH  21  22
ENDBRANCH   5  21
TORSDOF 4
ENDMDL
MODEL 4
REMARK VINA RESULT:      -0.6      1.663      4.806
REMARK  4 active torsions:
REMARK  status: ('A' for Active; 'I' for Inactive)
REMARK    1  A    between atoms: C_8  and  C_1 
REMARK    2  A    between atoms: C_10  and  C_5 
REMARK    3  A    between atoms: N_9  and  C_10 
REMARK    4  A    between atoms: O_19  and  C_14 
ROOT
ATOM      1  C   UNL d   1      30.651  17.222 -23.985  0.00  0.00     0.066 A 
ATOM      2  C   UNL d   1      30.677  17.847 -24.523  0.00  0.00     0.200 A 
ATOM      3  C   UNL d   1      31.949  18.248 -24.009  0.00  0.00     0.108 A 
ATOM      4  C   UNL d   1      31.314  18.359 -24.541  0.00  0.00     0.062 A 
ATOM      5  C   UNL d   1      32.581  18.765 -24.035  0.00  0.00     0.079 A 
ATOM      6  C   UNL d   1      31.285  17.112 -23.453  0.00  0.00     0.126 A 
ATOM      7  O   UNL d   1      31.930  17.618 -23.462  0.00  0.00    -0.305 OA
ATOM      8  C   UNL d   1      31.339  18.981 -25.077  0.00  0.00     0.009 A 
ATOM      9  C   UNL d   1      32.612  19.385 -24.565  0.00  0.00     0.199 A 
ATOM     10  O   UNL d   1      30.053  17.956 -25.046  0.00  0.00    -0.286 OA
ATOM     11  C   UNL d   1      31.978  19.495 -25.097  0.00  0.00     0.042 A 
ATOM     12  O   UNL d   1      33.241  19.895 -24.588  0.00  0.00    -0.286 OA
ENDROOT
BRANCH   1  13
ATOM     13  C   UNL d   1      29.959  16.669 -23.967  0.00  0.00     0.027 A 
ATOM     14  C   UNL d   1      29.877  16.090 -23.308  0.00  0.00     0.094 A 
ATOM     15  C   UNL d   1      29.175  15.523 -23.281  0.00  0.00     0.024 A 
ATOM     16  C   UNL d   1      28.567  15.561 -23.936  0.00  0.00     0.002 A 
ATOM     17  C   UNL d   1      28.649  16.139 -24.595  0.00  0.00     0.000 A 
ATOM     18  C   UNL d   1      29.342  16.701 -24.623  0.00  0.00     0.002 A 
BRANCH  14  19
ATOM     19  O   UNL d   1      30.485  16.053 -22.653  0.00  0.00    -0.328 OA
ATOM     20  C   UNL d   1      30.362  15.525 -21.947  0.00  0.00     0.181 C 
ENDBRANCH  14  19
ENDBRANCH   1  13
BRANCH   5  21
ATOM     21  C   UNL d   1      33.213  18.655 -23.506  0.00  0.00     0.085 C 
BRANCH  21  22
ATOM     22  N   UNL d   1      33.210  19.044 -22.780  0.00  0.00    -0.302 N 
ATOM     23  C   UNL d   1      33.176  19.861 -22.757  0.00  0.00     0.080 A 
ATOM     24  C   UNL d   1      33.174  20.247 -22.036  0.00  0.00     0.019 A 
ATOM     25  C   UNL d   1      33.204  19.823 -21.334  0.00  0.00     0.003 A 
ATOM     26  C   UNL d   1      33.238  19.006 -21.357  0.00  0.00     0.019 A 
ATOM     27  C   UNL d   1      33.202  20.208 -20.617  0.00  0.00     0.000 C 
ATOM     28  C   UNL d   1      33.241  18.616 -22.069  0.00  0.00     0.080 A 
ENDBRANCH  21  22
ENDBRANCH   5  21
TORSDOF 4
ENDMDL
