MODEL 1
REMARK VINA RESULT:      -5.4      0.000      0.000
REMARK  4 active torsions:
REMARK  status: ('A' for Active; 'I' for Inactive)
REMARK    1  A    between atoms: N_3  and  C_1 
REMARK       I    between atoms: C_5  and  N_3 
REMARK    2  A    between atoms: C_7  and  C_5 
REMARK    3  A    between atoms: C_9  and  C_12 
REMARK    4  A    between atoms: O_18  and  C_9 
ROOT
ATOM      1  C   UNL d   1     -41.142-123.302 -50.155  0.00  0.00     0.197 A 
ATOM      2  N   UNL d   1     -41.144-122.509 -50.416  0.00  0.00    -0.221 NA
ATOM      3  S   UNL d   1     -41.161-123.786 -50.821  0.00  0.00    -0.047 SA
ATOM      4  C   UNL d   1     -41.176-123.309 -51.497  0.00  0.00     0.050 A 
ATOM      5  C   UNL d   1     -41.165-122.513 -51.245  0.00  0.00     0.090 A 
ATOM      6  C   UNL d   1     -41.208-122.880 -52.849  0.00  0.00     0.064 A 
ATOM      7  C   UNL d   1     -41.197-123.487 -52.302  0.00  0.00     0.013 A 
ATOM      8  C   UNL d   1     -41.176-121.911 -51.803  0.00  0.00     0.020 A 
ATOM      9  C   UNL d   1     -41.197-122.084 -52.597  0.00  0.00     0.007 A 
ENDROOT
BRANCH   1  10
ATOM     10  N   UNL d   1     -41.124-123.552 -49.366  0.00  0.00    -0.183 NA
ATOM     11  C   UNL d   1     -41.814-123.549 -48.916  0.00  0.00     0.281 C 
ATOM     12  O   UNL d   1     -41.796-123.797 -48.132  0.00  0.00    -0.265 OA
BRANCH  11  13
ATOM     13  C   UNL d   1     -42.524-123.296 -49.252  0.00  0.00     0.058 A 
ATOM     14  C   UNL d   1     -43.045-122.687 -49.451  0.00  0.00     0.005 A 
ATOM     15  C   UNL d   1     -43.231-123.467 -49.636  0.00  0.00     0.005 A 
ENDBRANCH  11  13
ENDBRANCH   1  10
BRANCH   6  16
ATOM     16  C   UNL d   1     -41.229-123.044 -53.659  0.00  0.00     0.296 C 
ATOM     17  O   UNL d   1     -41.234-123.816 -53.928  0.00  0.00    -0.259 OA
BRANCH  16  18
ATOM     18  O   UNL d   1     -41.246-122.411 -54.198  0.00  0.00    -0.296 OA
ATOM     19  C   UNL d   1     -41.550-122.528 -54.951  0.00  0.00     0.185 C 
ENDBRANCH  16  18
ENDBRANCH   6  16
TORSDOF 4
ENDMDL
MODEL 2
REMARK VINA RESULT:      -4.7      1.583      4.172
REMARK  4 active torsions:
REMARK  status: ('A' for Active; 'I' for Inactive)
REMARK    1  A    between atoms: N_3  and  C_1 
REMARK       I    between atoms: C_5  and  N_3 
REMARK    2  A    between atoms: C_7  and  C_5 
REMARK    3  A    between atoms: C_9  and  C_12 
REMARK    4  A    between atoms: O_18  and  C_9 
ROOT
ATOM      1  C   UNL d   1     -41.233-122.726 -53.573  0.00  0.00     0.197 A 
ATOM      2  N   UNL d   1     -41.134-122.016 -53.144  0.00  0.00    -0.221 NA
ATOM      3  S   UNL d   1     -41.456-123.313 -53.040  0.00  0.00    -0.047 SA
ATOM      4  C   UNL d   1     -41.498-122.983 -52.282  0.00  0.00     0.050 A 
ATOM      5  C   UNL d   1     -41.297-122.175 -52.347  0.00  0.00     0.090 A 
ATOM      6  C   UNL d   1     -41.681-122.825 -50.884  0.00  0.00     0.064 A 
ATOM      7  C   UNL d   1     -41.689-123.303 -51.547  0.00  0.00     0.013 A 
ATOM      8  C   UNL d   1     -41.292-121.704 -51.675  0.00  0.00     0.020 A 
ATOM      9  C   UNL d   1     -41.480-122.017 -50.949  0.00  0.00     0.007 A 
ENDROOT
BRANCH   1  10
ATOM     10  N   UNL d   1     -41.126-122.818 -54.388  0.00  0.00    -0.183 NA
ATOM     11  C   UNL d   1     -41.646-122.456 -54.917  0.00  0.00     0.281 C 
ATOM     12  O   UNL d   1     -41.540-122.547 -55.727  0.00  0.00    -0.265 OA
BRANCH  11  13
ATOM     13  C   UNL d   1     -42.273-122.002 -54.631  0.00  0.00     0.058 A 
ATOM     14  C   UNL d   1     -42.596-121.267 -54.441  0.00  0.00     0.005 A 
ATOM     15  C   UNL d   1     -43.036-121.953 -54.326  0.00  0.00     0.005 A 
ENDBRANCH  11  13
ENDBRANCH   1  10
BRANCH   6  16
ATOM     16  C   UNL d   1     -41.871-123.133 -50.140  0.00  0.00     0.296 C 
ATOM     17  O   UNL d   1     -42.639-123.350 -49.964  0.00  0.00    -0.259 OA
BRANCH  16  18
ATOM     18  O   UNL d   1     -41.269-123.218 -49.574  0.00  0.00    -0.296 OA
ATOM     19  C   UNL d   1     -41.465-123.417 -48.802  0.00  0.00     0.185 C 
ENDBRANCH  16  18
ENDBRANCH   6  16
TORSDOF 4
ENDMDL
MODEL 3
REMARK VINA RESULT:      -3.0      1.884      4.331
REMARK  4 active torsions:
REMARK  status: ('A' for Active; 'I' for Inactive)
REMARK    1  A    between atoms: N_3  and  C_1 
REMARK       I    between atoms: C_5  and  N_3 
REMARK    2  A    between atoms: C_7  and  C_5 
REMARK    3  A    between atoms: C_9  and  C_12 
REMARK    4  A    between atoms: O_18  and  C_9 
ROOT
ATOM      1  C   UNL d   1     -41.209-122.760 -53.991  0.00  0.00     0.197 A 
ATOM      2  N   UNL d   1     -41.221-123.490 -53.584  0.00  0.00    -0.221 NA
ATOM      3  S   UNL d   1     -41.280-122.160 -53.431  0.00  0.00    -0.047 SA
ATOM      4  C   UNL d   1     -41.336-122.501 -52.679  0.00  0.00     0.050 A 
ATOM      5  C   UNL d   1     -41.300-123.330 -52.775  0.00  0.00     0.090 A 
ATOM      6  C   UNL d   1     -41.458-122.669 -51.275  0.00  0.00     0.064 A 
ATOM      7  C   UNL d   1     -41.416-122.176 -51.926  0.00  0.00     0.013 A 
ATOM      8  C   UNL d   1     -41.343-123.816 -52.115  0.00  0.00     0.020 A 
ATOM      9  C   UNL d   1     -41.421-123.497 -51.371  0.00  0.00     0.007 A 
ENDROOT
BRANCH   1  10
ATOM     10  N   UNL d   1     -41.138-122.663 -54.809  0.00  0.00    -0.183 NA
ATOM     11  C   UNL d   1     -41.726-122.268 -55.230  0.00  0.00     0.281 C 
ATOM     12  O   UNL d   1     -41.656-122.171 -56.044  0.00  0.00    -0.265 OA
BRANCH  11  13
ATOM     13  C   UNL d   1     -42.386-121.970 -54.835  0.00  0.00     0.058 A 
ATOM     14  C   UNL d   1     -43.137-122.081 -54.512  0.00  0.00     0.005 A 
ATOM     15  C   UNL d   1     -42.776-121.342 -54.472  0.00  0.00     0.005 A 
ENDBRANCH  11  13
ENDBRANCH   1  10
BRANCH   6  16
ATOM     16  C   UNL d   1     -41.538-122.356 -50.514  0.00  0.00     0.296 C 
ATOM     17  O   UNL d   1     -41.224-121.623 -50.331  0.00  0.00    -0.259 OA
BRANCH  16  18
ATOM     18  O   UNL d   1     -41.941-122.797 -49.937  0.00  0.00    -0.296 OA
ATOM     19  C   UNL d   1     -42.232-122.420 -49.269  0.00  0.00     0.185 C 
ENDBRANCH  16  18
ENDBRANCH   6  16
TORSDOF 4
ENDMDL
