MODEL 1
REMARK VINA RESULT:      19.6      0.000      0.000
REMARK  6 active torsions:
REMARK  status: ('A' for Active; 'I' for Inactive)
REMARK    1  A    between atoms: C_2  and  C_1 
REMARK    2  A    between atoms: C_4  and  C_1 
REMARK    3  A    between atoms: C_6  and  C_2 
REMARK    4  A    between atoms: O_12  and  C_3 
REMARK    5  A    between atoms: C_8  and  C_4 
REMARK    6  A    between atoms: O_13  and  C_10 
ROOT
ATOM      1  C   UNL d   1      13.043  12.746  -4.528  0.00  0.00     0.096 A 
ATOM      2  C   UNL d   1      12.939  13.464  -4.921  0.00  0.00     0.048 A 
ATOM      3  C   UNL d   1      13.196  12.739  -3.717  0.00  0.00     0.022 A 
ATOM      4  C   UNL d   1      13.246  13.449  -3.296  0.00  0.00     0.004 A 
ATOM      5  C   UNL d   1      12.989  14.176  -4.503  0.00  0.00     0.096 A 
ATOM      6  C   UNL d   1      13.142  14.168  -3.688  0.00  0.00     0.024 A 
ENDROOT
BRANCH   3   7
ATOM      7  C   UNL d   1      13.300  12.022  -3.326  0.00  0.00     0.005 C 
BRANCH   7   8
ATOM      8  C   UNL d   1      13.500  12.016  -2.524  0.00  0.00     0.042 C 
BRANCH   8   9
ATOM      9  C   UNL d   1      14.286  12.024  -2.286  0.00  0.00     0.196 C 
ATOM     10  O   UNL d   1      14.879  11.780  -2.809  0.00  0.00    -0.287 OA
BRANCH   9  11
ATOM     11  C   UNL d   1      14.490  12.274  -1.530  0.00  0.00     0.039 A 
ATOM     12  C   UNL d   1      14.134  11.934  -0.869  0.00  0.00     0.003 A 
ATOM     13  C   UNL d   1      14.350  12.197  -0.110  0.00  0.00     0.000 A 
ATOM     14  C   UNL d   1      14.914  12.793  -0.014  0.00  0.00     0.000 A 
ATOM     15  C   UNL d   1      15.271  13.133  -0.683  0.00  0.00     0.000 A 
ATOM     16  C   UNL d   1      15.061  12.876  -1.433  0.00  0.00     0.003 A 
ENDBRANCH   9  11
ENDBRANCH   8   9
ENDBRANCH   7   8
ENDBRANCH   3   7
BRANCH   1  17
ATOM     17  O   UNL d   1      12.994  12.035  -4.946  0.00  0.00    -0.328 OA
ATOM     18  C   UNL d   1      13.380  11.954  -5.671  0.00  0.00     0.181 C 
ENDBRANCH   1  17
BRANCH   5  19
ATOM     19  O   UNL d   1      12.885  14.895  -4.895  0.00  0.00    -0.328 OA
ATOM     20  C   UNL d   1      13.407  15.520  -4.758  0.00  0.00     0.181 C 
ENDBRANCH   5  19
TORSDOF 6
ENDMDL
