MODEL 1
REMARK VINA RESULT:      -8.4      0.000      0.000
REMARK  6 active torsions:
REMARK  status: ('A' for Active; 'I' for Inactive)
REMARK    1  A    between atoms: N_5  and  C_1 
REMARK    2  A    between atoms: N_14  and  C_3 
REMARK    3  A    between atoms: N_9  and  C_20 
REMARK    4  A    between atoms: C_22  and  N_14 
REMARK    5  A    between atoms: C_20  and  C_21 
REMARK    6  A    between atoms: C_21  and  C_22 
ROOT
ATOM      1  C   UNL d   1      53.102  34.462  54.104  0.00  0.00     0.200 A 
ATOM      2  C   UNL d   1      53.656  34.177  54.651  0.00  0.00     0.288 A 
ATOM      3  C   UNL d   1      52.760  33.954  53.548  0.00  0.00     0.109 A 
ATOM      4  N   UNL d   1      53.870  33.383  54.645  0.00  0.00    -0.270 N 
ATOM      5  C   UNL d   1      52.980  33.157  53.547  0.00  0.00     0.036 A 
ATOM      6  C   UNL d   1      53.531  32.868  54.091  0.00  0.00     0.069 A 
ATOM      7  O   UNL d   1      53.991  34.688  55.202  0.00  0.00    -0.265 OA
ATOM      8  C   UNL d   1      54.420  33.095  55.189  0.00  0.00     0.102 C 
ATOM      9  C   UNL d   1      52.644  32.641  52.995  0.00  0.00     0.003 A 
ATOM     10  C   UNL d   1      53.747  32.073  54.087  0.00  0.00     0.018 A 
ATOM     11  C   UNL d   1      52.858  31.847  52.989  0.00  0.00     0.000 A 
ATOM     12  C   UNL d   1      53.412  31.562  53.537  0.00  0.00     0.002 A 
ENDROOT
BRANCH   3  13
ATOM     13  N   UNL d   1      52.210  34.237  53.003  0.00  0.00    -0.242 NA
BRANCH  13  14
ATOM     14  C   UNL d   1      51.408  34.090  53.112  0.00  0.00     0.101 C 
BRANCH  14  15
ATOM     15  C   UNL d   1      50.863  34.321  52.533  0.00  0.00     0.040 C 
BRANCH  15  16
ATOM     16  C   UNL d   1      50.060  34.342  52.710  0.00  0.00     0.083 C 
BRANCH  16  17
ATOM     17  N   UNL d   1      49.509  34.536  52.121  0.00  0.00    -0.285 N 
ATOM     18  C   UNL d   1      49.535  34.289  51.336  0.00  0.00     0.183 A 
ATOM     19  N   UNL d   1      48.882  34.612  50.952  0.00  0.00    -0.222 NA
ATOM     20  C   UNL d   1      48.458  35.057  51.500  0.00  0.00     0.120 A 
ATOM     21  C   UNL d   1      48.842  35.011  52.218  0.00  0.00     0.102 A 
ENDBRANCH  16  17
ENDBRANCH  15  16
ENDBRANCH  14  15
ENDBRANCH  13  14
ENDBRANCH   3  13
BRANCH   1  22
ATOM     22  N   UNL d   1      52.892  35.262  54.116  0.00  0.00    -0.107 N 
ATOM     23  O   UNL d   1      52.355  35.544  54.673  0.00  0.00    -0.531 OA
ATOM     24  O   UNL d   1      53.224  35.781  53.561  0.00  0.00    -0.531 OA
ENDBRANCH   1  22
TORSDOF 6
ENDMDL
MODEL 2
REMARK VINA RESULT:      -8.4      1.918      4.225
REMARK  6 active torsions:
REMARK  status: ('A' for Active; 'I' for Inactive)
REMARK    1  A    between atoms: N_5  and  C_1 
REMARK    2  A    between atoms: N_14  and  C_3 
REMARK    3  A    between atoms: N_9  and  C_20 
REMARK    4  A    between atoms: C_22  and  N_14 
REMARK    5  A    between atoms: C_20  and  C_21 
REMARK    6  A    between atoms: C_21  and  C_22 
ROOT
ATOM      1  C   UNL d   1      53.845  33.592  54.386  0.00  0.00     0.200 A 
ATOM      2  C   UNL d   1      53.612  34.350  54.625  0.00  0.00     0.288 A 
ATOM      3  C   UNL d   1      53.454  33.207  53.766  0.00  0.00     0.109 A 
ATOM      4  N   UNL d   1      52.987  34.728  54.247  0.00  0.00    -0.270 N 
ATOM      5  C   UNL d   1      52.826  33.593  53.391  0.00  0.00     0.036 A 
ATOM      6  C   UNL d   1      52.591  34.348  53.626  0.00  0.00     0.069 A 
ATOM      7  O   UNL d   1      54.006  34.726  55.242  0.00  0.00    -0.265 OA
ATOM      8  C   UNL d   1      52.752  35.482  54.483  0.00  0.00     0.102 C 
ATOM      9  C   UNL d   1      52.429  33.216  52.771  0.00  0.00     0.003 A 
ATOM     10  C   UNL d   1      51.964  34.729  53.249  0.00  0.00     0.018 A 
ATOM     11  C   UNL d   1      51.804  33.594  52.393  0.00  0.00     0.000 A 
ATOM     12  C   UNL d   1      51.571  34.353  52.632  0.00  0.00     0.002 A 
ENDROOT
BRANCH   3  13
ATOM     13  N   UNL d   1      53.686  32.453  53.528  0.00  0.00    -0.242 NA
BRANCH  13  14
ATOM     14  C   UNL d   1      53.195  31.807  53.665  0.00  0.00     0.101 C 
BRANCH  14  15
ATOM     15  C   UNL d   1      53.502  31.040  53.631  0.00  0.00     0.040 C 
BRANCH  15  16
ATOM     16  C   UNL d   1      52.992  30.394  53.610  0.00  0.00     0.083 C 
BRANCH  16  17
ATOM     17  N   UNL d   1      53.170  29.710  54.046  0.00  0.00    -0.285 N 
ATOM     18  C   UNL d   1      52.897  29.536  54.803  0.00  0.00     0.183 A 
ATOM     19  N   UNL d   1      53.210  28.805  55.019  0.00  0.00    -0.222 NA
ATOM     20  C   UNL d   1      53.674  28.533  54.395  0.00  0.00     0.120 A 
ATOM     21  C   UNL d   1      53.650  29.088  53.797  0.00  0.00     0.102 A 
ENDBRANCH  16  17
ENDBRANCH  15  16
ENDBRANCH  14  15
ENDBRANCH  13  14
ENDBRANCH   3  13
BRANCH   1  22
ATOM     22  N   UNL d   1      54.475  33.218  54.771  0.00  0.00    -0.107 N 
ATOM     23  O   UNL d   1      54.355  32.829  55.487  0.00  0.00    -0.531 OA
ATOM     24  O   UNL d   1      55.231  33.236  54.430  0.00  0.00    -0.531 OA
ENDBRANCH   1  22
TORSDOF 6
ENDMDL
MODEL 3
REMARK VINA RESULT:      -8.1      1.507      2.119
REMARK  6 active torsions:
REMARK  status: ('A' for Active; 'I' for Inactive)
REMARK    1  A    between atoms: N_5  and  C_1 
REMARK    2  A    between atoms: N_14  and  C_3 
REMARK    3  A    between atoms: N_9  and  C_20 
REMARK    4  A    between atoms: C_22  and  N_14 
REMARK    5  A    between atoms: C_20  and  C_21 
REMARK    6  A    between atoms: C_21  and  C_22 
ROOT
ATOM      1  C   UNL d   1      52.775  32.669  53.443  0.00  0.00     0.200 A 
ATOM      2  C   UNL d   1      53.324  32.467  54.031  0.00  0.00     0.288 A 
ATOM      3  C   UNL d   1      52.538  33.455  53.341  0.00  0.00     0.109 A 
ATOM      4  N   UNL d   1      53.639  33.049  54.519  0.00  0.00    -0.270 N 
ATOM      5  C   UNL d   1      52.859  34.035  53.836  0.00  0.00     0.036 A 
ATOM      6  C   UNL d   1      53.405  33.839  54.422  0.00  0.00     0.069 A 
ATOM      7  O   UNL d   1      53.555  31.683  54.126  0.00  0.00    -0.265 OA
ATOM      8  C   UNL d   1      54.185  32.852  55.104  0.00  0.00     0.102 C 
ATOM      9  C   UNL d   1      52.628  34.824  53.742  0.00  0.00     0.003 A 
ATOM     10  C   UNL d   1      53.722  34.420  54.913  0.00  0.00     0.018 A 
ATOM     11  C   UNL d   1      52.942  35.406  54.230  0.00  0.00     0.000 A 
ATOM     12  C   UNL d   1      53.491  35.204  54.817  0.00  0.00     0.002 A 
ENDROOT
BRANCH   3  13
ATOM     13  N   UNL d   1      51.992  33.656  52.758  0.00  0.00    -0.242 NA
BRANCH  13  14
ATOM     14  C   UNL d   1      51.226  33.873  52.966  0.00  0.00     0.101 C 
BRANCH  14  15
ATOM     15  C   UNL d   1      50.693  34.118  52.382  0.00  0.00     0.040 C 
BRANCH  15  16
ATOM     16  C   UNL d   1      49.936  34.360  52.593  0.00  0.00     0.083 C 
BRANCH  16  17
ATOM     17  N   UNL d   1      49.382  34.553  52.005  0.00  0.00    -0.285 N 
ATOM     18  C   UNL d   1      49.420  34.328  51.215  0.00  0.00     0.183 A 
ATOM     19  N   UNL d   1      48.759  34.641  50.835  0.00  0.00    -0.222 NA
ATOM     20  C   UNL d   1      48.318  35.056  51.392  0.00  0.00     0.120 A 
ATOM     21  C   UNL d   1      48.700  35.004  52.111  0.00  0.00     0.102 A 
ENDBRANCH  16  17
ENDBRANCH  15  16
ENDBRANCH  14  15
ENDBRANCH  13  14
ENDBRANCH   3  13
BRANCH   1  22
ATOM     22  N   UNL d   1      52.463  32.078  52.956  0.00  0.00    -0.107 N 
ATOM     23  O   UNL d   1      51.830  31.617  53.212  0.00  0.00    -0.531 OA
ATOM     24  O   UNL d   1      52.791  31.951  52.205  0.00  0.00    -0.531 OA
ENDBRANCH   1  22
TORSDOF 6
ENDMDL
MODEL 4
REMARK VINA RESULT:      -7.8      1.987      3.974
REMARK  6 active torsions:
REMARK  status: ('A' for Active; 'I' for Inactive)
REMARK    1  A    between atoms: N_5  and  C_1 
REMARK    2  A    between atoms: N_14  and  C_3 
REMARK    3  A    between atoms: N_9  and  C_20 
REMARK    4  A    between atoms: C_22  and  N_14 
REMARK    5  A    between atoms: C_20  and  C_21 
REMARK    6  A    between atoms: C_21  and  C_22 
ROOT
ATOM      1  C   UNL d   1      52.407  33.980  53.234  0.00  0.00     0.200 A 
ATOM      2  C   UNL d   1      52.357  34.683  53.670  0.00  0.00     0.288 A 
ATOM      3  C   UNL d   1      53.016  33.438  53.376  0.00  0.00     0.109 A 
ATOM      4  N   UNL d   1      52.916  34.848  54.251  0.00  0.00    -0.270 N 
ATOM      5  C   UNL d   1      53.574  33.610  53.962  0.00  0.00     0.036 A 
ATOM      6  C   UNL d   1      53.528  34.309  54.399  0.00  0.00     0.069 A 
ATOM      7  O   UNL d   1      51.749  35.217  53.522  0.00  0.00    -0.265 OA
ATOM      8  C   UNL d   1      52.869  35.546  54.687  0.00  0.00     0.102 C 
ATOM      9  C   UNL d   1      54.186  33.075  54.112  0.00  0.00     0.003 A 
ATOM     10  C   UNL d   1      54.086  34.477  54.982  0.00  0.00     0.018 A 
ATOM     11  C   UNL d   1      54.744  33.240  54.694  0.00  0.00     0.000 A 
ATOM     12  C   UNL d   1      54.694  33.943  55.130  0.00  0.00     0.002 A 
ENDROOT
BRANCH   3  13
ATOM     13  N   UNL d   1      53.066  32.739  52.943  0.00  0.00    -0.242 NA
BRANCH  13  14
ATOM     14  C   UNL d   1      52.754  32.041  53.247  0.00  0.00     0.101 C 
BRANCH  14  15
ATOM     15  C   UNL d   1      53.067  31.312  53.014  0.00  0.00     0.040 C 
BRANCH  15  16
ATOM     16  C   UNL d   1      52.602  30.634  53.049  0.00  0.00     0.083 C 
BRANCH  16  17
ATOM     17  N   UNL d   1      52.863  29.972  53.477  0.00  0.00    -0.285 N 
ATOM     18  C   UNL d   1      52.392  29.353  53.743  0.00  0.00     0.183 A 
ATOM     19  N   UNL d   1      52.880  28.821  54.140  0.00  0.00    -0.222 NA
ATOM     20  C   UNL d   1      53.648  29.114  54.116  0.00  0.00     0.120 A 
ATOM     21  C   UNL d   1      53.640  29.821  53.709  0.00  0.00     0.102 A 
ENDBRANCH  16  17
ENDBRANCH  15  16
ENDBRANCH  14  15
ENDBRANCH  13  14
ENDBRANCH   3  13
BRANCH   1  22
ATOM     22  N   UNL d   1      51.842  33.820  52.650  0.00  0.00    -0.107 N 
ATOM     23  O   UNL d   1      52.019  33.937  51.855  0.00  0.00    -0.531 OA
ATOM     24  O   UNL d   1      51.094  33.541  52.872  0.00  0.00    -0.531 OA
ENDBRANCH   1  22
TORSDOF 6
ENDMDL
