MODEL 1
REMARK VINA RESULT:      -6.8      0.000      0.000
REMARK  2 active torsions:
REMARK  status: ('A' for Active; 'I' for Inactive)
REMARK    1  A    between atoms: C_7  and  N_1 
REMARK    2  A    between atoms: C_9  and  C_2 
ROOT
ATOM      1  N   UNL d   1     -48.382  12.852  22.632  0.00  0.00    -0.273 N 
ATOM      2  C   UNL d   1     -48.641  12.092  22.838  0.00  0.00     0.174 A 
ATOM      3  N   UNL d   1     -47.979  11.610  22.899  0.00  0.00    -0.204 NA
ATOM      4  C   UNL d   1     -47.564  12.830  22.567  0.00  0.00     0.185 A 
ATOM      5  C   UNL d   1     -47.313  12.064  22.731  0.00  0.00     0.199 A 
ATOM      6  N   UNL d   1     -47.007  13.413  22.378  0.00  0.00    -0.224 NA
ATOM      7  N   UNL d   1     -46.512  11.877  22.708  0.00  0.00    -0.223 NA
ATOM      8  C   UNL d   1     -46.211  13.225  22.355  0.00  0.00     0.101 A 
ATOM      9  C   UNL d   1     -45.958  12.463  22.518  0.00  0.00     0.101 A 
ATOM     10  C   UNL d   1     -45.656  13.806  22.166  0.00  0.00     0.021 A 
ATOM     11  C   UNL d   1     -45.158  12.271  22.496  0.00  0.00     0.021 A 
ATOM     12  C   UNL d   1     -44.600  12.850  22.307  0.00  0.00     0.002 A 
ATOM     13  C   UNL d   1     -44.854  13.623  22.142  0.00  0.00     0.002 A 
ENDROOT
BRANCH   1  14
ATOM     14  C   UNL d   1     -48.894  13.490  22.521  0.00  0.00     0.069 A 
ATOM     15  C   UNL d   1     -49.048  14.005  23.150  0.00  0.00     0.044 A 
ATOM     16  C   UNL d   1     -49.558  14.640  23.042  0.00  0.00     0.124 A 
ATOM     17  O   UNL d   1     -49.709  15.148  23.666  0.00  0.00    -0.301 OA
ATOM     18  C   UNL d   1     -49.914  14.760  22.303  0.00  0.00     0.123 A 
ATOM     19  C   UNL d   1     -50.227  15.795  23.559  0.00  0.00     0.149 A 
ATOM     20  C   UNL d   1     -50.588  15.922  22.818  0.00  0.00     0.149 A 
ATOM     21  O   UNL d   1     -50.431  15.404  22.190  0.00  0.00    -0.301 OA
ATOM     22  C   UNL d   1     -49.762  14.250  21.676  0.00  0.00     0.028 A 
ATOM     23  C   UNL d   1     -49.252  13.615  21.785  0.00  0.00     0.020 A 
ENDBRANCH   1  14
BRANCH   2  24
ATOM     24  C   UNL d   1     -49.423  11.866  22.960  0.00  0.00     0.135 A 
ATOM     25  O   UNL d   1     -49.981  11.707  22.373  0.00  0.00    -0.302 OA
ATOM     26  C   UNL d   1     -50.693  11.501  22.749  0.00  0.00     0.123 A 
ATOM     27  C   UNL d   1     -50.566  11.535  23.567  0.00  0.00     0.029 A 
ATOM     28  C   UNL d   1     -49.782  11.761  23.698  0.00  0.00     0.030 A 
ENDBRANCH   2  24
TORSDOF 2
ENDMDL
MODEL 2
REMARK VINA RESULT:      -6.4      9.340     10.278
REMARK  2 active torsions:
REMARK  status: ('A' for Active; 'I' for Inactive)
REMARK    1  A    between atoms: C_7  and  N_1 
REMARK    2  A    between atoms: C_9  and  C_2 
ROOT
ATOM      1  N   UNL d   1     -38.989  14.362  19.085  0.00  0.00    -0.273 N 
ATOM      2  C   UNL d   1     -38.539  13.671  18.994  0.00  0.00     0.174 A 
ATOM      3  N   UNL d   1     -38.270  13.447  19.737  0.00  0.00    -0.204 NA
ATOM      4  C   UNL d   1     -38.991  14.555  19.883  0.00  0.00     0.185 A 
ATOM      5  C   UNL d   1     -38.548  13.993  20.287  0.00  0.00     0.199 A 
ATOM      6  N   UNL d   1     -39.343  15.178  20.300  0.00  0.00    -0.224 NA
ATOM      7  N   UNL d   1     -38.454  14.047  21.103  0.00  0.00    -0.223 NA
ATOM      8  C   UNL d   1     -39.249  15.231  21.112  0.00  0.00     0.101 A 
ATOM      9  C   UNL d   1     -38.807  14.671  21.517  0.00  0.00     0.101 A 
ATOM     10  C   UNL d   1     -39.599  15.851  21.528  0.00  0.00     0.021 A 
ATOM     11  C   UNL d   1     -38.711  14.722  22.333  0.00  0.00     0.021 A 
ATOM     12  C   UNL d   1     -39.060  15.341  22.752  0.00  0.00     0.002 A 
ATOM     13  C   UNL d   1     -39.508  15.910  22.343  0.00  0.00     0.002 A 
ENDROOT
BRANCH   1  14
ATOM     14  C   UNL d   1     -39.352  14.751  18.456  0.00  0.00     0.069 A 
ATOM     15  C   UNL d   1     -40.138  14.576  18.264  0.00  0.00     0.044 A 
ATOM     16  C   UNL d   1     -40.501  14.964  17.637  0.00  0.00     0.124 A 
ATOM     17  O   UNL d   1     -41.278  14.789  17.450  0.00  0.00    -0.301 OA
ATOM     18  C   UNL d   1     -40.077  15.527  17.201  0.00  0.00     0.123 A 
ATOM     19  C   UNL d   1     -41.651  15.181  16.813  0.00  0.00     0.149 A 
ATOM     20  C   UNL d   1     -41.230  15.749  16.370  0.00  0.00     0.149 A 
ATOM     21  O   UNL d   1     -40.443  15.922  16.564  0.00  0.00    -0.301 OA
ATOM     22  C   UNL d   1     -39.296  15.703  17.389  0.00  0.00     0.028 A 
ATOM     23  C   UNL d   1     -38.933  15.315  18.016  0.00  0.00     0.020 A 
ENDBRANCH   1  14
BRANCH   2  24
ATOM     24  C   UNL d   1     -38.392  13.283  18.283  0.00  0.00     0.135 A 
ATOM     25  O   UNL d   1     -37.940  13.571  17.656  0.00  0.00    -0.302 OA
ATOM     26  C   UNL d   1     -37.942  12.996  17.056  0.00  0.00     0.123 A 
ATOM     27  C   UNL d   1     -38.398  12.356  17.321  0.00  0.00     0.029 A 
ATOM     28  C   UNL d   1     -38.675  12.534  18.078  0.00  0.00     0.030 A 
ENDBRANCH   2  24
TORSDOF 2
ENDMDL
MODEL 3
REMARK VINA RESULT:      -6.2      1.490      2.776
REMARK  2 active torsions:
REMARK  status: ('A' for Active; 'I' for Inactive)
REMARK    1  A    between atoms: C_7  and  N_1 
REMARK    2  A    between atoms: C_9  and  C_2 
ROOT
ATOM      1  N   UNL d   1     -47.317  12.793  22.717  0.00  0.00    -0.273 N 
ATOM      2  C   UNL d   1     -46.993  13.552  22.645  0.00  0.00     0.174 A 
ATOM      3  N   UNL d   1     -46.190  13.500  22.813  0.00  0.00    -0.204 NA
ATOM      4  C   UNL d   1     -46.711  12.281  22.929  0.00  0.00     0.185 A 
ATOM      5  C   UNL d   1     -46.015  12.715  22.989  0.00  0.00     0.199 A 
ATOM      6  N   UNL d   1     -46.701  11.466  23.078  0.00  0.00    -0.224 NA
ATOM      7  N   UNL d   1     -45.311  12.342  23.195  0.00  0.00    -0.223 NA
ATOM      8  C   UNL d   1     -46.000  11.097  23.283  0.00  0.00     0.101 A 
ATOM      9  C   UNL d   1     -45.305  11.527  23.343  0.00  0.00     0.101 A 
ATOM     10  C   UNL d   1     -45.990  10.286  23.431  0.00  0.00     0.021 A 
ATOM     11  C   UNL d   1     -44.598  11.159  23.549  0.00  0.00     0.021 A 
ATOM     12  C   UNL d   1     -44.585  10.347  23.698  0.00  0.00     0.002 A 
ATOM     13  C   UNL d   1     -45.288   9.909  23.637  0.00  0.00     0.002 A 
ENDROOT
BRANCH   1  14
ATOM     14  C   UNL d   1     -48.115  12.628  22.589  0.00  0.00     0.069 A 
ATOM     15  C   UNL d   1     -48.655  12.716  23.209  0.00  0.00     0.044 A 
ATOM     16  C   UNL d   1     -49.451  12.552  23.083  0.00  0.00     0.124 A 
ATOM     17  O   UNL d   1     -49.984  12.639  23.698  0.00  0.00    -0.301 OA
ATOM     18  C   UNL d   1     -49.705  12.299  22.335  0.00  0.00     0.123 A 
ATOM     19  C   UNL d   1     -50.793  12.474  23.574  0.00  0.00     0.149 A 
ATOM     20  C   UNL d   1     -51.056  12.219  22.824  0.00  0.00     0.149 A 
ATOM     21  O   UNL d   1     -50.512  12.132  22.205  0.00  0.00    -0.301 OA
ATOM     22  C   UNL d   1     -49.170  12.211  21.718  0.00  0.00     0.028 A 
ATOM     23  C   UNL d   1     -48.375  12.375  21.844  0.00  0.00     0.020 A 
ENDBRANCH   1  14
BRANCH   2  24
ATOM     24  C   UNL d   1     -47.406  14.235  22.440  0.00  0.00     0.135 A 
ATOM     25  O   UNL d   1     -47.731  14.404  21.701  0.00  0.00    -0.302 OA
ATOM     26  C   UNL d   1     -48.094  15.149  21.748  0.00  0.00     0.123 A 
ATOM     27  C   UNL d   1     -47.989  15.434  22.519  0.00  0.00     0.029 A 
ATOM     28  C   UNL d   1     -47.564  14.869  22.946  0.00  0.00     0.030 A 
ENDBRANCH   2  24
TORSDOF 2
ENDMDL
MODEL 4
REMARK VINA RESULT:      -6.1      0.909      2.629
REMARK  2 active torsions:
REMARK  status: ('A' for Active; 'I' for Inactive)
REMARK    1  A    between atoms: C_7  and  N_1 
REMARK    2  A    between atoms: C_9  and  C_2 
ROOT
ATOM      1  N   UNL d   1     -48.241  14.072  22.586  0.00  0.00    -0.273 N 
ATOM      2  C   UNL d   1     -48.319  14.870  22.796  0.00  0.00     0.174 A 
ATOM      3  N   UNL d   1     -47.566  15.196  22.827  0.00  0.00    -0.204 NA
ATOM      4  C   UNL d   1     -47.441  13.915  22.491  0.00  0.00     0.185 A 
ATOM      5  C   UNL d   1     -47.023  14.607  22.639  0.00  0.00     0.199 A 
ATOM      6  N   UNL d   1     -47.033  13.224  22.285  0.00  0.00    -0.224 NA
ATOM      7  N   UNL d   1     -46.201  14.615  22.584  0.00  0.00    -0.223 NA
ATOM      8  C   UNL d   1     -46.216  13.233  22.231  0.00  0.00     0.101 A 
ATOM      9  C   UNL d   1     -45.796  13.922  22.378  0.00  0.00     0.101 A 
ATOM     10  C   UNL d   1     -45.809  12.545  22.026  0.00  0.00     0.021 A 
ATOM     11  C   UNL d   1     -44.975  13.933  22.324  0.00  0.00     0.021 A 
ATOM     12  C   UNL d   1     -44.565  13.247  22.120  0.00  0.00     0.002 A 
ATOM     13  C   UNL d   1     -44.988  12.548  21.970  0.00  0.00     0.002 A 
ENDROOT
BRANCH   1  14
ATOM     14  C   UNL d   1     -48.883  13.562  22.500  0.00  0.00     0.069 A 
ATOM     15  C   UNL d   1     -49.131  13.104  23.144  0.00  0.00     0.044 A 
ATOM     16  C   UNL d   1     -49.771  12.595  23.060  0.00  0.00     0.124 A 
ATOM     17  O   UNL d   1     -50.014  12.143  23.697  0.00  0.00    -0.301 OA
ATOM     18  C   UNL d   1     -50.164  12.545  22.331  0.00  0.00     0.123 A 
ATOM     19  C   UNL d   1     -50.664  11.625  23.616  0.00  0.00     0.149 A 
ATOM     20  C   UNL d   1     -51.064  11.569  22.885  0.00  0.00     0.149 A 
ATOM     21  O   UNL d   1     -50.814  12.030  22.243  0.00  0.00    -0.301 OA
ATOM     22  C   UNL d   1     -49.920  12.999  21.691  0.00  0.00     0.028 A 
ATOM     23  C   UNL d   1     -49.280  13.507  21.775  0.00  0.00     0.020 A 
ENDBRANCH   1  14
BRANCH   2  24
ATOM     24  C   UNL d   1     -49.028  15.261  22.946  0.00  0.00     0.135 A 
ATOM     25  O   UNL d   1     -49.540  15.573  22.379  0.00  0.00    -0.302 OA
ATOM     26  C   UNL d   1     -50.182  15.916  22.779  0.00  0.00     0.123 A 
ATOM     27  C   UNL d   1     -50.058  15.813  23.592  0.00  0.00     0.029 A 
ATOM     28  C   UNL d   1     -49.345  15.409  23.695  0.00  0.00     0.030 A 
ENDBRANCH   2  24
TORSDOF 2
ENDMDL
MODEL 5
REMARK VINA RESULT:      -6.0      7.612     10.023
REMARK  2 active torsions:
REMARK  status: ('A' for Active; 'I' for Inactive)
REMARK    1  A    between atoms: C_7  and  N_1 
REMARK    2  A    between atoms: C_9  and  C_2 
ROOT
ATOM      1  N   UNL d   1     -39.790  14.797  19.414  0.00  0.00    -0.273 N 
ATOM      2  C   UNL d   1     -40.597  14.988  19.402  0.00  0.00     0.174 A 
ATOM      3  N   UNL d   1     -40.848  14.970  18.620  0.00  0.00    -0.204 NA
ATOM      4  C   UNL d   1     -39.553  14.663  18.639  0.00  0.00     0.185 A 
ATOM      5  C   UNL d   1     -40.204  14.769  18.148  0.00  0.00     0.199 A 
ATOM      6  N   UNL d   1     -38.821  14.455  18.312  0.00  0.00    -0.224 NA
ATOM      7  N   UNL d   1     -40.129  14.670  17.334  0.00  0.00    -0.223 NA
ATOM      8  C   UNL d   1     -38.749  14.357  17.503  0.00  0.00     0.101 A 
ATOM      9  C   UNL d   1     -39.396  14.462  17.011  0.00  0.00     0.101 A 
ATOM     10  C   UNL d   1     -38.019  14.150  17.177  0.00  0.00     0.021 A 
ATOM     11  C   UNL d   1     -39.325  14.364  16.197  0.00  0.00     0.021 A 
ATOM     12  C   UNL d   1     -38.597  14.157  15.867  0.00  0.00     0.002 A 
ATOM     13  C   UNL d   1     -37.940  14.049  16.364  0.00  0.00     0.002 A 
ENDROOT
BRANCH   1  14
ATOM     14  C   UNL d   1     -39.344  14.760  20.106  0.00  0.00     0.069 A 
ATOM     15  C   UNL d   1     -39.309  14.051  20.533  0.00  0.00     0.044 A 
ATOM     16  C   UNL d   1     -38.865  14.013  21.224  0.00  0.00     0.124 A 
ATOM     17  O   UNL d   1     -38.832  13.311  21.644  0.00  0.00    -0.301 OA
ATOM     18  C   UNL d   1     -38.456  14.683  21.488  0.00  0.00     0.123 A 
ATOM     19  C   UNL d   1     -38.382  13.267  22.346  0.00  0.00     0.149 A 
ATOM     20  C   UNL d   1     -37.968  13.939  22.618  0.00  0.00     0.149 A 
ATOM     21  O   UNL d   1     -38.005  14.647  22.188  0.00  0.00    -0.301 OA
ATOM     22  C   UNL d   1     -38.489  15.388  21.066  0.00  0.00     0.028 A 
ATOM     23  C   UNL d   1     -38.933  15.427  20.375  0.00  0.00     0.020 A 
ENDBRANCH   1  14
BRANCH   2  24
ATOM     24  C   UNL d   1     -41.059  15.165  20.060  0.00  0.00     0.135 A 
ATOM     25  O   UNL d   1     -41.472  14.622  20.524  0.00  0.00    -0.302 OA
ATOM     26  C   UNL d   1     -41.861  15.045  21.124  0.00  0.00     0.123 A 
ATOM     27  C   UNL d   1     -41.682  15.848  21.024  0.00  0.00     0.029 A 
ATOM     28  C   UNL d   1     -41.188  15.922  20.367  0.00  0.00     0.030 A 
ENDBRANCH   2  24
TORSDOF 2
ENDMDL
MODEL 6
REMARK VINA RESULT:      -5.2      1.303      1.589
REMARK  2 active torsions:
REMARK  status: ('A' for Active; 'I' for Inactive)
REMARK    1  A    between atoms: C_7  and  N_1 
REMARK    2  A    between atoms: C_9  and  C_2 
ROOT
ATOM      1  N   UNL d   1     -47.988  12.240  22.954  0.00  0.00    -0.273 N 
ATOM      2  C   UNL d   1     -48.604  11.746  23.205  0.00  0.00     0.174 A 
ATOM      3  N   UNL d   1     -48.270  11.056  23.497  0.00  0.00    -0.204 NA
ATOM      4  C   UNL d   1     -47.280  11.848  23.095  0.00  0.00     0.185 A 
ATOM      5  C   UNL d   1     -47.452  11.118  23.430  0.00  0.00     0.199 A 
ATOM      6  N   UNL d   1     -46.492  12.064  22.960  0.00  0.00    -0.224 NA
ATOM      7  N   UNL d   1     -46.843  10.600  23.631  0.00  0.00    -0.223 NA
ATOM      8  C   UNL d   1     -45.888  11.549  23.161  0.00  0.00     0.101 A 
ATOM      9  C   UNL d   1     -46.056  10.819  23.495  0.00  0.00     0.101 A 
ATOM     10  C   UNL d   1     -45.102  11.763  23.026  0.00  0.00     0.021 A 
ATOM     11  C   UNL d   1     -45.451  10.300  23.698  0.00  0.00     0.021 A 
ATOM     12  C   UNL d   1     -44.664  10.511  23.565  0.00  0.00     0.002 A 
ATOM     13  C   UNL d   1     -44.491  11.250  23.226  0.00  0.00     0.002 A 
ENDROOT
BRANCH   1  14
ATOM     14  C   UNL d   1     -48.111  12.987  22.627  0.00  0.00     0.069 A 
ATOM     15  C   UNL d   1     -48.196  13.643  23.124  0.00  0.00     0.044 A 
ATOM     16  C   UNL d   1     -48.319  14.388  22.799  0.00  0.00     0.124 A 
ATOM     17  O   UNL d   1     -48.404  15.035  23.293  0.00  0.00    -0.301 OA
ATOM     18  C   UNL d   1     -48.357  14.476  21.975  0.00  0.00     0.123 A 
ATOM     19  C   UNL d   1     -48.529  15.794  22.966  0.00  0.00     0.149 A 
ATOM     20  C   UNL d   1     -48.568  15.890  22.138  0.00  0.00     0.149 A 
ATOM     21  O   UNL d   1     -48.481  15.231  21.643  0.00  0.00    -0.301 OA
ATOM     22  C   UNL d   1     -48.272  13.826  21.480  0.00  0.00     0.028 A 
ATOM     23  C   UNL d   1     -48.149  13.081  21.805  0.00  0.00     0.020 A 
ENDBRANCH   1  14
BRANCH   2  24
ATOM     24  C   UNL d   1     -49.408  11.922  23.166  0.00  0.00     0.135 A 
ATOM     25  O   UNL d   1     -49.830  12.391  23.698  0.00  0.00    -0.302 OA
ATOM     26  C   UNL d   1     -50.620  12.415  23.443  0.00  0.00     0.123 A 
ATOM     27  C   UNL d   1     -50.678  11.959  22.753  0.00  0.00     0.029 A 
ATOM     28  C   UNL d   1     -49.929  11.655  22.582  0.00  0.00     0.030 A 
ENDBRANCH   2  24
TORSDOF 2
ENDMDL
