MODEL 1
REMARK VINA RESULT:      -3.0      0.000      0.000
REMARK  6 active torsions:
REMARK  status: ('A' for Active; 'I' for Inactive)
REMARK    1  A    between atoms: C_2  and  C_1 
REMARK    2  A    between atoms: C_4  and  C_1 
REMARK    3  A    between atoms: C_6  and  C_2 
REMARK    4  A    between atoms: O_12  and  C_3 
REMARK    5  A    between atoms: C_8  and  C_4 
REMARK    6  A    between atoms: O_13  and  C_10 
ROOT
ATOM      1  C   UNL d   1     -41.567-122.225 -53.285  0.00  0.00     0.096 A 
ATOM      2  C   UNL d   1     -41.590-122.589 -54.025  0.00  0.00     0.048 A 
ATOM      3  C   UNL d   1     -41.334-122.657 -52.622  0.00  0.00     0.022 A 
ATOM      4  C   UNL d   1     -41.123-123.453 -52.694  0.00  0.00     0.004 A 
ATOM      5  C   UNL d   1     -41.380-123.385 -54.102  0.00  0.00     0.096 A 
ATOM      6  C   UNL d   1     -41.146-123.817 -53.435  0.00  0.00     0.024 A 
ENDROOT
BRANCH   3   7
ATOM      7  C   UNL d   1     -41.311-122.293 -51.882  0.00  0.00     0.005 C 
BRANCH   7   8
ATOM      8  C   UNL d   1     -41.509-122.723 -51.206  0.00  0.00     0.042 C 
BRANCH   8   9
ATOM      9  C   UNL d   1     -41.531-122.361 -50.468  0.00  0.00     0.196 C 
ATOM     10  O   UNL d   1     -41.236-121.595 -50.375  0.00  0.00    -0.287 OA
BRANCH   9  11
ATOM     11  C   UNL d   1     -41.846-122.757 -49.820  0.00  0.00     0.039 A 
ATOM     12  C   UNL d   1     -42.658-122.749 -49.680  0.00  0.00     0.003 A 
ATOM     13  C   UNL d   1     -42.962-123.154 -49.021  0.00  0.00     0.000 A 
ATOM     14  C   UNL d   1     -42.459-123.562 -48.507  0.00  0.00     0.000 A 
ATOM     15  C   UNL d   1     -41.641-123.568 -48.651  0.00  0.00     0.000 A 
ATOM     16  C   UNL d   1     -41.338-123.169 -49.301  0.00  0.00     0.003 A 
ENDBRANCH   9  11
ENDBRANCH   8   9
ENDBRANCH   7   8
ENDBRANCH   3   7
BRANCH   1  17
ATOM     17  O   UNL d   1     -41.777-121.429 -53.208  0.00  0.00    -0.328 OA
ATOM     18  C   UNL d   1     -42.109-121.026 -53.847  0.00  0.00     0.181 C 
ENDBRANCH   1  17
BRANCH   5  19
ATOM     19  O   UNL d   1     -41.402-123.749 -54.842  0.00  0.00    -0.328 OA
ATOM     20  C   UNL d   1     -42.118-123.816 -55.249  0.00  0.00     0.181 C 
ENDBRANCH   5  19
TORSDOF 6
ENDMDL
