MODEL 1
REMARK VINA RESULT:      -5.9      0.000      0.000
REMARK  6 active torsions:
REMARK  status: ('A' for Active; 'I' for Inactive)
REMARK    1  A    between atoms: S_6  and  C_1 
REMARK    2  A    between atoms: C_13  and  S_6 
REMARK    3  A    between atoms: C_7  and  O_9 
REMARK    4  A    between atoms: O_9  and  C_14 
REMARK    5  A    between atoms: C_10  and  C_13 
REMARK    6  A    between atoms: C_14  and  C_10 
ROOT
ATOM      1  C   UNL d   1     -47.113  12.940  22.899  0.00  0.00     0.040 C 
ENDROOT
BRANCH   1   2
ATOM      2  C   UNL d   1     -47.551  13.551  22.562  0.00  0.00     0.034 C 
BRANCH   2   3
ATOM      3  C   UNL d   1     -48.276  13.767  22.893  0.00  0.00     0.123 C 
BRANCH   3   4
ATOM      4  O   UNL d   1     -48.939  13.806  22.407  0.00  0.00    -0.305 OA
BRANCH   4   5
ATOM      5  C   UNL d   1     -49.584  14.263  22.629  0.00  0.00     0.100 A 
ATOM      6  C   UNL d   1     -50.298  14.191  22.225  0.00  0.00     0.023 A 
ATOM      7  C   UNL d   1     -50.373  13.660  21.597  0.00  0.00     0.002 C 
ATOM      8  C   UNL d   1     -50.949  14.656  22.453  0.00  0.00     0.002 A 
ATOM      9  C   UNL d   1     -50.877  15.186  23.079  0.00  0.00     0.000 A 
ATOM     10  C   UNL d   1     -50.153  15.254  23.482  0.00  0.00     0.002 A 
ATOM     11  C   UNL d   1     -49.505  14.794  23.259  0.00  0.00     0.025 A 
ENDBRANCH   4   5
ENDBRANCH   3   4
ENDBRANCH   2   3
ENDBRANCH   1   2
BRANCH   1  12
ATOM     12  S   UNL d   1     -46.294  13.009  22.949  0.00  0.00    -0.048 SA
BRANCH  12  13
ATOM     13  C   UNL d   1     -45.828  12.342  23.074  0.00  0.00     0.194 A 
ATOM     14  N   UNL d   1     -45.023  12.260  22.891  0.00  0.00    -0.220 NA
ATOM     15  C   UNL d   1     -44.788  11.496  23.112  0.00  0.00     0.101 A 
ATOM     16  C   UNL d   1     -44.058  11.114  23.061  0.00  0.00     0.021 A 
ATOM     17  C   UNL d   1     -45.442  11.098  23.434  0.00  0.00     0.101 A 
ATOM     18  C   UNL d   1     -43.980  10.341  23.328  0.00  0.00     0.002 A 
ATOM     19  C   UNL d   1     -44.629   9.947  23.646  0.00  0.00     0.002 A 
ATOM     20  C   UNL d   1     -45.355  10.326  23.698  0.00  0.00     0.021 A 
ATOM     21  N   UNL d   1     -46.092  11.625  23.410  0.00  0.00    -0.220 NA
ENDBRANCH  12  13
ENDBRANCH   1  12
TORSDOF 6
ENDMDL
MODEL 2
REMARK VINA RESULT:      -5.6      1.191      1.561
REMARK  6 active torsions:
REMARK  status: ('A' for Active; 'I' for Inactive)
REMARK    1  A    between atoms: S_6  and  C_1 
REMARK    2  A    between atoms: C_13  and  S_6 
REMARK    3  A    between atoms: C_7  and  O_9 
REMARK    4  A    between atoms: O_9  and  C_14 
REMARK    5  A    between atoms: C_10  and  C_13 
REMARK    6  A    between atoms: C_14  and  C_10 
ROOT
ATOM      1  C   UNL d   1     -47.152  13.482  22.830  0.00  0.00     0.040 C 
ENDROOT
BRANCH   1   2
ATOM      2  C   UNL d   1     -47.961  13.376  22.937  0.00  0.00     0.034 C 
BRANCH   2   3
ATOM      3  C   UNL d   1     -48.450  14.032  23.049  0.00  0.00     0.123 C 
BRANCH   3   4
ATOM      4  O   UNL d   1     -49.266  13.932  23.011  0.00  0.00    -0.305 OA
BRANCH   4   5
ATOM      5  C   UNL d   1     -49.766  14.542  23.237  0.00  0.00     0.100 A 
ATOM      6  C   UNL d   1     -50.561  14.389  23.387  0.00  0.00     0.023 A 
ATOM      7  C   UNL d   1     -50.863  13.624  23.311  0.00  0.00     0.002 C 
ATOM      8  C   UNL d   1     -51.064  15.011  23.616  0.00  0.00     0.002 A 
ATOM      9  C   UNL d   1     -50.766  15.775  23.692  0.00  0.00     0.000 A 
ATOM     10  C   UNL d   1     -49.963  15.922  23.539  0.00  0.00     0.002 A 
ATOM     11  C   UNL d   1     -49.461  15.308  23.312  0.00  0.00     0.025 A 
ENDBRANCH   4   5
ENDBRANCH   3   4
ENDBRANCH   2   3
ENDBRANCH   1   2
BRANCH   1  12
ATOM     12  S   UNL d   1     -46.627  12.926  23.137  0.00  0.00    -0.048 SA
BRANCH  12  13
ATOM     13  C   UNL d   1     -45.885  12.823  22.795  0.00  0.00     0.194 A 
ATOM     14  N   UNL d   1     -45.548  13.284  22.195  0.00  0.00    -0.220 NA
ATOM     15  C   UNL d   1     -44.796  12.976  22.027  0.00  0.00     0.101 A 
ATOM     16  C   UNL d   1     -44.220  13.211  21.486  0.00  0.00     0.021 A 
ATOM     17  C   UNL d   1     -44.660  12.321  22.521  0.00  0.00     0.101 A 
ATOM     18  C   UNL d   1     -43.512  12.797  21.436  0.00  0.00     0.002 A 
ATOM     19  C   UNL d   1     -43.377  12.148  21.925  0.00  0.00     0.002 A 
ATOM     20  C   UNL d   1     -43.951  11.914  22.464  0.00  0.00     0.021 A 
ATOM     21  N   UNL d   1     -45.340  12.225  23.001  0.00  0.00    -0.220 NA
ENDBRANCH  12  13
ENDBRANCH   1  12
TORSDOF 6
ENDMDL
MODEL 3
REMARK VINA RESULT:      -5.1      4.061      6.653
REMARK  6 active torsions:
REMARK  status: ('A' for Active; 'I' for Inactive)
REMARK    1  A    between atoms: S_6  and  C_1 
REMARK    2  A    between atoms: C_13  and  S_6 
REMARK    3  A    between atoms: C_7  and  O_9 
REMARK    4  A    between atoms: O_9  and  C_14 
REMARK    5  A    between atoms: C_10  and  C_13 
REMARK    6  A    between atoms: C_14  and  C_10 
ROOT
ATOM      1  C   UNL d   1     -43.447  13.264  21.356  0.00  0.00     0.040 C 
ENDROOT
BRANCH   1   2
ATOM      2  C   UNL d   1     -42.637  13.200  21.228  0.00  0.00     0.034 C 
BRANCH   2   3
ATOM      3  C   UNL d   1     -42.202  13.868  21.010  0.00  0.00     0.123 C 
BRANCH   3   4
ATOM      4  O   UNL d   1     -41.381  13.843  21.064  0.00  0.00    -0.305 OA
BRANCH   4   5
ATOM      5  C   UNL d   1     -40.942  14.531  20.976  0.00  0.00     0.100 A 
ATOM      6  C   UNL d   1     -40.147  14.543  21.188  0.00  0.00     0.023 A 
ATOM      7  C   UNL d   1     -39.783  13.867  21.490  0.00  0.00     0.002 C 
ATOM      8  C   UNL d   1     -39.707  15.243  21.097  0.00  0.00     0.002 A 
ATOM      9  C   UNL d   1     -40.067  15.920  20.795  0.00  0.00     0.000 A 
ATOM     10  C   UNL d   1     -40.870  15.901  20.583  0.00  0.00     0.002 A 
ATOM     11  C   UNL d   1     -41.310  15.208  20.672  0.00  0.00     0.025 A 
ENDBRANCH   4   5
ENDBRANCH   3   4
ENDBRANCH   2   3
ENDBRANCH   1   2
BRANCH   1  12
ATOM     12  S   UNL d   1     -43.849  12.646  21.725  0.00  0.00    -0.048 SA
BRANCH  12  13
ATOM     13  C   UNL d   1     -44.580  12.778  22.078  0.00  0.00     0.194 A 
ATOM     14  N   UNL d   1     -45.053  13.454  21.999  0.00  0.00    -0.220 NA
ATOM     15  C   UNL d   1     -45.739  13.341  22.453  0.00  0.00     0.101 A 
ATOM     16  C   UNL d   1     -46.394  13.826  22.579  0.00  0.00     0.021 A 
ATOM     17  C   UNL d   1     -45.697  12.595  22.817  0.00  0.00     0.101 A 
ATOM     18  C   UNL d   1     -47.005  13.569  23.065  0.00  0.00     0.002 A 
ATOM     19  C   UNL d   1     -46.965  12.830  23.425  0.00  0.00     0.002 A 
ATOM     20  C   UNL d   1     -46.312  12.348  23.299  0.00  0.00     0.021 A 
ATOM     21  N   UNL d   1     -44.975  12.243  22.583  0.00  0.00    -0.220 NA
ENDBRANCH  12  13
ENDBRANCH   1  12
TORSDOF 6
ENDMDL
MODEL 4
REMARK VINA RESULT:      -4.9      1.580      5.774
REMARK  6 active torsions:
REMARK  status: ('A' for Active; 'I' for Inactive)
REMARK    1  A    between atoms: S_6  and  C_1 
REMARK    2  A    between atoms: C_13  and  S_6 
REMARK    3  A    between atoms: C_7  and  O_9 
REMARK    4  A    between atoms: O_9  and  C_14 
REMARK    5  A    between atoms: C_10  and  C_13 
REMARK    6  A    between atoms: C_14  and  C_10 
ROOT
ATOM      1  C   UNL d   1     -47.026  13.197  22.789  0.00  0.00     0.040 C 
ENDROOT
BRANCH   1   2
ATOM      2  C   UNL d   1     -46.217  13.054  22.837  0.00  0.00     0.034 C 
BRANCH   2   3
ATOM      3  C   UNL d   1     -45.943  12.288  22.977  0.00  0.00     0.123 C 
BRANCH   3   4
ATOM      4  O   UNL d   1     -45.159  12.108  22.803  0.00  0.00    -0.305 OA
BRANCH   4   5
ATOM      5  C   UNL d   1     -44.832  11.401  23.063  0.00  0.00     0.100 A 
ATOM      6  C   UNL d   1     -44.030  11.253  22.953  0.00  0.00     0.023 A 
ATOM      7  C   UNL d   1     -43.547  11.810  22.581  0.00  0.00     0.002 C 
ATOM      8  C   UNL d   1     -43.703  10.535  23.218  0.00  0.00     0.002 A 
ATOM      9  C   UNL d   1     -44.182   9.977  23.590  0.00  0.00     0.000 A 
ATOM     10  C   UNL d   1     -44.991  10.134  23.698  0.00  0.00     0.002 A 
ATOM     11  C   UNL d   1     -45.319  10.845  23.436  0.00  0.00     0.025 A 
ENDBRANCH   4   5
ENDBRANCH   3   4
ENDBRANCH   2   3
ENDBRANCH   1   2
BRANCH   1  12
ATOM     12  S   UNL d   1     -47.293  13.957  22.616  0.00  0.00    -0.048 SA
BRANCH  12  13
ATOM     13  C   UNL d   1     -48.100  14.119  22.598  0.00  0.00     0.194 A 
ATOM     14  N   UNL d   1     -48.633  13.912  21.998  0.00  0.00    -0.220 NA
ATOM     15  C   UNL d   1     -49.384  14.190  22.216  0.00  0.00     0.101 A 
ATOM     16  C   UNL d   1     -50.114  14.142  21.836  0.00  0.00     0.021 A 
ATOM     17  C   UNL d   1     -49.324  14.571  22.952  0.00  0.00     0.101 A 
ATOM     18  C   UNL d   1     -50.781  14.471  22.185  0.00  0.00     0.002 A 
ATOM     19  C   UNL d   1     -50.721  14.849  22.914  0.00  0.00     0.002 A 
ATOM     20  C   UNL d   1     -49.995  14.897  23.293  0.00  0.00     0.021 A 
ATOM     21  N   UNL d   1     -48.523  14.528  23.191  0.00  0.00    -0.220 NA
ENDBRANCH  12  13
ENDBRANCH   1  12
TORSDOF 6
ENDMDL
MODEL 5
REMARK VINA RESULT:      -4.5      2.138      5.480
REMARK  6 active torsions:
REMARK  status: ('A' for Active; 'I' for Inactive)
REMARK    1  A    between atoms: S_6  and  C_1 
REMARK    2  A    between atoms: C_13  and  S_6 
REMARK    3  A    between atoms: C_7  and  O_9 
REMARK    4  A    between atoms: O_9  and  C_14 
REMARK    5  A    between atoms: C_10  and  C_13 
REMARK    6  A    between atoms: C_14  and  C_10 
ROOT
ATOM      1  C   UNL d   1     -47.087  12.989  22.591  0.00  0.00     0.040 C 
ENDROOT
BRANCH   1   2
ATOM      2  C   UNL d   1     -46.328  13.127  22.879  0.00  0.00     0.034 C 
BRANCH   2   3
ATOM      3  C   UNL d   1     -45.678  13.048  22.376  0.00  0.00     0.123 C 
BRANCH   3   4
ATOM      4  O   UNL d   1     -45.033  12.602  22.628  0.00  0.00    -0.305 OA
BRANCH   4   5
ATOM      5  C   UNL d   1     -44.336  12.606  22.193  0.00  0.00     0.100 A 
ATOM      6  C   UNL d   1     -43.770  12.021  22.317  0.00  0.00     0.023 A 
ATOM      7  C   UNL d   1     -43.896  11.427  22.876  0.00  0.00     0.002 C 
ATOM      8  C   UNL d   1     -43.066  12.029  21.874  0.00  0.00     0.002 A 
ATOM      9  C   UNL d   1     -42.938  12.620  21.315  0.00  0.00     0.000 A 
ATOM     10  C   UNL d   1     -43.514  13.208  21.195  0.00  0.00     0.002 A 
ATOM     11  C   UNL d   1     -44.213  13.203  21.633  0.00  0.00     0.025 A 
ENDBRANCH   4   5
ENDBRANCH   3   4
ENDBRANCH   2   3
ENDBRANCH   1   2
BRANCH   1  12
ATOM     12  S   UNL d   1     -47.698  13.499  22.802  0.00  0.00    -0.048 SA
BRANCH  12  13
ATOM     13  C   UNL d   1     -48.443  13.200  22.988  0.00  0.00     0.194 A 
ATOM     14  N   UNL d   1     -48.615  12.437  23.263  0.00  0.00    -0.220 NA
ATOM     15  C   UNL d   1     -49.436  12.386  23.376  0.00  0.00     0.101 A 
ATOM     16  C   UNL d   1     -49.911  11.765  23.638  0.00  0.00     0.021 A 
ATOM     17  C   UNL d   1     -49.779  13.115  23.172  0.00  0.00     0.101 A 
ATOM     18  C   UNL d   1     -50.724  11.869  23.698  0.00  0.00     0.002 A 
ATOM     19  C   UNL d   1     -51.064  12.591  23.496  0.00  0.00     0.002 A 
ATOM     20  C   UNL d   1     -50.591  13.209  23.235  0.00  0.00     0.021 A 
ATOM     21  N   UNL d   1     -49.160  13.624  22.930  0.00  0.00    -0.220 NA
ENDBRANCH  12  13
ENDBRANCH   1  12
TORSDOF 6
ENDMDL
