MODEL 1
REMARK VINA RESULT:     -10.6      0.000      0.000
REMARK  4 active torsions:
REMARK  status: ('A' for Active; 'I' for Inactive)
REMARK    1  A    between atoms: C_2  and  C_1 
REMARK       I    between atoms: N_7  and  C_2 
REMARK    2  A    between atoms: N_6  and  C_5 
REMARK    3  A    between atoms: C_10  and  N_7 
REMARK    4  A    between atoms: C_8  and  C_9 
ROOT
ATOM      1  C   UNL d   1      52.356  32.957  53.140  0.00  0.00     0.021 A 
ATOM      2  C   UNL d   1      53.686  32.921  53.660  0.00  0.00     0.085 A 
ATOM      3  C   UNL d   1      52.993  33.339  53.500  0.00  0.00     0.021 A 
ATOM      4  C   UNL d   1      52.413  32.158  52.940  0.00  0.00     0.002 A 
ATOM      5  C   UNL d   1      53.103  31.748  53.101  0.00  0.00     0.002 A 
ATOM      6  C   UNL d   1      53.739  32.130  53.461  0.00  0.00     0.019 A 
ENDROOT
BRANCH   1   7
ATOM      7  C   UNL d   1      51.657  33.381  52.979  0.00  0.00     0.103 A 
ATOM      8  N   UNL d   1      50.973  33.216  53.397  0.00  0.00    -0.147 NA
ATOM      9  N   UNL d   1      50.283  33.639  53.234  0.00  0.00    -0.130 NA
ATOM     10  C   UNL d   1      50.285  34.225  52.654  0.00  0.00     0.169 A 
ATOM     11  C   UNL d   1      50.981  34.387  52.235  0.00  0.00     0.041 A 
ATOM     12  C   UNL d   1      51.659  33.968  52.399  0.00  0.00     0.024 A 
BRANCH  10  13
ATOM     13  N   UNL d   1      49.603  34.645  52.491  0.00  0.00    -0.288 N 
ATOM     14  C   UNL d   1      49.222  34.543  51.766  0.00  0.00     0.082 A 
ATOM     15  C   UNL d   1      48.534  34.965  51.597  0.00  0.00     0.019 A 
ATOM     16  C   UNL d   1      48.226  35.491  52.154  0.00  0.00     0.003 A 
ATOM     17  C   UNL d   1      48.607  35.594  52.879  0.00  0.00     0.019 A 
ATOM     18  C   UNL d   1      49.296  35.171  53.047  0.00  0.00     0.082 A 
ENDBRANCH  10  13
ENDBRANCH   1   7
BRANCH   2  19
ATOM     19  N   UNL d   1      54.323  33.303  54.020  0.00  0.00    -0.205 NA
ATOM     20  C   UNL d   1      54.485  33.179  54.812  0.00  0.00     0.351 C 
ATOM     21  O   UNL d   1      54.008  32.667  55.252  0.00  0.00    -0.261 OA
BRANCH  20  22
ATOM     22  C   UNL d   1      55.118  33.558  55.170  0.00  0.00     0.474 C 
ATOM     23  F   UNL d   1      55.754  33.940  55.530  0.00  0.00    -0.162 F 
ATOM     24  F   UNL d   1      54.685  33.619  55.870  0.00  0.00    -0.162 F 
ATOM     25  F   UNL d   1      55.550  33.497  54.470  0.00  0.00    -0.162 F 
ENDBRANCH  20  22
ENDBRANCH   2  19
TORSDOF 4
ENDMDL
MODEL 2
REMARK VINA RESULT:      -9.5      1.798      2.224
REMARK  4 active torsions:
REMARK  status: ('A' for Active; 'I' for Inactive)
REMARK    1  A    between atoms: C_2  and  C_1 
REMARK       I    between atoms: N_7  and  C_2 
REMARK    2  A    between atoms: N_6  and  C_5 
REMARK    3  A    between atoms: C_10  and  N_7 
REMARK    4  A    between atoms: C_8  and  C_9 
ROOT
ATOM      1  C   UNL d   1      52.430  33.137  53.149  0.00  0.00     0.021 A 
ATOM      2  C   UNL d   1      53.206  31.941  53.234  0.00  0.00     0.085 A 
ATOM      3  C   UNL d   1      52.497  32.321  53.050  0.00  0.00     0.021 A 
ATOM      4  C   UNL d   1      53.071  33.573  53.431  0.00  0.00     0.002 A 
ATOM      5  C   UNL d   1      53.772  33.192  53.611  0.00  0.00     0.002 A 
ATOM      6  C   UNL d   1      53.840  32.376  53.513  0.00  0.00     0.019 A 
ENDROOT
BRANCH   1   7
ATOM      7  C   UNL d   1      51.712  33.517  52.962  0.00  0.00     0.103 A 
ATOM      8  N   UNL d   1      51.047  33.383  53.420  0.00  0.00    -0.147 NA
ATOM      9  N   UNL d   1      50.338  33.762  53.232  0.00  0.00    -0.130 NA
ATOM     10  C   UNL d   1      50.303  34.273  52.585  0.00  0.00     0.169 A 
ATOM     11  C   UNL d   1      50.980  34.405  52.126  0.00  0.00     0.041 A 
ATOM     12  C   UNL d   1      51.676  34.028  52.316  0.00  0.00     0.024 A 
BRANCH  10  13
ATOM     13  N   UNL d   1      49.602  34.650  52.396  0.00  0.00    -0.288 N 
ATOM     14  C   UNL d   1      49.253  34.520  51.660  0.00  0.00     0.082 A 
ATOM     15  C   UNL d   1      48.546  34.899  51.465  0.00  0.00     0.019 A 
ATOM     16  C   UNL d   1      48.188  35.408  52.007  0.00  0.00     0.003 A 
ATOM     17  C   UNL d   1      48.537  35.538  52.744  0.00  0.00     0.019 A 
ATOM     18  C   UNL d   1      49.245  35.159  52.938  0.00  0.00     0.082 A 
ENDBRANCH  10  13
ENDBRANCH   1   7
BRANCH   2  19
ATOM     19  N   UNL d   1      53.274  31.124  53.135  0.00  0.00    -0.205 NA
ATOM     20  C   UNL d   1      53.338  30.634  53.786  0.00  0.00     0.351 C 
ATOM     21  O   UNL d   1      53.335  30.959  54.545  0.00  0.00    -0.261 OA
BRANCH  20  22
ATOM     22  C   UNL d   1      53.405  29.822  53.688  0.00  0.00     0.474 C 
ATOM     23  F   UNL d   1      53.473  29.006  53.590  0.00  0.00    -0.162 F 
ATOM     24  F   UNL d   1      54.126  29.929  53.301  0.00  0.00    -0.162 F 
ATOM     25  F   UNL d   1      52.684  29.716  54.076  0.00  0.00    -0.162 F 
ENDBRANCH  20  22
ENDBRANCH   2  19
TORSDOF 4
ENDMDL
MODEL 3
REMARK VINA RESULT:      -8.8      3.259      5.512
REMARK  4 active torsions:
REMARK  status: ('A' for Active; 'I' for Inactive)
REMARK    1  A    between atoms: C_2  and  C_1 
REMARK       I    between atoms: N_7  and  C_2 
REMARK    2  A    between atoms: N_6  and  C_5 
REMARK    3  A    between atoms: C_10  and  N_7 
REMARK    4  A    between atoms: C_8  and  C_9 
ROOT
ATOM      1  C   UNL d   1      50.339  34.369  52.582  0.00  0.00     0.021 A 
ATOM      2  C   UNL d   1      49.027  34.914  52.728  0.00  0.00     0.085 A 
ATOM      3  C   UNL d   1      49.751  34.696  53.059  0.00  0.00     0.021 A 
ATOM      4  C   UNL d   1      50.204  34.260  51.774  0.00  0.00     0.002 A 
ATOM      5  C   UNL d   1      49.484  34.477  51.452  0.00  0.00     0.002 A 
ATOM      6  C   UNL d   1      48.896  34.805  51.929  0.00  0.00     0.019 A 
ENDROOT
BRANCH   1   7
ATOM      7  C   UNL d   1      51.070  34.150  52.918  0.00  0.00     0.103 A 
ATOM      8  N   UNL d   1      51.135  33.446  53.330  0.00  0.00    -0.147 NA
ATOM      9  N   UNL d   1      51.860  33.233  53.663  0.00  0.00    -0.130 NA
ATOM     10  C   UNL d   1      52.515  33.728  53.578  0.00  0.00     0.169 A 
ATOM     11  C   UNL d   1      52.441  34.440  53.159  0.00  0.00     0.041 A 
ATOM     12  C   UNL d   1      51.724  34.645  52.834  0.00  0.00     0.024 A 
BRANCH  10  13
ATOM     13  N   UNL d   1      53.234  33.520  53.905  0.00  0.00    -0.288 N 
ATOM     14  C   UNL d   1      53.709  32.960  53.529  0.00  0.00     0.082 A 
ATOM     15  C   UNL d   1      54.436  32.747  53.856  0.00  0.00     0.019 A 
ATOM     16  C   UNL d   1      54.688  33.095  54.560  0.00  0.00     0.003 A 
ATOM     17  C   UNL d   1      54.214  33.656  54.937  0.00  0.00     0.019 A 
ATOM     18  C   UNL d   1      53.487  33.868  54.609  0.00  0.00     0.082 A 
ENDBRANCH  10  13
ENDBRANCH   1   7
BRANCH   2  19
ATOM     19  N   UNL d   1      48.439  35.241  53.205  0.00  0.00    -0.205 NA
ATOM     20  C   UNL d   1      48.179  36.006  53.075  0.00  0.00     0.351 C 
ATOM     21  O   UNL d   1      48.510  36.451  52.463  0.00  0.00    -0.261 OA
BRANCH  20  22
ATOM     22  C   UNL d   1      47.595  36.331  53.549  0.00  0.00     0.474 C 
ATOM     23  F   UNL d   1      47.006  36.658  54.026  0.00  0.00    -0.162 F 
ATOM     24  F   UNL d   1      47.018  35.954  53.096  0.00  0.00    -0.162 F 
ATOM     25  F   UNL d   1      48.172  36.709  54.002  0.00  0.00    -0.162 F 
ENDBRANCH  20  22
ENDBRANCH   2  19
TORSDOF 4
ENDMDL
MODEL 4
REMARK VINA RESULT:      -8.4      3.174      3.987
REMARK  4 active torsions:
REMARK  status: ('A' for Active; 'I' for Inactive)
REMARK    1  A    between atoms: C_2  and  C_1 
REMARK       I    between atoms: N_7  and  C_2 
REMARK    2  A    between atoms: N_6  and  C_5 
REMARK    3  A    between atoms: C_10  and  N_7 
REMARK    4  A    between atoms: C_8  and  C_9 
ROOT
ATOM      1  C   UNL d   1      53.143  31.336  53.327  0.00  0.00     0.021 A 
ATOM      2  C   UNL d   1      53.430  29.967  53.617  0.00  0.00     0.085 A 
ATOM      3  C   UNL d   1      53.425  30.759  53.846  0.00  0.00     0.021 A 
ATOM      4  C   UNL d   1      52.867  31.120  52.579  0.00  0.00     0.002 A 
ATOM      5  C   UNL d   1      52.875  30.333  52.357  0.00  0.00     0.002 A 
ATOM      6  C   UNL d   1      53.156  29.756  52.876  0.00  0.00     0.019 A 
ENDROOT
BRANCH   1   7
ATOM      7  C   UNL d   1      53.139  32.136  53.562  0.00  0.00     0.103 A 
ATOM      8  N   UNL d   1      52.430  32.536  53.637  0.00  0.00    -0.147 NA
ATOM      9  N   UNL d   1      52.430  33.328  53.869  0.00  0.00    -0.130 NA
ATOM     10  C   UNL d   1      53.144  33.713  54.024  0.00  0.00     0.169 A 
ATOM     11  C   UNL d   1      53.859  33.301  53.946  0.00  0.00     0.041 A 
ATOM     12  C   UNL d   1      53.853  32.520  53.717  0.00  0.00     0.024 A 
BRANCH  10  13
ATOM     13  N   UNL d   1      53.148  34.497  54.255  0.00  0.00    -0.288 N 
ATOM     14  C   UNL d   1      53.328  34.694  55.036  0.00  0.00     0.082 A 
ATOM     15  C   UNL d   1      53.333  35.484  55.272  0.00  0.00     0.019 A 
ATOM     16  C   UNL d   1      53.158  36.079  54.728  0.00  0.00     0.003 A 
ATOM     17  C   UNL d   1      52.978  35.882  53.946  0.00  0.00     0.019 A 
ATOM     18  C   UNL d   1      52.973  35.091  53.710  0.00  0.00     0.082 A 
ENDBRANCH  10  13
ENDBRANCH   1   7
BRANCH   2  19
ATOM     19  N   UNL d   1      53.711  29.390  54.135  0.00  0.00    -0.205 NA
ATOM     20  C   UNL d   1      53.196  28.995  54.633  0.00  0.00     0.351 C 
ATOM     21  O   UNL d   1      52.391  29.177  54.614  0.00  0.00    -0.261 OA
BRANCH  20  22
ATOM     22  C   UNL d   1      53.476  28.422  55.149  0.00  0.00     0.474 C 
ATOM     23  F   UNL d   1      53.757  27.846  55.667  0.00  0.00    -0.162 F 
ATOM     24  F   UNL d   1      53.372  28.941  55.782  0.00  0.00    -0.162 F 
ATOM     25  F   UNL d   1      53.580  27.904  54.516  0.00  0.00    -0.162 F 
ENDBRANCH  20  22
ENDBRANCH   2  19
TORSDOF 4
ENDMDL
MODEL 5
REMARK VINA RESULT:      -7.9      3.065      5.312
REMARK  4 active torsions:
REMARK  status: ('A' for Active; 'I' for Inactive)
REMARK    1  A    between atoms: C_2  and  C_1 
REMARK       I    between atoms: N_7  and  C_2 
REMARK    2  A    between atoms: N_6  and  C_5 
REMARK    3  A    between atoms: C_10  and  N_7 
REMARK    4  A    between atoms: C_8  and  C_9 
ROOT
ATOM      1  C   UNL d   1      52.505  33.226  53.097  0.00  0.00     0.021 A 
ATOM      2  C   UNL d   1      51.621  34.139  52.445  0.00  0.00     0.085 A 
ATOM      3  C   UNL d   1      51.818  33.368  52.663  0.00  0.00     0.021 A 
ATOM      4  C   UNL d   1      52.996  33.855  53.312  0.00  0.00     0.002 A 
ATOM      5  C   UNL d   1      52.796  34.617  53.092  0.00  0.00     0.002 A 
ATOM      6  C   UNL d   1      52.109  34.759  52.659  0.00  0.00     0.019 A 
ENDROOT
BRANCH   1   7
ATOM      7  C   UNL d   1      52.702  32.446  53.317  0.00  0.00     0.103 A 
ATOM      8  N   UNL d   1      52.414  31.815  52.883  0.00  0.00    -0.147 NA
ATOM      9  N   UNL d   1      52.611  31.044  53.104  0.00  0.00    -0.130 NA
ATOM     10  C   UNL d   1      53.095  30.914  53.759  0.00  0.00     0.169 A 
ATOM     11  C   UNL d   1      53.382  31.558  54.194  0.00  0.00     0.041 A 
ATOM     12  C   UNL d   1      53.185  32.316  53.972  0.00  0.00     0.024 A 
BRANCH  10  13
ATOM     13  N   UNL d   1      53.292  30.152  53.980  0.00  0.00    -0.288 N 
ATOM     14  C   UNL d   1      53.015  29.848  54.696  0.00  0.00     0.082 A 
ATOM     15  C   UNL d   1      53.211  29.080  54.923  0.00  0.00     0.019 A 
ATOM     16  C   UNL d   1      53.685  28.614  54.434  0.00  0.00     0.003 A 
ATOM     17  C   UNL d   1      53.962  28.916  53.718  0.00  0.00     0.019 A 
ATOM     18  C   UNL d   1      53.765  29.686  53.491  0.00  0.00     0.082 A 
ENDBRANCH  10  13
ENDBRANCH   1   7
BRANCH   2  19
ATOM     19  N   UNL d   1      50.934  34.281  52.011  0.00  0.00    -0.205 NA
ATOM     20  C   UNL d   1      50.239  34.482  52.393  0.00  0.00     0.351 C 
ATOM     21  O   UNL d   1      50.228  34.543  53.216  0.00  0.00    -0.261 OA
BRANCH  20  22
ATOM     22  C   UNL d   1      49.556  34.623  51.962  0.00  0.00     0.474 C 
ATOM     23  F   UNL d   1      48.868  34.765  51.528  0.00  0.00    -0.162 F 
ATOM     24  F   UNL d   1      49.175  34.878  52.648  0.00  0.00    -0.162 F 
ATOM     25  F   UNL d   1      49.936  34.369  51.275  0.00  0.00    -0.162 F 
ENDBRANCH  20  22
ENDBRANCH   2  19
TORSDOF 4
ENDMDL
