MODEL 1
REMARK VINA RESULT:      79.3      0.000      0.000
REMARK  5 active torsions:
REMARK  status: ('A' for Active; 'I' for Inactive)
REMARK       I    between atoms: C_2  and  N_1 
REMARK    1  A    between atoms: C_5  and  C_2 
REMARK    2  A    between atoms: S_7  and  C_3 
REMARK    3  A    between atoms: N_4  and  C_8 
REMARK    4  A    between atoms: C_17  and  S_7 
REMARK    5  A    between atoms: C_18  and  C_17 
ROOT
ATOM      1  N   UNL d   1     -57.683 -99.515 -44.405  0.00  0.00    -0.251 N 
ATOM      2  C   UNL d   1     -57.175 -99.930 -43.905  0.00  0.00     0.266 C 
ATOM      3  C   UNL d   1     -58.506 -99.452 -44.328  0.00  0.00     0.182 A 
ATOM      4  N   UNL d   1     -58.781 -98.988 -44.946  0.00  0.00    -0.219 NA
ATOM      5  O   UNL d   1     -57.475-100.337 -43.252  0.00  0.00    -0.267 OA
ATOM      6  C   UNL d   1     -57.454 -99.083 -45.080  0.00  0.00     0.106 A 
ATOM      7  C   UNL d   1     -58.141 -98.758 -45.412  0.00  0.00     0.120 A 
ENDROOT
BRANCH   3   8
ATOM      8  S   UNL d   1     -58.955 -99.799 -43.731  0.00  0.00    -0.049 SA
BRANCH   8   9
ATOM      9  C   UNL d   1     -59.504 -99.352 -43.323  0.00  0.00     0.038 C 
BRANCH   9  10
ATOM     10  C   UNL d   1     -59.578 -99.432 -42.510  0.00  0.00     0.007 A 
ATOM     11  C   UNL d   1     -59.636-100.177 -42.167  0.00  0.00     0.002 A 
ATOM     12  C   UNL d   1     -59.710-100.258 -41.349  0.00  0.00     0.024 A 
ATOM     13  C   UNL d   1     -59.726 -99.586 -40.878  0.00  0.00     0.127 A 
ATOM     14  C   UNL d   1     -59.669 -98.837 -41.208  0.00  0.00     0.024 A 
ATOM     15  C   UNL d   1     -59.594 -98.755 -42.028  0.00  0.00     0.002 A 
BRANCH  13  16
ATOM     16  N   UNL d   1     -59.800 -99.661 -40.055  0.00  0.00    -0.114 N 
ATOM     17  O   UNL d   1     -59.793 -98.976 -39.566  0.00  0.00    -0.532 OA
ATOM     18  O   UNL d   1     -59.883-100.410 -39.700  0.00  0.00    -0.532 OA
ENDBRANCH  13  16
ENDBRANCH   9  10
ENDBRANCH   8   9
ENDBRANCH   3   8
BRANCH   2  19
ATOM     19  C   UNL d   1     -56.359 -99.940 -44.058  0.00  0.00     0.057 A 
ATOM     20  C   UNL d   1     -55.930-100.641 -43.940  0.00  0.00     0.005 A 
ATOM     21  C   UNL d   1     -56.313-101.321 -43.674  0.00  0.00     0.000 C 
ATOM     22  C   UNL d   1     -55.128-100.642 -44.092  0.00  0.00     0.000 A 
ATOM     23  C   UNL d   1     -54.749 -99.950 -44.361  0.00  0.00     0.000 A 
ATOM     24  C   UNL d   1     -55.174 -99.260 -44.476  0.00  0.00     0.000 A 
ATOM     25  C   UNL d   1     -55.983 -99.255 -44.324  0.00  0.00     0.005 A 
ENDBRANCH   2  19
TORSDOF 5
ENDMDL
MODEL 2
REMARK VINA RESULT:      80.6      2.769      4.069
REMARK  5 active torsions:
REMARK  status: ('A' for Active; 'I' for Inactive)
REMARK       I    between atoms: C_2  and  N_1 
REMARK    1  A    between atoms: C_5  and  C_2 
REMARK    2  A    between atoms: S_7  and  C_3 
REMARK    3  A    between atoms: N_4  and  C_8 
REMARK    4  A    between atoms: C_17  and  S_7 
REMARK    5  A    between atoms: C_18  and  C_17 
ROOT
ATOM      1  N   UNL d   1     -56.135-100.926 -43.897  0.00  0.00    -0.251 N 
ATOM      2  C   UNL d   1     -56.812-100.600 -43.558  0.00  0.00     0.266 C 
ATOM      3  C   UNL d   1     -55.679-101.544 -43.586  0.00  0.00     0.182 A 
ATOM      4  N   UNL d   1     -55.061-101.686 -44.107  0.00  0.00    -0.219 NA
ATOM      5  O   UNL d   1     -57.098-100.887 -42.837  0.00  0.00    -0.267 OA
ATOM      6  C   UNL d   1     -55.791-100.689 -44.618  0.00  0.00     0.106 A 
ATOM      7  C   UNL d   1     -55.123-101.165 -44.744  0.00  0.00     0.120 A 
ENDROOT
BRANCH   3   8
ATOM      8  S   UNL d   1     -55.829-101.937 -42.878  0.00  0.00    -0.049 SA
BRANCH   8   9
ATOM      9  C   UNL d   1     -55.219-102.310 -42.482  0.00  0.00     0.038 C 
BRANCH   9  10
ATOM     10  C   UNL d   1     -55.154-102.240 -41.668  0.00  0.00     0.007 A 
ATOM     11  C   UNL d   1     -55.337-102.875 -41.177  0.00  0.00     0.002 A 
ATOM     12  C   UNL d   1     -55.271-102.806 -40.358  0.00  0.00     0.024 A 
ATOM     13  C   UNL d   1     -55.021-102.095 -40.033  0.00  0.00     0.127 A 
ATOM     14  C   UNL d   1     -54.835-101.454 -40.511  0.00  0.00     0.024 A 
ATOM     15  C   UNL d   1     -54.900-101.523 -41.333  0.00  0.00     0.002 A 
BRANCH  13  16
ATOM     16  N   UNL d   1     -54.953-102.019 -39.210  0.00  0.00    -0.114 N 
ATOM     17  O   UNL d   1     -55.127-102.672 -38.708  0.00  0.00    -0.532 OA
ATOM     18  O   UNL d   1     -54.711-101.299 -38.866  0.00  0.00    -0.532 OA
ENDBRANCH  13  16
ENDBRANCH   9  10
ENDBRANCH   8   9
ENDBRANCH   3   8
BRANCH   2  19
ATOM     19  C   UNL d   1     -57.211 -99.979 -43.940  0.00  0.00     0.057 A 
ATOM     20  C   UNL d   1     -56.773 -99.363 -44.283  0.00  0.00     0.005 A 
ATOM     21  C   UNL d   1     -55.949 -99.367 -44.243  0.00  0.00     0.000 C 
ATOM     22  C   UNL d   1     -57.173 -98.757 -44.656  0.00  0.00     0.000 A 
ATOM     23  C   UNL d   1     -58.005 -98.760 -44.692  0.00  0.00     0.000 A 
ATOM     24  C   UNL d   1     -58.434 -99.369 -44.354  0.00  0.00     0.000 A 
ATOM     25  C   UNL d   1     -58.035 -99.982 -43.976  0.00  0.00     0.005 A 
ENDBRANCH   2  19
TORSDOF 5
ENDMDL
