MODEL 1
REMARK VINA RESULT:      45.3      0.000      0.000
REMARK  5 active torsions:
REMARK  status: ('A' for Active; 'I' for Inactive)
REMARK    1  A    between atoms: C_6  and  C_1 
REMARK    2  A    between atoms: C_7  and  C_4 
REMARK    3  A    between atoms: O_14  and  C_6 
REMARK    4  A    between atoms: O_15  and  C_9 
REMARK    5  A    between atoms: O_16  and  C_10 
ROOT
ATOM      1  C   UNL d   1     -55.093-101.098 -42.408  0.00  0.00     0.027 A 
ATOM      2  C   UNL d   1     -55.332-101.529 -43.073  0.00  0.00     0.028 A 
ATOM      3  C   UNL d   1     -55.431-101.152 -43.796  0.00  0.00     0.116 A 
ATOM      4  C   UNL d   1     -55.291-100.339 -43.862  0.00  0.00     0.116 A 
ATOM      5  C   UNL d   1     -54.953-100.284 -42.474  0.00  0.00     0.004 A 
ATOM      6  C   UNL d   1     -55.053 -99.908 -43.205  0.00  0.00     0.026 A 
ENDROOT
BRANCH   1   7
ATOM      7  C   UNL d   1     -54.994-101.474 -41.681  0.00  0.00     0.127 A 
ATOM      8  C   UNL d   1     -54.949-101.099 -40.950  0.00  0.00     0.054 A 
ATOM      9  C   UNL d   1     -54.849-101.682 -40.372  0.00  0.00     0.173 A 
ATOM     10  N   UNL d   1     -54.834-102.414 -40.753  0.00  0.00    -0.121 NA
ATOM     11  O   UNL d   1     -54.924-102.278 -41.562  0.00  0.00    -0.211 OA
BRANCH   9  12
ATOM     12  C   UNL d   1     -54.778-101.558 -39.565  0.00  0.00     0.316 C 
ATOM     13  O   UNL d   1     -54.712-100.787 -39.268  0.00  0.00    -0.257 OA
BRANCH  12  14
ATOM     14  O   UNL d   1     -54.773-102.199 -39.048  0.00  0.00    -0.294 OA
ATOM     15  C   UNL d   1     -54.712-102.068 -38.241  0.00  0.00     0.185 C 
ENDBRANCH  12  14
ENDBRANCH   9  12
ENDBRANCH   1   7
BRANCH   3  16
ATOM     16  O   UNL d   1     -55.668-101.583 -44.454  0.00  0.00    -0.326 OA
ATOM     17  C   UNL d   1     -55.708-102.403 -44.414  0.00  0.00     0.181 C 
ENDBRANCH   3  16
BRANCH   4  18
ATOM     18  O   UNL d   1     -55.390 -99.967 -44.585  0.00  0.00    -0.326 OA
ATOM     19  C   UNL d   1     -55.576 -99.165 -44.610  0.00  0.00     0.181 C 
ENDBRANCH   4  18
TORSDOF 5
ENDMDL
