MODEL 1
REMARK VINA RESULT:      -1.5      0.000      0.000
REMARK  2 active torsions:
REMARK  status: ('A' for Active; 'I' for Inactive)
REMARK    1  A    between atoms: N_11  and  C_4 
REMARK    2  A    between atoms: C_16  and  N_12 
ROOT
ATOM      1  N   UNL d   1      31.432  17.468 -23.867  0.00  0.00    -0.195 N 
ATOM      2  C   UNL d   1      31.246  16.793 -24.269  0.00  0.00     0.168 A 
ATOM      3  C   UNL d   1      30.489  16.563 -24.348  0.00  0.00     0.073 A 
ATOM      4  C   UNL d   1      32.194  17.682 -23.799  0.00  0.00     0.153 A 
ATOM      5  N   UNL d   1      30.104  17.687 -23.621  0.00  0.00    -0.143 NA
ATOM      6  C   UNL d   1      29.917  17.013 -24.022  0.00  0.00     0.185 A 
ATOM      7  N   UNL d   1      31.827  16.350 -24.592  0.00  0.00    -0.227 NA
ATOM      8  C   UNL d   1      30.304  15.896 -24.745  0.00  0.00     0.007 A 
ATOM      9  N   UNL d   1      29.146  16.793 -24.094  0.00  0.00    -0.225 NA
ATOM     10  C   UNL d   1      32.773  17.246 -24.117  0.00  0.00     0.057 A 
ATOM     11  C   UNL d   1      29.546  15.667 -24.824  0.00  0.00     0.019 A 
ATOM     12  C   UNL d   1      32.587  16.571 -24.518  0.00  0.00     0.086 A 
ATOM     13  C   UNL d   1      28.959  16.119 -24.495  0.00  0.00     0.083 A 
ATOM     14  C   UNL d   1      30.889  15.453 -25.069  0.00  0.00     0.000 C 
ATOM     15  C   UNL d   1      33.193  16.113 -24.853  0.00  0.00     0.021 C 
ATOM     16  C   UNL d   1      28.204  15.897 -24.570  0.00  0.00     0.021 C 
ENDROOT
BRANCH   4  17
ATOM     17  N   UNL d   1      32.379  18.379 -23.383  0.00  0.00    -0.286 N 
ATOM     18  C   UNL d   1      32.226  19.105 -23.758  0.00  0.00     0.101 A 
ATOM     19  C   UNL d   1      32.397  19.820 -23.373  0.00  0.00     0.100 A 
ATOM     20  N   UNL d   1      32.721  19.803 -22.614  0.00  0.00    -0.301 N 
ATOM     21  C   UNL d   1      32.877  19.081 -22.231  0.00  0.00     0.100 A 
ATOM     22  C   UNL d   1      32.704  18.365 -22.621  0.00  0.00     0.101 A 
BRANCH  20  23
ATOM     23  C   UNL d   1      32.892  20.512 -22.228  0.00  0.00     0.065 A 
ATOM     24  C   UNL d   1      32.900  20.547 -21.395  0.00  0.00     0.029 A 
ATOM     25  C   UNL d   1      33.074  21.268 -21.007  0.00  0.00     0.059 A 
ATOM     26 CL   UNL d   1      33.082  21.306 -20.179  0.00  0.00    -0.082 Cl
ATOM     27  C   UNL d   1      33.241  21.954 -21.457  0.00  0.00     0.011 A 
ATOM     28  C   UNL d   1      33.232  21.912 -22.295  0.00  0.00     0.002 A 
ATOM     29  C   UNL d   1      33.060  21.199 -22.673  0.00  0.00     0.018 A 
ENDBRANCH  20  23
ENDBRANCH   4  17
TORSDOF 2
ENDMDL
MODEL 2
REMARK VINA RESULT:       0.2      2.458      3.678
REMARK  2 active torsions:
REMARK  status: ('A' for Active; 'I' for Inactive)
REMARK    1  A    between atoms: N_11  and  C_4 
REMARK    2  A    between atoms: C_16  and  N_12 
ROOT
ATOM      1  N   UNL d   1      32.892  20.011 -22.655  0.00  0.00    -0.195 N 
ATOM      2  C   UNL d   1      32.982  19.534 -23.301  0.00  0.00     0.168 A 
ATOM      3  C   UNL d   1      33.041  18.746 -23.218  0.00  0.00     0.073 A 
ATOM      4  C   UNL d   1      32.835  20.797 -22.757  0.00  0.00     0.153 A 
ATOM      5  N   UNL d   1      32.920  18.911 -21.840  0.00  0.00    -0.143 NA
ATOM      6  C   UNL d   1      33.010  18.435 -22.486  0.00  0.00     0.185 A 
ATOM      7  N   UNL d   1      33.012  19.857 -24.031  0.00  0.00    -0.227 NA
ATOM      8  C   UNL d   1      33.129  18.275 -23.856  0.00  0.00     0.007 A 
ATOM      9  N   UNL d   1      33.068  17.638 -22.386  0.00  0.00    -0.225 NA
ATOM     10  C   UNL d   1      32.864  21.121 -23.478  0.00  0.00     0.057 A 
ATOM     11  C   UNL d   1      33.188  17.485 -23.773  0.00  0.00     0.019 A 
ATOM     12  C   UNL d   1      32.954  20.644 -24.123  0.00  0.00     0.086 A 
ATOM     13  C   UNL d   1      33.158  17.161 -23.031  0.00  0.00     0.083 A 
ATOM     14  C   UNL d   1      33.159  18.600 -24.589  0.00  0.00     0.000 C 
ATOM     15  C   UNL d   1      32.984  20.982 -24.881  0.00  0.00     0.021 C 
ATOM     16  C   UNL d   1      33.216  16.378 -22.941  0.00  0.00     0.021 C 
ENDROOT
BRANCH   4  17
ATOM     17  N   UNL d   1      32.743  21.281 -22.087  0.00  0.00    -0.286 N 
ATOM     18  C   UNL d   1      32.127  21.099 -21.559  0.00  0.00     0.101 A 
ATOM     19  C   UNL d   1      32.005  21.560 -20.879  0.00  0.00     0.100 A 
ATOM     20  N   UNL d   1      32.503  22.203 -20.734  0.00  0.00    -0.301 N 
ATOM     21  C   UNL d   1      33.122  22.393 -21.256  0.00  0.00     0.100 A 
ATOM     22  C   UNL d   1      33.240  21.927 -21.937  0.00  0.00     0.101 A 
BRANCH  20  23
ATOM     23  C   UNL d   1      32.385  22.664 -20.060  0.00  0.00     0.065 A 
ATOM     24  C   UNL d   1      32.871  22.562 -19.390  0.00  0.00     0.029 A 
ATOM     25  C   UNL d   1      32.748  23.032 -18.708  0.00  0.00     0.059 A 
ATOM     26 CL   UNL d   1      33.230  22.932 -18.040  0.00  0.00    -0.082 Cl
ATOM     27  C   UNL d   1      32.137  23.604 -18.700  0.00  0.00     0.011 A 
ATOM     28  C   UNL d   1      31.652  23.702 -19.377  0.00  0.00     0.002 A 
ATOM     29  C   UNL d   1      31.777  23.237 -20.047  0.00  0.00     0.018 A 
ENDBRANCH  20  23
ENDBRANCH   4  17
TORSDOF 2
ENDMDL
MODEL 3
REMARK VINA RESULT:       0.8      2.786      6.591
REMARK  2 active torsions:
REMARK  status: ('A' for Active; 'I' for Inactive)
REMARK    1  A    between atoms: N_11  and  C_4 
REMARK    2  A    between atoms: C_16  and  N_12 
ROOT
ATOM      1  N   UNL d   1      32.962  21.622 -20.335  0.00  0.00    -0.195 N 
ATOM      2  C   UNL d   1      32.907  22.317 -19.929  0.00  0.00     0.168 A 
ATOM      3  C   UNL d   1      32.989  22.333 -19.138  0.00  0.00     0.073 A 
ATOM      4  C   UNL d   1      32.878  21.625 -21.125  0.00  0.00     0.153 A 
ATOM      5  N   UNL d   1      33.183  20.953 -19.161  0.00  0.00    -0.143 NA
ATOM      6  C   UNL d   1      33.128  21.649 -18.755  0.00  0.00     0.185 A 
ATOM      7  N   UNL d   1      32.768  22.998 -20.323  0.00  0.00    -0.227 NA
ATOM      8  C   UNL d   1      32.935  23.020 -18.736  0.00  0.00     0.007 A 
ATOM      9  N   UNL d   1      33.213  21.648 -17.954  0.00  0.00    -0.225 NA
ATOM     10  C   UNL d   1      32.740  22.297 -21.520  0.00  0.00     0.057 A 
ATOM     11  C   UNL d   1      33.017  23.035 -17.944  0.00  0.00     0.019 A 
ATOM     12  C   UNL d   1      32.685  22.992 -21.114  0.00  0.00     0.086 A 
ATOM     13  C   UNL d   1      33.158  22.343 -17.547  0.00  0.00     0.083 A 
ATOM     14  C   UNL d   1      32.795  23.702 -19.134  0.00  0.00     0.000 C 
ATOM     15  C   UNL d   1      32.540  23.698 -21.527  0.00  0.00     0.021 C 
ATOM     16  C   UNL d   1      33.241  22.351 -16.761  0.00  0.00     0.021 C 
ENDROOT
BRANCH   4  17
ATOM     17  N   UNL d   1      32.936  20.905 -21.537  0.00  0.00    -0.286 N 
ATOM     18  C   UNL d   1      33.023  20.938 -22.364  0.00  0.00     0.101 A 
ATOM     19  C   UNL d   1      33.084  20.238 -22.807  0.00  0.00     0.100 A 
ATOM     20  N   UNL d   1      33.058  19.510 -22.418  0.00  0.00    -0.301 N 
ATOM     21  C   UNL d   1      32.971  19.468 -21.593  0.00  0.00     0.100 A 
ATOM     22  C   UNL d   1      32.909  20.172 -21.151  0.00  0.00     0.101 A 
BRANCH  20  23
ATOM     23  C   UNL d   1      33.118  18.813 -22.856  0.00  0.00     0.065 A 
ATOM     24  C   UNL d   1      33.144  18.840 -23.689  0.00  0.00     0.029 A 
ATOM     25  C   UNL d   1      33.205  18.131 -24.130  0.00  0.00     0.059 A 
ATOM     26 CL   UNL d   1      33.231  18.155 -24.958  0.00  0.00    -0.082 Cl
ATOM     27  C   UNL d   1      33.241  17.395 -23.732  0.00  0.00     0.011 A 
ATOM     28  C   UNL d   1      33.215  17.374 -22.894  0.00  0.00     0.002 A 
ATOM     29  C   UNL d   1      33.154  18.076 -22.464  0.00  0.00     0.018 A 
ENDBRANCH  20  23
ENDBRANCH   4  17
TORSDOF 2
ENDMDL
