MODEL 1
REMARK VINA RESULT:      83.1      0.000      0.000
REMARK  8 active torsions:
REMARK  status: ('A' for Active; 'I' for Inactive)
REMARK    1  A    between atoms: C_7  and  N_1 
REMARK    2  A    between atoms: C_2  and  C_5 
REMARK    3  A    between atoms: C_9  and  C_4 
REMARK       I    between atoms: N_20  and  C_9 
REMARK    4  A    between atoms: O_25  and  C_14 
REMARK    5  A    between atoms: O_26  and  C_16 
REMARK    6  A    between atoms: C_27  and  N_20 
REMARK    7  A    between atoms: C_23  and  C_28 
REMARK    8  A    between atoms: C_28  and  C_27 
ROOT
ATOM      1  C   UNL d   1      60.970  45.715  51.073  0.00  0.00     0.101 A 
ATOM      2  O   UNL d   1      61.292  46.409  50.764  0.00  0.00    -0.302 OA
ATOM      3  C   UNL d   1      60.763  47.019  50.918  0.00  0.00     0.158 A 
ATOM      4  C   UNL d   1      60.250  45.889  51.416  0.00  0.00     0.027 A 
ATOM      5  C   UNL d   1      60.115  46.705  51.322  0.00  0.00     0.032 A 
ENDROOT
BRANCH   3   6
ATOM      6  C   UNL d   1      60.860  47.811  50.708  0.00  0.00     0.302 C 
ATOM      7  O   UNL d   1      61.525  48.051  50.290  0.00  0.00    -0.263 OA
ATOM      8  N   UNL d   1      60.284  48.362  50.919  0.00  0.00    -0.205 NA
BRANCH   8   9
ATOM      9  C   UNL d   1      60.380  49.156  50.708  0.00  0.00     0.102 C 
BRANCH   9  10
ATOM     10  C   UNL d   1      59.789  49.705  50.876  0.00  0.00     0.021 C 
BRANCH  10  11
ATOM     11  C   UNL d   1      59.094  49.705  50.444  0.00  0.00     0.004 A 
ATOM     12  C   UNL d   1      58.373  49.706  50.838  0.00  0.00     0.026 A 
ATOM     13  C   UNL d   1      57.672  49.706  50.403  0.00  0.00     0.116 A 
ATOM     14  C   UNL d   1      57.696  49.706  49.576  0.00  0.00     0.116 A 
ATOM     15  C   UNL d   1      58.421  49.705  49.186  0.00  0.00     0.026 A 
ATOM     16  C   UNL d   1      59.121  49.705  49.622  0.00  0.00     0.002 A 
BRANCH  13  17
ATOM     17  O   UNL d   1      56.941  49.707  50.794  0.00  0.00    -0.326 OA
ATOM     18  C   UNL d   1      56.910  49.514  51.597  0.00  0.00     0.181 C 
ENDBRANCH  13  17
BRANCH  14  19
ATOM     19  O   UNL d   1      56.997  49.706  49.144  0.00  0.00    -0.326 OA
ATOM     20  C   UNL d   1      56.626  48.995  48.960  0.00  0.00     0.181 C 
ENDBRANCH  14  19
ENDBRANCH  10  11
ENDBRANCH   9  10
ENDBRANCH   8   9
ENDBRANCH   3   6
BRANCH   1  21
ATOM     21  C   UNL d   1      61.326  44.972  51.037  0.00  0.00     0.034 A 
ATOM     22  C   UNL d   1      61.471  44.537  51.727  0.00  0.00     0.004 A 
ATOM     23  C   UNL d   1      61.827  43.795  51.677  0.00  0.00     0.024 A 
ATOM     24  C   UNL d   1      62.037  43.487  50.947  0.00  0.00     0.128 A 
ATOM     25  C   UNL d   1      61.893  43.921  50.257  0.00  0.00     0.035 A 
ATOM     26  C   UNL d   1      61.538  44.662  50.299  0.00  0.00     0.061 A 
ATOM     27 CL   UNL d   1      61.397  45.087  49.612  0.00  0.00    -0.082 Cl
BRANCH  24  28
ATOM     28  N   UNL d   1      62.395  42.742  50.895  0.00  0.00    -0.114 N 
ATOM     29  O   UNL d   1      62.286  42.185  51.491  0.00  0.00    -0.532 OA
ATOM     30  O   UNL d   1      62.862  42.558  50.242  0.00  0.00    -0.532 OA
ENDBRANCH  24  28
ENDBRANCH   1  21
TORSDOF 8
ENDMDL
MODEL 2
REMARK VINA RESULT:      84.3      1.796      6.119
REMARK  8 active torsions:
REMARK  status: ('A' for Active; 'I' for Inactive)
REMARK    1  A    between atoms: C_7  and  N_1 
REMARK    2  A    between atoms: C_2  and  C_5 
REMARK    3  A    between atoms: C_9  and  C_4 
REMARK       I    between atoms: N_20  and  C_9 
REMARK    4  A    between atoms: O_25  and  C_14 
REMARK    5  A    between atoms: O_26  and  C_16 
REMARK    6  A    between atoms: C_27  and  N_20 
REMARK    7  A    between atoms: C_23  and  C_28 
REMARK    8  A    between atoms: C_28  and  C_27 
ROOT
ATOM      1  C   UNL d   1      59.777  49.127  50.953  0.00  0.00     0.101 A 
ATOM      2  O   UNL d   1      60.143  48.388  50.925  0.00  0.00    -0.302 OA
ATOM      3  C   UNL d   1      60.933  48.509  50.729  0.00  0.00     0.158 A 
ATOM      4  C   UNL d   1      60.330  49.702  50.778  0.00  0.00     0.027 A 
ATOM      5  C   UNL d   1      61.056  49.320  50.636  0.00  0.00     0.032 A 
ENDROOT
BRANCH   3   6
ATOM      6  C   UNL d   1      61.507  47.923  50.640  0.00  0.00     0.302 C 
ATOM      7  O   UNL d   1      62.179  47.927  51.111  0.00  0.00    -0.263 OA
ATOM      8  N   UNL d   1      61.401  47.333  50.074  0.00  0.00    -0.205 NA
BRANCH   8   9
ATOM      9  C   UNL d   1      61.977  46.745  49.984  0.00  0.00     0.102 C 
BRANCH   9  10
ATOM     10  C   UNL d   1      61.872  46.142  49.432  0.00  0.00     0.021 C 
BRANCH  10  11
ATOM     11  C   UNL d   1      61.978  45.361  49.651  0.00  0.00     0.004 A 
ATOM     12  C   UNL d   1      61.479  45.027  50.211  0.00  0.00     0.026 A 
ATOM     13  C   UNL d   1      61.586  44.239  50.433  0.00  0.00     0.116 A 
ATOM     14  C   UNL d   1      62.192  43.790  50.091  0.00  0.00     0.116 A 
ATOM     15  C   UNL d   1      62.688  44.129  49.530  0.00  0.00     0.026 A 
ATOM     16  C   UNL d   1      62.581  44.917  49.310  0.00  0.00     0.002 A 
BRANCH  13  17
ATOM     17  O   UNL d   1      61.086  43.895  50.997  0.00  0.00    -0.326 OA
ATOM     18  C   UNL d   1      60.446  44.329  51.291  0.00  0.00     0.181 C 
ENDBRANCH  13  17
BRANCH  14  19
ATOM     19  O   UNL d   1      62.296  43.005  50.313  0.00  0.00    -0.326 OA
ATOM     20  C   UNL d   1      62.968  42.782  50.731  0.00  0.00     0.181 C 
ENDBRANCH  14  19
ENDBRANCH  10  11
ENDBRANCH   9  10
ENDBRANCH   8   9
ENDBRANCH   3   6
BRANCH   1  21
ATOM     21  C   UNL d   1      58.982  49.254  51.131  0.00  0.00     0.034 A 
ATOM     22  C   UNL d   1      58.401  49.193  50.544  0.00  0.00     0.004 A 
ATOM     23  C   UNL d   1      57.609  49.322  50.735  0.00  0.00     0.024 A 
ATOM     24  C   UNL d   1      57.396  49.511  51.504  0.00  0.00     0.128 A 
ATOM     25  C   UNL d   1      57.977  49.573  52.091  0.00  0.00     0.035 A 
ATOM     26  C   UNL d   1      58.768  49.445  51.908  0.00  0.00     0.061 A 
ATOM     27 CL   UNL d   1      59.338  49.507  52.494  0.00  0.00    -0.082 Cl
BRANCH  24  28
ATOM     28  N   UNL d   1      56.602  49.641  51.697  0.00  0.00    -0.114 N 
ATOM     29  O   UNL d   1      56.034  49.705  51.105  0.00  0.00    -0.532 OA
ATOM     30  O   UNL d   1      56.380  49.708  52.488  0.00  0.00    -0.532 OA
ENDBRANCH  24  28
ENDBRANCH   1  21
TORSDOF 8
ENDMDL
