MODEL 1
REMARK VINA RESULT:       5.2      0.000      0.000
REMARK  4 active torsions:
REMARK  status: ('A' for Active; 'I' for Inactive)
REMARK    1  A    between atoms: N_10  and  C_3 
REMARK    2  A    between atoms: C_15  and  C_5 
REMARK    3  A    between atoms: C_14  and  C_9 
REMARK       I    between atoms: C_11  and  N_12 
REMARK    4  A    between atoms: C_13  and  C_11 
ROOT
ATOM      1  N   UNL d   1      57.678   0.076  31.331  0.00  0.00    -0.196 N 
ATOM      2  C   UNL d   1      58.354   0.007  30.844  0.00  0.00     0.167 A 
ATOM      3  C   UNL d   1      57.772   0.293  32.118  0.00  0.00     0.152 A 
ATOM      4  N   UNL d   1      56.862  -0.288  30.227  0.00  0.00    -0.163 NA
ATOM      5  C   UNL d   1      58.280  -0.207  30.061  0.00  0.00     0.055 A 
ATOM      6  N   UNL d   1      59.107   0.156  31.157  0.00  0.00    -0.231 NA
ATOM      7  C   UNL d   1      58.528   0.444  32.435  0.00  0.00     0.052 A 
ATOM      8  C   UNL d   1      57.527  -0.356  29.748  0.00  0.00     0.104 A 
ATOM      9  C   UNL d   1      59.193   0.375  31.956  0.00  0.00     0.063 A 
ATOM     10  C   UNL d   1      57.438  -0.573  28.960  0.00  0.00     0.023 C 
ENDROOT
BRANCH   3  11
ATOM     11  N   UNL d   1      57.075   0.365  32.620  0.00  0.00    -0.286 N 
ATOM     12  C   UNL d   1      56.273   0.389  32.468  0.00  0.00     0.101 A 
ATOM     13  C   UNL d   1      55.747   0.463  33.089  0.00  0.00     0.102 A 
ATOM     14  N   UNL d   1      56.024   0.512  33.854  0.00  0.00    -0.267 N 
ATOM     15  C   UNL d   1      55.500   0.585  34.463  0.00  0.00     0.288 C 
ATOM     16  C   UNL d   1      56.815   0.488  33.993  0.00  0.00     0.102 A 
ATOM     17  O   UNL d   1      55.771   0.634  35.228  0.00  0.00    -0.264 OA
ATOM     18  C   UNL d   1      57.348   0.414  33.373  0.00  0.00     0.101 A 
BRANCH  15  19
ATOM     19  C   UNL d   1      54.706   0.609  34.321  0.00  0.00     0.156 A 
ATOM     20  O   UNL d   1      54.184   0.617  34.941  0.00  0.00    -0.300 OA
ATOM     21  C   UNL d   1      53.385   0.641  34.807  0.00  0.00     0.123 A 
ATOM     22  C   UNL d   1      53.105   0.658  34.050  0.00  0.00     0.029 A 
ATOM     23  C   UNL d   1      54.424   0.626  33.566  0.00  0.00     0.032 A 
ENDBRANCH  15  19
ENDBRANCH   3  11
BRANCH   9  24
ATOM     24  C   UNL d   1      59.976   0.529  32.279  0.00  0.00     0.036 C 
ATOM     25  C   UNL d   1      60.747   0.682  32.603  0.00  0.00     0.006 C 
ATOM     26  C   UNL d   1      60.654   0.587  31.750  0.00  0.00     0.006 C 
ATOM     27  C   UNL d   1      60.069   0.624  33.126  0.00  0.00     0.006 C 
ENDBRANCH   9  24
BRANCH   5  28
ATOM     28  C   UNL d   1      58.950  -0.276  29.578  0.00  0.00     0.004 A 
ATOM     29  C   UNL d   1      59.198   0.373  29.136  0.00  0.00     0.000 A 
ATOM     30  C   UNL d   1      59.874   0.303  28.649  0.00  0.00     0.000 A 
ATOM     31  C   UNL d   1      60.280  -0.414  28.620  0.00  0.00     0.000 A 
ATOM     32  C   UNL d   1      60.021  -1.059  29.069  0.00  0.00     0.000 A 
ATOM     33  C   UNL d   1      59.355  -0.990  29.549  0.00  0.00     0.000 A 
ENDBRANCH   5  28
TORSDOF 4
ENDMDL
MODEL 2
REMARK VINA RESULT:       6.5      1.136      2.538
REMARK  4 active torsions:
REMARK  status: ('A' for Active; 'I' for Inactive)
REMARK    1  A    between atoms: N_10  and  C_3 
REMARK    2  A    between atoms: C_15  and  C_5 
REMARK    3  A    between atoms: C_14  and  C_9 
REMARK       I    between atoms: C_11  and  N_12 
REMARK    4  A    between atoms: C_13  and  C_11 
ROOT
ATOM      1  N   UNL d   1      58.539  -0.168  31.232  0.00  0.00    -0.196 N 
ATOM      2  C   UNL d   1      59.002  -0.390  30.572  0.00  0.00     0.167 A 
ATOM      3  C   UNL d   1      57.773  -0.459  31.300  0.00  0.00     0.152 A 
ATOM      4  N   UNL d   1      59.623   0.612  31.713  0.00  0.00    -0.163 NA
ATOM      5  C   UNL d   1      59.764  -0.112  30.488  0.00  0.00     0.055 A 
ATOM      6  N   UNL d   1      58.687  -0.896  29.996  0.00  0.00    -0.231 NA
ATOM      7  C   UNL d   1      57.454  -0.968  30.722  0.00  0.00     0.052 A 
ATOM      8  C   UNL d   1      60.079   0.394  31.064  0.00  0.00     0.104 A 
ATOM      9  C   UNL d   1      57.909  -1.186  30.073  0.00  0.00     0.063 A 
ATOM     10  C   UNL d   1      60.845   0.682  30.991  0.00  0.00     0.023 C 
ENDROOT
BRANCH   3  11
ATOM     11  N   UNL d   1      57.296  -0.230  31.980  0.00  0.00    -0.286 N 
ATOM     12  C   UNL d   1      57.452  -0.165  32.780  0.00  0.00     0.101 A 
ATOM     13  C   UNL d   1      56.859   0.073  33.288  0.00  0.00     0.102 A 
ATOM     14  N   UNL d   1      56.116   0.243  32.997  0.00  0.00    -0.267 N 
ATOM     15  C   UNL d   1      55.534   0.477  33.503  0.00  0.00     0.288 C 
ATOM     16  C   UNL d   1      55.973   0.175  32.209  0.00  0.00     0.102 A 
ATOM     17  O   UNL d   1      54.792   0.648  33.218  0.00  0.00    -0.264 OA
ATOM     18  C   UNL d   1      56.565  -0.063  31.693  0.00  0.00     0.101 A 
BRANCH  15  19
ATOM     19  C   UNL d   1      55.680   0.545  34.294  0.00  0.00     0.156 A 
ATOM     20  O   UNL d   1      55.067   0.512  34.823  0.00  0.00    -0.300 OA
ATOM     21  C   UNL d   1      55.205   0.579  35.619  0.00  0.00     0.123 A 
ATOM     22  C   UNL d   1      55.959   0.678  35.888  0.00  0.00     0.029 A 
ATOM     23  C   UNL d   1      56.432   0.644  34.566  0.00  0.00     0.032 A 
ENDBRANCH  15  19
ENDBRANCH   3  11
BRANCH   9  24
ATOM     24  C   UNL d   1      57.584  -1.711  29.473  0.00  0.00     0.036 C 
ATOM     25  C   UNL d   1      57.263  -2.235  28.886  0.00  0.00     0.006 C 
ATOM     26  C   UNL d   1      57.288  -1.385  28.733  0.00  0.00     0.006 C 
ATOM     27  C   UNL d   1      57.559  -2.555  29.625  0.00  0.00     0.006 C 
ENDBRANCH   9  24
BRANCH   5  28
ATOM     28  C   UNL d   1      60.222  -0.331  29.834  0.00  0.00     0.004 A 
ATOM     29  C   UNL d   1      60.243   0.159  29.171  0.00  0.00     0.000 A 
ATOM     30  C   UNL d   1      60.706  -0.063  28.511  0.00  0.00     0.000 A 
ATOM     31  C   UNL d   1      61.133  -0.767  28.535  0.00  0.00     0.000 A 
ATOM     32  C   UNL d   1      61.104  -1.251  29.206  0.00  0.00     0.000 A 
ATOM     33  C   UNL d   1      60.649  -1.033  29.856  0.00  0.00     0.000 A 
ENDBRANCH   5  28
TORSDOF 4
ENDMDL
