MODEL 1
REMARK VINA RESULT:      -1.7      0.000      0.000
REMARK  6 active torsions:
REMARK  status: ('A' for Active; 'I' for Inactive)
REMARK    1  A    between atoms: C_4  and  C_1 
REMARK    2  A    between atoms: C_7  and  C_4 
REMARK    3  A    between atoms: N_10  and  C_7 
REMARK    4  A    between atoms: C_13  and  N_10 
REMARK    5  A    between atoms: O_18  and  C_11 
REMARK    6  A    between atoms: O_20  and  C_15 
ROOT
ATOM      1  C   UNL d   1      56.806  -0.300  32.218  0.00  0.00     0.122 C 
ATOM      2  C   UNL d   1      56.777  -1.064  31.915  0.00  0.00     0.106 C 
ATOM      3  N   UNL d   1      56.748  -1.830  31.612  0.00  0.00    -0.191 NA
ENDROOT
BRANCH   1   4
ATOM      4  C   UNL d   1      56.281  -0.070  32.812  0.00  0.00     0.159 A 
ATOM      5  N   UNL d   1      55.471   0.065  32.721  0.00  0.00    -0.226 NA
ATOM      6  C   UNL d   1      55.166   0.282  33.450  0.00  0.00     0.099 A 
ATOM      7  C   UNL d   1      54.398   0.482  33.696  0.00  0.00     0.021 A 
ATOM      8  C   UNL d   1      55.784   0.282  33.996  0.00  0.00     0.083 A 
ATOM      9  C   UNL d   1      54.261   0.681  34.487  0.00  0.00     0.002 A 
ATOM     10  C   UNL d   1      54.878   0.681  35.033  0.00  0.00     0.002 A 
ATOM     11  C   UNL d   1      55.641   0.483  34.794  0.00  0.00     0.019 A 
ATOM     12  N   UNL d   1      56.473   0.066  33.607  0.00  0.00    -0.287 N 
ATOM     13  C   UNL d   1      57.231  -0.007  33.939  0.00  0.00     0.101 C 
ENDBRANCH   1   4
BRANCH   1  14
ATOM     14  C   UNL d   1      57.360   0.236  31.928  0.00  0.00     0.112 C 
BRANCH  14  15
ATOM     15  N   UNL d   1      57.465   0.321  31.114  0.00  0.00    -0.241 NA
BRANCH  15  16
ATOM     16  C   UNL d   1      58.222   0.411  30.803  0.00  0.00     0.104 A 
ATOM     17  C   UNL d   1      58.344   0.355  29.989  0.00  0.00     0.114 A 
ATOM     18  C   UNL d   1      59.101   0.445  29.678  0.00  0.00     0.050 A 
ATOM     19  C   UNL d   1      59.740   0.592  30.181  0.00  0.00     0.096 A 
ATOM     20  C   UNL d   1      59.614   0.647  30.995  0.00  0.00     0.026 A 
ATOM     21  C   UNL d   1      58.857   0.557  31.306  0.00  0.00     0.023 A 
BRANCH  17  22
ATOM     22  O   UNL d   1      57.709   0.209  29.486  0.00  0.00    -0.327 OA
ATOM     23  C   UNL d   1      57.845  -0.036  28.710  0.00  0.00     0.181 C 
ENDBRANCH  17  22
BRANCH  19  24
ATOM     24  O   UNL d   1      60.497   0.682  29.871  0.00  0.00    -0.328 OA
ATOM     25  C   UNL d   1      61.105   0.162  30.094  0.00  0.00     0.181 C 
ENDBRANCH  19  24
ENDBRANCH  15  16
ENDBRANCH  14  15
ENDBRANCH   1  14
TORSDOF 6
ENDMDL
MODEL 2
REMARK VINA RESULT:      -0.8      1.758      5.085
REMARK  6 active torsions:
REMARK  status: ('A' for Active; 'I' for Inactive)
REMARK    1  A    between atoms: C_4  and  C_1 
REMARK    2  A    between atoms: C_7  and  C_4 
REMARK    3  A    between atoms: N_10  and  C_7 
REMARK    4  A    between atoms: C_13  and  N_10 
REMARK    5  A    between atoms: O_18  and  C_11 
REMARK    6  A    between atoms: O_20  and  C_15 
ROOT
ATOM      1  C   UNL d   1      57.823  -0.778  30.595  0.00  0.00     0.122 C 
ATOM      2  C   UNL d   1      57.556  -1.477  30.253  0.00  0.00     0.106 C 
ATOM      3  N   UNL d   1      57.288  -2.177  29.910  0.00  0.00    -0.191 NA
ENDROOT
BRANCH   1   4
ATOM      4  C   UNL d   1      58.537  -0.445  30.350  0.00  0.00     0.159 A 
ATOM      5  N   UNL d   1      59.198  -0.306  30.826  0.00  0.00    -0.226 NA
ATOM      6  C   UNL d   1      59.782   0.031  30.359  0.00  0.00     0.099 A 
ATOM      7  C   UNL d   1      60.554   0.286  30.529  0.00  0.00     0.021 A 
ATOM      8  C   UNL d   1      59.486   0.102  29.592  0.00  0.00     0.083 A 
ATOM      9  C   UNL d   1      61.019   0.610  29.927  0.00  0.00     0.002 A 
ATOM     10  C   UNL d   1      60.724   0.681  29.161  0.00  0.00     0.002 A 
ATOM     11  C   UNL d   1      59.960   0.430  28.988  0.00  0.00     0.019 A 
ATOM     12  N   UNL d   1      58.719  -0.190  29.583  0.00  0.00    -0.287 N 
ATOM     13  C   UNL d   1      58.210  -0.228  28.928  0.00  0.00     0.101 C 
ENDBRANCH   1   4
BRANCH   1  14
ATOM     14  C   UNL d   1      57.376  -0.411  31.181  0.00  0.00     0.112 C 
BRANCH  14  15
ATOM     15  N   UNL d   1      56.843  -0.852  31.631  0.00  0.00    -0.241 NA
BRANCH  15  16
ATOM     16  C   UNL d   1      56.414  -0.491  32.233  0.00  0.00     0.104 A 
ATOM     17  C   UNL d   1      56.124  -0.940  32.861  0.00  0.00     0.114 A 
ATOM     18  C   UNL d   1      55.694  -0.578  33.463  0.00  0.00     0.050 A 
ATOM     19  C   UNL d   1      55.553   0.236  33.439  0.00  0.00     0.096 A 
ATOM     20  C   UNL d   1      55.845   0.682  32.809  0.00  0.00     0.026 A 
ATOM     21  C   UNL d   1      56.274   0.321  32.207  0.00  0.00     0.023 A 
BRANCH  17  22
ATOM     22  O   UNL d   1      56.263  -1.750  32.887  0.00  0.00    -0.327 OA
ATOM     23  C   UNL d   1      55.692  -2.258  33.198  0.00  0.00     0.181 C 
ENDBRANCH  17  22
BRANCH  19  24
ATOM     24  O   UNL d   1      55.124   0.598  34.041  0.00  0.00    -0.328 OA
ATOM     25  C   UNL d   1      54.294   0.557  34.046  0.00  0.00     0.181 C 
ENDBRANCH  19  24
ENDBRANCH  15  16
ENDBRANCH  14  15
ENDBRANCH   1  14
TORSDOF 6
ENDMDL
MODEL 3
REMARK VINA RESULT:      -0.1      2.607      4.054
REMARK  6 active torsions:
REMARK  status: ('A' for Active; 'I' for Inactive)
REMARK    1  A    between atoms: C_4  and  C_1 
REMARK    2  A    between atoms: C_7  and  C_4 
REMARK    3  A    between atoms: N_10  and  C_7 
REMARK    4  A    between atoms: C_13  and  N_10 
REMARK    5  A    between atoms: O_18  and  C_11 
REMARK    6  A    between atoms: O_20  and  C_15 
ROOT
ATOM      1  C   UNL d   1      59.178  -0.244  29.867  0.00  0.00     0.122 C 
ATOM      2  C   UNL d   1      59.857   0.218  29.818  0.00  0.00     0.106 C 
ATOM      3  N   UNL d   1      60.537   0.681  29.769  0.00  0.00    -0.191 NA
ENDROOT
BRANCH   1   4
ATOM      4  C   UNL d   1      58.590  -0.059  30.416  0.00  0.00     0.159 A 
ATOM      5  N   UNL d   1      58.638  -0.158  31.235  0.00  0.00    -0.226 NA
ATOM      6  C   UNL d   1      57.933   0.096  31.564  0.00  0.00     0.099 A 
ATOM      7  C   UNL d   1      57.664   0.129  32.349  0.00  0.00     0.021 A 
ATOM      8  C   UNL d   1      57.444   0.356  30.953  0.00  0.00     0.083 A 
ATOM      9  C   UNL d   1      56.907   0.421  32.511  0.00  0.00     0.002 A 
ATOM     10  C   UNL d   1      56.418   0.680  31.900  0.00  0.00     0.002 A 
ATOM     11  C   UNL d   1      56.680   0.650  31.120  0.00  0.00     0.019 A 
ATOM     12  N   UNL d   1      57.845   0.262  30.244  0.00  0.00    -0.287 N 
ATOM     13  C   UNL d   1      57.565   0.450  29.484  0.00  0.00     0.101 C 
ENDBRANCH   1   4
BRANCH   1  14
ATOM     14  C   UNL d   1      59.085  -0.892  29.367  0.00  0.00     0.112 C 
BRANCH  14  15
ATOM     15  N   UNL d   1      59.612  -1.526  29.412  0.00  0.00    -0.241 NA
BRANCH  15  16
ATOM     16  C   UNL d   1      59.374  -2.277  29.173  0.00  0.00     0.104 A 
ATOM     17  C   UNL d   1      59.936  -2.869  29.051  0.00  0.00     0.114 A 
ATOM     18  C   UNL d   1      59.697  -3.620  28.813  0.00  0.00     0.050 A 
ATOM     19  C   UNL d   1      58.896  -3.782  28.696  0.00  0.00     0.096 A 
ATOM     20  C   UNL d   1      58.337  -3.188  28.819  0.00  0.00     0.026 A 
ATOM     21  C   UNL d   1      58.574  -2.436  29.057  0.00  0.00     0.023 A 
BRANCH  17  22
ATOM     22  O   UNL d   1      60.735  -2.710  29.167  0.00  0.00    -0.327 OA
ATOM     23  C   UNL d   1      61.116  -2.983  29.846  0.00  0.00     0.181 C 
ENDBRANCH  17  22
BRANCH  19  24
ATOM     24  O   UNL d   1      58.657  -4.534  28.457  0.00  0.00    -0.328 OA
ATOM     25  C   UNL d   1      57.927  -4.840  28.709  0.00  0.00     0.181 C 
ENDBRANCH  19  24
ENDBRANCH  15  16
ENDBRANCH  14  15
ENDBRANCH   1  14
TORSDOF 6
ENDMDL
