MODEL 1
REMARK VINA RESULT:      48.6      0.000      0.000
REMARK  6 active torsions:
REMARK  status: ('A' for Active; 'I' for Inactive)
REMARK    1  A    between atoms: N_2  and  C_1 
REMARK    2  A    between atoms: N_3  and  C_1 
REMARK       I    between atoms: C_4  and  N_2 
REMARK    3  A    between atoms: C_5  and  N_3 
REMARK    4  A    between atoms: C_14  and  C_4 
REMARK    5  A    between atoms: C_8  and  O_10 
REMARK    6  A    between atoms: O_10  and  C_14 
ROOT
ATOM      1  N   UNL d   1     -49.026  27.962  34.449  0.00  0.00    -0.177 NA
ATOM      2  C   UNL d   1     -49.511  27.901  33.779  0.00  0.00     0.306 C 
ATOM      3  O   UNL d   1     -49.726  28.618  33.372  0.00  0.00    -0.263 OA
ENDROOT
BRANCH   2   4
ATOM      4  C   UNL d   1     -49.789  27.185  33.494  0.00  0.00     0.185 C 
BRANCH   4   5
ATOM      5  O   UNL d   1     -50.580  26.983  33.518  0.00  0.00    -0.300 OA
BRANCH   5   6
ATOM      6  C   UNL d   1     -50.815  26.214  33.470  0.00  0.00     0.106 A 
ATOM      7  C   UNL d   1     -51.642  26.020  33.413  0.00  0.00     0.057 A 
ATOM      8  C   UNL d   1     -51.855  25.215  33.365  0.00  0.00     0.009 A 
ATOM      9 BR   UNL d   1     -52.212  26.633  33.408  0.00  0.00    -0.047 Br
ATOM     10  C   UNL d   1     -51.332  24.629  33.369  0.00  0.00     0.001 A 
ATOM     11  C   UNL d   1     -50.497  24.828  33.426  0.00  0.00     0.002 A 
ATOM     12  C   UNL d   1     -51.565  23.830  33.319  0.00  0.00     0.000 C 
ATOM     13  C   UNL d   1     -50.281  25.618  33.474  0.00  0.00     0.025 A 
ENDBRANCH   5   6
ENDBRANCH   4   5
ENDBRANCH   2   4
BRANCH   1  14
ATOM     14  C   UNL d   1     -48.755  28.690  34.723  0.00  0.00     0.225 C 
ATOM     15  S   UNL d   1     -48.891  29.385  34.276  0.00  0.00    -0.037 SA
BRANCH  14  16
ATOM     16  N   UNL d   1     -48.350  28.722  35.438  0.00  0.00    -0.198 NA
BRANCH  16  17
ATOM     17  C   UNL d   1     -47.920  29.412  35.638  0.00  0.00     0.165 A 
ATOM     18  N   UNL d   1     -47.654  29.948  35.039  0.00  0.00    -0.225 NA
ATOM     19  C   UNL d   1     -47.231  30.624  35.245  0.00  0.00     0.101 A 
ATOM     20  C   UNL d   1     -47.073  30.769  36.041  0.00  0.00     0.021 A 
ATOM     21  C   UNL d   1     -47.337  30.237  36.620  0.00  0.00     0.005 A 
ATOM     22  C   UNL d   1     -47.751  29.574  36.423  0.00  0.00     0.039 A 
ENDBRANCH  16  17
ENDBRANCH  14  16
ENDBRANCH   1  14
TORSDOF 6
ENDMDL
