MODEL 1
REMARK VINA RESULT:      -5.6      0.000      0.000
REMARK  4 active torsions:
REMARK  status: ('A' for Active; 'I' for Inactive)
REMARK    1  A    between atoms: C_10  and  C_3 
REMARK    2  A    between atoms: S_8  and  C_4 
REMARK       I    between atoms: N_6  and  C_7 
REMARK    3  A    between atoms: C_7  and  C_9 
REMARK    4  A    between atoms: C_9  and  S_8 
ROOT
ATOM      1  O   UNL d   1      57.696  -0.166  31.225  0.00  0.00    -0.263 OA
ATOM      2  N   UNL d   1      56.735   0.667  30.823  0.00  0.00    -0.120 NA
ATOM      3  C   UNL d   1      56.962   0.156  31.421  0.00  0.00     0.205 A 
ATOM      4  C   UNL d   1      57.923   0.150  30.499  0.00  0.00     0.236 A 
ATOM      5  N   UNL d   1      57.333   0.664  30.249  0.00  0.00    -0.114 NA
ENDROOT
BRANCH   4   6
ATOM      6  S   UNL d   1      58.628  -0.021  30.090  0.00  0.00    -0.036 SA
BRANCH   6   7
ATOM      7  C   UNL d   1      58.686  -0.713  29.642  0.00  0.00     0.100 C 
BRANCH   7   8
ATOM      8  C   UNL d   1      59.403  -0.937  29.299  0.00  0.00     0.272 C 
ATOM      9  N   UNL d   1      59.520  -1.711  29.051  0.00  0.00    -0.272 N 
ATOM     10  C   UNL d   1      58.922  -2.276  29.141  0.00  0.00     0.083 A 
ATOM     11  C   UNL d   1      60.248  -1.923  28.706  0.00  0.00     0.083 A 
ATOM     12  C   UNL d   1      59.052  -3.052  28.887  0.00  0.00     0.019 A 
ATOM     13  C   UNL d   1      59.767  -3.262  28.549  0.00  0.00     0.003 A 
ATOM     14  C   UNL d   1      60.363  -2.707  28.457  0.00  0.00     0.019 A 
ATOM     15  O   UNL d   1      60.000  -0.372  29.208  0.00  0.00    -0.266 OA
ENDBRANCH   7   8
ENDBRANCH   6   7
ENDBRANCH   4   6
BRANCH   3  16
ATOM     16  C   UNL d   1      56.558  -0.030  32.109  0.00  0.00     0.043 A 
ATOM     17  C   UNL d   1      56.351   0.572  32.634  0.00  0.00     0.004 A 
ATOM     18  C   UNL d   1      55.944   0.392  33.328  0.00  0.00     0.000 A 
ATOM     19  C   UNL d   1      55.748  -0.398  33.488  0.00  0.00     0.000 A 
ATOM     20  C   UNL d   1      55.955  -1.000  32.964  0.00  0.00     0.000 A 
ATOM     21  C   UNL d   1      56.360  -0.804  32.276  0.00  0.00     0.004 A 
ENDBRANCH   3  16
TORSDOF 4
ENDMDL
MODEL 2
REMARK VINA RESULT:      -5.1      0.897      4.783
REMARK  4 active torsions:
REMARK  status: ('A' for Active; 'I' for Inactive)
REMARK    1  A    between atoms: C_10  and  C_3 
REMARK    2  A    between atoms: S_8  and  C_4 
REMARK       I    between atoms: N_6  and  C_7 
REMARK    3  A    between atoms: C_7  and  C_9 
REMARK    4  A    between atoms: C_9  and  S_8 
ROOT
ATOM      1  O   UNL d   1      58.783  -1.280  29.874  0.00  0.00    -0.263 OA
ATOM      2  N   UNL d   1      58.504  -1.043  28.591  0.00  0.00    -0.120 NA
ATOM      3  C   UNL d   1      58.884  -1.558  29.102  0.00  0.00     0.205 A 
ATOM      4  C   UNL d   1      58.338  -0.589  29.836  0.00  0.00     0.236 A 
ATOM      5  N   UNL d   1      58.164  -0.440  29.046  0.00  0.00    -0.114 NA
ENDROOT
BRANCH   4   6
ATOM      6  S   UNL d   1      58.104  -0.122  30.484  0.00  0.00    -0.036 SA
BRANCH   6   7
ATOM      7  C   UNL d   1      57.579  -0.428  31.044  0.00  0.00     0.100 C 
BRANCH   7   8
ATOM      8  C   UNL d   1      57.405  -0.011  31.735  0.00  0.00     0.272 C 
ATOM      9  N   UNL d   1      56.822  -0.281  32.247  0.00  0.00    -0.272 N 
ATOM     10  C   UNL d   1      56.403  -0.974  32.077  0.00  0.00     0.083 A 
ATOM     11  C   UNL d   1      56.657   0.150  32.940  0.00  0.00     0.083 A 
ATOM     12  C   UNL d   1      55.818  -1.235  32.601  0.00  0.00     0.019 A 
ATOM     13  C   UNL d   1      55.655  -0.813  33.283  0.00  0.00     0.003 A 
ATOM     14  C   UNL d   1      56.067  -0.126  33.456  0.00  0.00     0.019 A 
ATOM     15  O   UNL d   1      57.824   0.682  31.904  0.00  0.00    -0.266 OA
ENDBRANCH   7   8
ENDBRANCH   6   7
ENDBRANCH   4   6
BRANCH   3  16
ATOM     16  C   UNL d   1      59.300  -2.238  28.919  0.00  0.00     0.043 A 
ATOM     17  C   UNL d   1      60.124  -2.214  28.886  0.00  0.00     0.004 A 
ATOM     18  C   UNL d   1      60.549  -2.896  28.702  0.00  0.00     0.000 A 
ATOM     19  C   UNL d   1      60.138  -3.601  28.552  0.00  0.00     0.000 A 
ATOM     20  C   UNL d   1      59.314  -3.626  28.584  0.00  0.00     0.000 A 
ATOM     21  C   UNL d   1      58.905  -2.937  28.769  0.00  0.00     0.004 A 
ENDBRANCH   3  16
TORSDOF 4
ENDMDL
MODEL 3
REMARK VINA RESULT:      -4.8      1.872      2.326
REMARK  4 active torsions:
REMARK  status: ('A' for Active; 'I' for Inactive)
REMARK    1  A    between atoms: C_10  and  C_3 
REMARK    2  A    between atoms: S_8  and  C_4 
REMARK       I    between atoms: N_6  and  C_7 
REMARK    3  A    between atoms: C_7  and  C_9 
REMARK    4  A    between atoms: C_9  and  S_8 
ROOT
ATOM      1  O   UNL d   1      56.648   0.099  31.986  0.00  0.00    -0.263 OA
ATOM      2  N   UNL d   1      56.520  -1.129  32.490  0.00  0.00    -0.120 NA
ATOM      3  C   UNL d   1      56.369  -0.337  32.629  0.00  0.00     0.205 A 
ATOM      4  C   UNL d   1      56.973  -0.430  31.446  0.00  0.00     0.236 A 
ATOM      5  N   UNL d   1      56.896  -1.189  31.754  0.00  0.00    -0.114 NA
ENDROOT
BRANCH   4   6
ATOM      6  S   UNL d   1      57.320  -0.232  30.715  0.00  0.00    -0.036 SA
BRANCH   6   7
ATOM      7  C   UNL d   1      58.123  -0.042  30.679  0.00  0.00     0.100 C 
BRANCH   7   8
ATOM      8  C   UNL d   1      58.503   0.055  29.953  0.00  0.00     0.272 C 
ATOM      9  N   UNL d   1      59.298   0.264  29.925  0.00  0.00    -0.272 N 
ATOM     10  C   UNL d   1      59.726   0.379  30.624  0.00  0.00     0.083 A 
ATOM     11  C   UNL d   1      59.668   0.359  29.186  0.00  0.00     0.083 A 
ATOM     12  C   UNL d   1      60.525   0.588  30.583  0.00  0.00     0.019 A 
ATOM     13  C   UNL d   1      60.891   0.682  29.856  0.00  0.00     0.003 A 
ATOM     14  C   UNL d   1      60.472   0.570  29.161  0.00  0.00     0.019 A 
ATOM     15  O   UNL d   1      58.075  -0.059  29.255  0.00  0.00    -0.266 OA
ENDBRANCH   7   8
ENDBRANCH   6   7
ENDBRANCH   4   6
BRANCH   3  16
ATOM     16  C   UNL d   1      56.007   0.002  33.281  0.00  0.00     0.043 A 
ATOM     17  C   UNL d   1      55.183   0.019  33.325  0.00  0.00     0.004 A 
ATOM     18  C   UNL d   1      54.812   0.359  33.979  0.00  0.00     0.000 A 
ATOM     19  C   UNL d   1      55.278   0.682  34.585  0.00  0.00     0.000 A 
ATOM     20  C   UNL d   1      56.102   0.666  34.541  0.00  0.00     0.000 A 
ATOM     21  C   UNL d   1      56.456   0.323  33.883  0.00  0.00     0.004 A 
ENDBRANCH   3  16
TORSDOF 4
ENDMDL
MODEL 4
REMARK VINA RESULT:      -4.7      0.969      4.867
REMARK  4 active torsions:
REMARK  status: ('A' for Active; 'I' for Inactive)
REMARK    1  A    between atoms: C_10  and  C_3 
REMARK    2  A    between atoms: S_8  and  C_4 
REMARK       I    between atoms: N_6  and  C_7 
REMARK    3  A    between atoms: C_7  and  C_9 
REMARK    4  A    between atoms: C_9  and  S_8 
ROOT
ATOM      1  O   UNL d   1      58.636  -0.568  30.230  0.00  0.00    -0.263 OA
ATOM      2  N   UNL d   1      58.119  -0.248  29.043  0.00  0.00    -0.120 NA
ATOM      3  C   UNL d   1      58.629  -0.760  29.427  0.00  0.00     0.205 A 
ATOM      4  C   UNL d   1      58.125   0.068  30.341  0.00  0.00     0.236 A 
ATOM      5  N   UNL d   1      57.804   0.268  29.611  0.00  0.00    -0.114 NA
ENDROOT
BRANCH   4   6
ATOM      6  S   UNL d   1      57.961   0.443  31.066  0.00  0.00    -0.036 SA
BRANCH   6   7
ATOM      7  C   UNL d   1      57.417   0.108  31.589  0.00  0.00     0.100 C 
BRANCH   7   8
ATOM      8  C   UNL d   1      57.404   0.327  32.385  0.00  0.00     0.272 C 
ATOM      9  N   UNL d   1      56.734   0.193  32.841  0.00  0.00    -0.272 N 
ATOM     10  C   UNL d   1      56.065  -0.162  32.510  0.00  0.00     0.083 A 
ATOM     11  C   UNL d   1      56.735   0.419  33.643  0.00  0.00     0.083 A 
ATOM     12  C   UNL d   1      55.396  -0.291  32.979  0.00  0.00     0.019 A 
ATOM     13  C   UNL d   1      55.396  -0.070  33.767  0.00  0.00     0.003 A 
ATOM     14  C   UNL d   1      56.056   0.282  34.101  0.00  0.00     0.019 A 
ATOM     15  O   UNL d   1      58.074   0.682  32.717  0.00  0.00    -0.266 OA
ENDBRANCH   7   8
ENDBRANCH   6   7
ENDBRANCH   4   6
BRANCH   3  16
ATOM     16  C   UNL d   1      59.073  -1.368  29.105  0.00  0.00     0.043 A 
ATOM     17  C   UNL d   1      58.736  -2.116  29.021  0.00  0.00     0.004 A 
ATOM     18  C   UNL d   1      59.177  -2.733  28.698  0.00  0.00     0.000 A 
ATOM     19  C   UNL d   1      59.959  -2.590  28.461  0.00  0.00     0.000 A 
ATOM     20  C   UNL d   1      60.297  -1.842  28.545  0.00  0.00     0.000 A 
ATOM     21  C   UNL d   1      59.843  -1.237  28.869  0.00  0.00     0.004 A 
ENDBRANCH   3  16
TORSDOF 4
ENDMDL
