MODEL 1
REMARK VINA RESULT:      93.8      0.000      0.000
REMARK  4 active torsions:
REMARK  status: ('A' for Active; 'I' for Inactive)
REMARK    1  A    between atoms: N_15  and  C_2 
REMARK    2  A    between atoms: C_3  and  C_9 
REMARK    3  A    between atoms: C_11  and  C_7 
REMARK       I    between atoms: C_9  and  N_14 
REMARK    4  A    between atoms: N_14  and  N_15 
ROOT
ATOM      1  C   UNL d   1     -55.151 -99.933 -43.134  0.00  0.00     0.062 A 
ATOM      2  N   UNL d   1     -54.765-100.895 -44.416  0.00  0.00    -0.245 NA
ATOM      3  C   UNL d   1     -54.889-100.080 -44.531  0.00  0.00     0.087 A 
ATOM      4  C   UNL d   1     -55.082 -99.606 -43.880  0.00  0.00     0.025 A 
ATOM      5  C   UNL d   1     -55.024-100.749 -43.036  0.00  0.00     0.022 A 
ATOM      6  C   UNL d   1     -54.834-101.222 -43.669  0.00  0.00     0.082 A 
ATOM      7  C   UNL d   1     -55.096-101.067 -42.277  0.00  0.00     0.002 A 
ATOM      8  C   UNL d   1     -54.711-102.019 -43.564  0.00  0.00     0.019 A 
ATOM      9  C   UNL d   1     -54.972-101.879 -42.169  0.00  0.00     0.000 A 
ATOM     10  C   UNL d   1     -54.781-102.350 -42.810  0.00  0.00     0.002 A 
ENDROOT
BRANCH   1  11
ATOM     11  C   UNL d   1     -55.343 -99.452 -42.497  0.00  0.00     0.297 C 
ATOM     12  N   UNL d   1     -55.955 -98.931 -42.644  0.00  0.00    -0.104 NA
ATOM     13  O   UNL d   1     -54.869 -99.599 -41.829  0.00  0.00    -0.264 OA
BRANCH  12  14
ATOM     14  N   UNL d   1     -56.315 -98.927 -43.381  0.00  0.00    -0.118 NA
BRANCH  14  15
ATOM     15  C   UNL d   1     -57.143 -98.897 -43.444  0.00  0.00     0.215 A 
ATOM     16  N   UNL d   1     -57.573 -98.852 -44.140  0.00  0.00    -0.219 NA
ATOM     17  C   UNL d   1     -58.372 -98.835 -43.959  0.00  0.00     0.090 A 
ATOM     18  C   UNL d   1     -58.436 -98.871 -43.131  0.00  0.00     0.050 A 
ATOM     19  C   UNL d   1     -59.048 -98.793 -44.422  0.00  0.00     0.018 A 
ATOM     20  C   UNL d   1     -59.176 -98.864 -42.765  0.00  0.00     0.008 A 
ATOM     21  S   UNL d   1     -57.678 -98.909 -42.819  0.00  0.00    -0.045 SA
ATOM     22  C   UNL d   1     -59.853 -98.820 -43.245  0.00  0.00     0.001 A 
ATOM     23  C   UNL d   1     -59.791 -98.785 -44.064  0.00  0.00     0.002 A 
ATOM     24  C   UNL d   1     -58.980 -98.757 -45.247  0.00  0.00     0.002 C 
ENDBRANCH  14  15
ENDBRANCH  12  14
ENDBRANCH   1  11
BRANCH   3  25
ATOM     25  C   UNL d   1     -54.819 -99.747 -45.290  0.00  0.00     0.047 A 
ATOM     26  S   UNL d   1     -54.782-100.236 -45.953  0.00  0.00    -0.085 SA
ATOM     27  C   UNL d   1     -54.715 -99.763 -46.627  0.00  0.00     0.035 A 
ATOM     28  C   UNL d   1     -54.711 -98.998 -46.378  0.00  0.00     0.007 A 
ATOM     29  C   UNL d   1     -54.776 -98.969 -45.548  0.00  0.00     0.009 A 
ENDBRANCH   3  25
TORSDOF 4
ENDMDL
