MODEL 1
REMARK VINA RESULT:      44.1      0.000      0.000
REMARK  5 active torsions:
REMARK  status: ('A' for Active; 'I' for Inactive)
REMARK    1  A    between atoms: C_5  and  C_1 
REMARK    2  A    between atoms: C_2  and  C_5 
REMARK    3  A    between atoms: C_7  and  C_2 
REMARK    4  A    between atoms: N_4  and  C_11 
REMARK       I    between atoms: N_12  and  C_7 
REMARK    5  A    between atoms: C_17  and  N_12 
ROOT
ATOM      1  C   UNL d   1      14.771  12.886  -0.585  0.00  0.00     0.126 C 
ATOM      2  C   UNL d   1      15.412  12.389  -0.472  0.00  0.00     0.106 C 
ATOM      3  N   UNL d   1      16.058  11.884  -0.358  0.00  0.00    -0.191 NA
ENDROOT
BRANCH   1   4
ATOM      4  C   UNL d   1      14.708  13.584  -0.144  0.00  0.00     0.017 C 
BRANCH   4   5
ATOM      5  C   UNL d   1      15.325  14.130  -0.139  0.00  0.00     0.020 A 
ATOM      6  C   UNL d   1      16.128  13.948  -0.057  0.00  0.00     0.080 A 
ATOM      7  N   UNL d   1      16.556  14.662  -0.082  0.00  0.00    -0.303 N 
ATOM      8  C   UNL d   1      17.370  14.742  -0.021  0.00  0.00     0.100 C 
ATOM      9  C   UNL d   1      16.010  15.284  -0.179  0.00  0.00     0.064 A 
ATOM     10  C   UNL d   1      15.247  14.950  -0.214  0.00  0.00     0.018 A 
ATOM     11  C   UNL d   1      16.104  16.101  -0.240  0.00  0.00     0.018 A 
ATOM     12  C   UNL d   1      14.592  15.440  -0.310  0.00  0.00     0.002 A 
ATOM     13  C   UNL d   1      14.693  16.252  -0.370  0.00  0.00     0.000 A 
ATOM     14  C   UNL d   1      15.443  16.584  -0.336  0.00  0.00     0.002 A 
ENDBRANCH   4   5
ENDBRANCH   1   4
BRANCH   1  15
ATOM     15  C   UNL d   1      14.187  12.695  -1.140  0.00  0.00     0.289 C 
ATOM     16  N   UNL d   1      14.337  12.810  -1.944  0.00  0.00    -0.207 NA
ATOM     17  O   UNL d   1      13.467  12.394  -0.890  0.00  0.00    -0.264 OA
BRANCH  16  18
ATOM     18  C   UNL d   1      13.858  12.668  -2.602  0.00  0.00     0.086 A 
ATOM     19  C   UNL d   1      13.746  13.254  -3.163  0.00  0.00     0.043 A 
ATOM     20  C   UNL d   1      13.268  13.112  -3.820  0.00  0.00     0.128 A 
ATOM     21  C   UNL d   1      12.902  12.369  -3.908  0.00  0.00     0.024 A 
ATOM     22  C   UNL d   1      13.022  11.782  -3.336  0.00  0.00     0.003 A 
ATOM     23  C   UNL d   1      13.499  11.936  -2.688  0.00  0.00     0.019 A 
BRANCH  20  24
ATOM     24  N   UNL d   1      13.152  13.701  -4.388  0.00  0.00    -0.114 N 
ATOM     25  O   UNL d   1      13.419  14.467  -4.240  0.00  0.00    -0.532 OA
ATOM     26  O   UNL d   1      12.769  13.519  -5.100  0.00  0.00    -0.532 OA
ENDBRANCH  20  24
ENDBRANCH  16  18
ENDBRANCH   1  15
TORSDOF 5
ENDMDL
