MODEL 1
REMARK VINA RESULT:      51.9      0.000      0.000
REMARK  6 active torsions:
REMARK  status: ('A' for Active; 'I' for Inactive)
REMARK    1  A    between atoms: C_6  and  N_2 
REMARK    2  A    between atoms: C_7  and  C_3 
REMARK    3  A    between atoms: C_14  and  C_6 
REMARK    4  A    between atoms: C_8  and  O_16 
REMARK    5  A    between atoms: C_19  and  C_14 
REMARK    6  A    between atoms: O_16  and  C_19 
ROOT
ATOM      1  N   UNL d   1      59.038  49.706  52.096  0.00  0.00    -0.224 NA
ATOM      2  N   UNL d   1      59.940  49.685  51.094  0.00  0.00    -0.286 N 
ATOM      3  C   UNL d   1      59.857  49.696  51.920  0.00  0.00     0.191 A 
ATOM      4  C   UNL d   1      59.179  49.688  50.753  0.00  0.00     0.083 A 
ATOM      5  C   UNL d   1      58.624  49.702  51.367  0.00  0.00     0.099 A 
ATOM      6  C   UNL d   1      58.915  49.681  49.971  0.00  0.00     0.019 A 
ATOM      7  C   UNL d   1      57.816  49.708  51.201  0.00  0.00     0.021 A 
ATOM      8  C   UNL d   1      58.106  49.688  49.805  0.00  0.00     0.002 A 
ATOM      9  C   UNL d   1      57.559  49.701  50.422  0.00  0.00     0.002 A 
ENDROOT
BRANCH   2  10
ATOM     10  C   UNL d   1      60.721  49.674  50.836  0.00  0.00     0.084 C 
BRANCH  10  11
ATOM     11  C   UNL d   1      60.934  49.185  50.217  0.00  0.00     0.046 C 
BRANCH  11  12
ATOM     12  C   UNL d   1      61.030  48.381  50.360  0.00  0.00     0.124 C 
BRANCH  12  13
ATOM     13  O   UNL d   1      61.712  47.995  50.099  0.00  0.00    -0.305 OA
BRANCH  13  14
ATOM     14  C   UNL d   1      61.699  47.181  49.966  0.00  0.00     0.100 A 
ATOM     15  C   UNL d   1      61.197  46.698  50.411  0.00  0.00     0.025 A 
ATOM     16  C   UNL d   1      61.184  45.888  50.280  0.00  0.00     0.002 A 
ATOM     17  C   UNL d   1      61.673  45.553  49.702  0.00  0.00     0.000 A 
ATOM     18  C   UNL d   1      62.177  46.043  49.256  0.00  0.00     0.002 A 
ATOM     19  C   UNL d   1      61.662  44.744  49.568  0.00  0.00     0.000 C 
ATOM     20  C   UNL d   1      62.186  46.855  49.391  0.00  0.00     0.025 A 
ENDBRANCH  13  14
ENDBRANCH  12  13
ENDBRANCH  11  12
ENDBRANCH  10  11
ENDBRANCH   2  10
BRANCH   3  21
ATOM     21  C   UNL d   1      60.469  49.696  52.473  0.00  0.00     0.271 C 
ATOM     22  O   UNL d   1      60.372  49.312  53.195  0.00  0.00    -0.280 OA
ENDBRANCH   3  21
TORSDOF 6
ENDMDL
MODEL 2
REMARK VINA RESULT:      54.4      1.773      4.159
REMARK  6 active torsions:
REMARK  status: ('A' for Active; 'I' for Inactive)
REMARK    1  A    between atoms: C_6  and  N_2 
REMARK    2  A    between atoms: C_7  and  C_3 
REMARK    3  A    between atoms: C_14  and  C_6 
REMARK    4  A    between atoms: C_8  and  O_16 
REMARK    5  A    between atoms: C_19  and  C_14 
REMARK    6  A    between atoms: O_16  and  C_19 
ROOT
ATOM      1  N   UNL d   1      61.407  48.013  50.806  0.00  0.00    -0.224 NA
ATOM      2  N   UNL d   1      60.668  49.025  50.310  0.00  0.00    -0.286 N 
ATOM      3  C   UNL d   1      61.084  48.337  50.104  0.00  0.00     0.191 A 
ATOM      4  C   UNL d   1      60.728  49.132  51.134  0.00  0.00     0.083 A 
ATOM      5  C   UNL d   1      61.183  48.511  51.440  0.00  0.00     0.099 A 
ATOM      6  C   UNL d   1      60.434  49.708  51.648  0.00  0.00     0.019 A 
ATOM      7  C   UNL d   1      61.340  48.466  52.248  0.00  0.00     0.021 A 
ATOM      8  C   UNL d   1      60.592  49.663  52.457  0.00  0.00     0.002 A 
ATOM      9  C   UNL d   1      61.046  49.041  52.755  0.00  0.00     0.002 A 
ENDROOT
BRANCH   2  10
ATOM     10  C   UNL d   1      60.316  49.408  49.672  0.00  0.00     0.084 C 
BRANCH  10  11
ATOM     11  C   UNL d   1      59.548  49.677  49.738  0.00  0.00     0.046 C 
BRANCH  11  12
ATOM     12  C   UNL d   1      58.975  49.375  49.230  0.00  0.00     0.124 C 
BRANCH  12  13
ATOM     13  O   UNL d   1      58.219  49.706  49.219  0.00  0.00    -0.305 OA
BRANCH  13  14
ATOM     14  C   UNL d   1      57.675  49.509  49.808  0.00  0.00     0.100 A 
ATOM     15  C   UNL d   1      56.976  49.116  49.609  0.00  0.00     0.025 A 
ATOM     16  C   UNL d   1      56.435  48.920  50.193  0.00  0.00     0.002 A 
ATOM     17  C   UNL d   1      56.586  49.115  50.983  0.00  0.00     0.000 A 
ATOM     18  C   UNL d   1      57.292  49.512  51.179  0.00  0.00     0.002 A 
ATOM     19  C   UNL d   1      56.047  48.921  51.569  0.00  0.00     0.000 C 
ATOM     20  C   UNL d   1      57.832  49.706  50.589  0.00  0.00     0.025 A 
ENDBRANCH  13  14
ENDBRANCH  12  13
ENDBRANCH  11  12
ENDBRANCH  10  11
ENDBRANCH   2  10
BRANCH   3  21
ATOM     21  C   UNL d   1      61.167  48.025  49.345  0.00  0.00     0.271 C 
ATOM     22  O   UNL d   1      61.877  47.672  49.120  0.00  0.00    -0.280 OA
ENDBRANCH   3  21
TORSDOF 6
ENDMDL
MODEL 3
REMARK VINA RESULT:      54.7      1.277      4.191
REMARK  6 active torsions:
REMARK  status: ('A' for Active; 'I' for Inactive)
REMARK    1  A    between atoms: C_6  and  N_2 
REMARK    2  A    between atoms: C_7  and  C_3 
REMARK    3  A    between atoms: C_14  and  C_6 
REMARK    4  A    between atoms: C_8  and  O_16 
REMARK    5  A    between atoms: C_19  and  C_14 
REMARK    6  A    between atoms: O_16  and  C_19 
ROOT
ATOM      1  N   UNL d   1      61.581  47.627  51.728  0.00  0.00    -0.224 NA
ATOM      2  N   UNL d   1      61.250  48.518  50.772  0.00  0.00    -0.286 N 
ATOM      3  C   UNL d   1      61.387  48.429  51.586  0.00  0.00     0.191 A 
ATOM      4  C   UNL d   1      61.357  47.778  50.405  0.00  0.00     0.083 A 
ATOM      5  C   UNL d   1      61.560  47.229  50.991  0.00  0.00     0.099 A 
ATOM      6  C   UNL d   1      61.298  47.527  49.620  0.00  0.00     0.019 A 
ATOM      7  C   UNL d   1      61.702  46.441  50.795  0.00  0.00     0.021 A 
ATOM      8  C   UNL d   1      61.440  46.737  49.425  0.00  0.00     0.002 A 
ATOM      9  C   UNL d   1      61.641  46.196  50.014  0.00  0.00     0.002 A 
ENDROOT
BRANCH   2  10
ATOM     10  C   UNL d   1      61.052  49.285  50.547  0.00  0.00     0.084 C 
BRANCH  10  11
ATOM     11  C   UNL d   1      60.436  49.405  50.024  0.00  0.00     0.046 C 
BRANCH  11  12
ATOM     12  C   UNL d   1      59.720  49.690  50.312  0.00  0.00     0.124 C 
BRANCH  12  13
ATOM     13  O   UNL d   1      59.056  49.704  49.822  0.00  0.00    -0.305 OA
BRANCH  13  14
ATOM     14  C   UNL d   1      58.300  49.704  50.153  0.00  0.00     0.100 A 
ATOM     15  C   UNL d   1      57.635  49.699  49.663  0.00  0.00     0.025 A 
ATOM     16  C   UNL d   1      56.883  49.698  49.991  0.00  0.00     0.002 A 
ATOM     17  C   UNL d   1      56.788  49.702  50.813  0.00  0.00     0.000 A 
ATOM     18  C   UNL d   1      57.461  49.707  51.303  0.00  0.00     0.002 A 
ATOM     19  C   UNL d   1      56.038  49.702  51.144  0.00  0.00     0.000 C 
ATOM     20  C   UNL d   1      58.214  49.708  50.970  0.00  0.00     0.025 A 
ENDBRANCH  13  14
ENDBRANCH  12  13
ENDBRANCH  11  12
ENDBRANCH  10  11
ENDBRANCH   2  10
BRANCH   3  21
ATOM     21  C   UNL d   1      61.342  49.023  52.157  0.00  0.00     0.271 C 
ATOM     22  O   UNL d   1      61.794  49.707  52.077  0.00  0.00    -0.280 OA
ENDBRANCH   3  21
TORSDOF 6
ENDMDL
