MODEL 1
REMARK VINA RESULT:      12.2      0.000      0.000
REMARK  7 active torsions:
REMARK  status: ('A' for Active; 'I' for Inactive)
REMARK    1  A    between atoms: C_2  and  C_8 
REMARK    2  A    between atoms: O_17  and  C_2 
REMARK    3  A    between atoms: C_15  and  C_3 
REMARK    4  A    between atoms: C_5  and  C_16 
REMARK       I    between atoms: N_9  and  C_5 
REMARK    5  A    between atoms: C_14  and  N_9 
REMARK    6  A    between atoms: C_16  and  C_15 
REMARK    7  A    between atoms: C_21  and  O_17 
ROOT
ATOM      1  C   UNL d   1      45.595 -14.319  44.164  0.00  0.00     0.064 A 
ATOM      2  C   UNL d   1      46.315 -14.728  44.258  0.00  0.00     0.007 A 
ATOM      3  C   UNL d   1      44.882 -14.711  44.327  0.00  0.00     0.007 A 
ATOM      4  C   UNL d   1      45.599 -15.889  44.668  0.00  0.00     0.085 A 
ATOM      5  C   UNL d   1      46.310 -15.509  44.509  0.00  0.00     0.019 A 
ATOM      6  C   UNL d   1      44.894 -15.492  44.577  0.00  0.00     0.019 A 
ENDROOT
BRANCH   4   7
ATOM      7  N   UNL d   1      45.601 -16.681  44.922  0.00  0.00    -0.208 NA
ATOM      8  C   UNL d   1      45.790 -17.280  44.391  0.00  0.00     0.279 C 
ATOM      9  O   UNL d   1      45.793 -18.064  44.636  0.00  0.00    -0.265 OA
BRANCH   8  10
ATOM     10  C   UNL d   1      45.979 -17.101  43.607  0.00  0.00     0.065 C 
BRANCH  10  11
ATOM     11  C   UNL d   1      46.608 -17.475  43.238  0.00  0.00     0.030 C 
BRANCH  11  12
ATOM     12  C   UNL d   1      46.483 -18.161  42.794  0.00  0.00     0.100 A 
ATOM     13  O   UNL d   1      46.293 -18.913  43.083  0.00  0.00    -0.307 OA
ATOM     14  C   UNL d   1      46.220 -19.426  42.451  0.00  0.00     0.100 A 
ATOM     15  C   UNL d   1      46.366 -18.995  41.757  0.00  0.00     0.027 A 
ATOM     16  C   UNL d   1      46.037 -20.223  42.491  0.00  0.00     0.027 C 
ATOM     17  C   UNL d   1      46.528 -18.215  41.969  0.00  0.00     0.027 A 
ENDBRANCH  11  12
ENDBRANCH  10  11
ENDBRANCH   8  10
ENDBRANCH   4   7
BRANCH   1  18
ATOM     18  C   UNL d   1      45.596 -13.539  43.914  0.00  0.00     0.300 C 
ATOM     19  O   UNL d   1      46.081 -12.981  44.302  0.00  0.00    -0.259 OA
BRANCH  18  20
ATOM     20  O   UNL d   1      45.122 -13.296  43.278  0.00  0.00    -0.271 OA
BRANCH  20  21
ATOM     21  C   UNL d   1      44.923 -12.491  43.208  0.00  0.00     0.126 C 
ATOM     22  C   UNL d   1      44.708 -12.193  42.464  0.00  0.00     0.029 C 
ENDBRANCH  20  21
ENDBRANCH  18  20
ENDBRANCH   1  18
TORSDOF 7
ENDMDL
