MODEL 1
REMARK VINA RESULT:      -5.7      0.000      0.000
REMARK  2 active torsions:
REMARK  status: ('A' for Active; 'I' for Inactive)
REMARK    1  A    between atoms: C_3  and  C_1 
REMARK       I    between atoms: N_6  and  C_3 
REMARK    2  A    between atoms: C_11  and  N_6 
ROOT
ATOM      1  C   UNL d   1      58.445  -0.128  30.196  0.00  0.00     0.121 A 
ATOM      2  C   UNL d   1      58.434  -0.690  29.572  0.00  0.00     0.305 A 
ATOM      3  C   UNL d   1      59.123   0.325  30.325  0.00  0.00     0.012 A 
ATOM      4  O   UNL d   1      59.100  -0.793  29.082  0.00  0.00    -0.273 OA
ATOM      5  C   UNL d   1      59.783   0.221  29.838  0.00  0.00     0.023 A 
ATOM      6  C   UNL d   1      59.771  -0.331  29.224  0.00  0.00     0.103 A 
ATOM      7  O   UNL d   1      57.758  -1.176  29.404  0.00  0.00    -0.259 OA
ATOM      8  C   UNL d   1      60.443   0.679  29.982  0.00  0.00     0.002 A 
ATOM      9  C   UNL d   1      60.420  -0.438  28.739  0.00  0.00     0.025 A 
ATOM     10  C   UNL d   1      61.095   0.025  28.880  0.00  0.00     0.002 A 
ATOM     11  C   UNL d   1      61.106   0.586  29.505  0.00  0.00     0.000 A 
ENDROOT
BRANCH   1  12
ATOM     12  C   UNL d   1      57.782  -0.012  30.700  0.00  0.00     0.284 C 
ATOM     13  N   UNL d   1      57.757  -0.353  31.450  0.00  0.00    -0.208 NA
ATOM     14  O   UNL d   1      57.156   0.459  30.412  0.00  0.00    -0.265 OA
BRANCH  13  15
ATOM     15  C   UNL d   1      57.095  -0.229  31.936  0.00  0.00     0.085 A 
ATOM     16  C   UNL d   1      56.649  -0.866  32.211  0.00  0.00     0.019 A 
ATOM     17  C   UNL d   1      56.010  -0.735  32.680  0.00  0.00     0.002 A 
ATOM     18  C   UNL d   1      55.566  -1.369  32.953  0.00  0.00     0.000 C 
ATOM     19  C   UNL d   1      55.795   0.026  32.892  0.00  0.00     0.000 A 
ATOM     20  C   UNL d   1      56.254   0.681  32.610  0.00  0.00     0.002 A 
ATOM     21  C   UNL d   1      55.125   0.144  33.383  0.00  0.00     0.000 C 
ATOM     22  C   UNL d   1      56.904   0.539  32.132  0.00  0.00     0.019 A 
ENDBRANCH  13  15
ENDBRANCH   1  12
TORSDOF 2
ENDMDL
MODEL 2
REMARK VINA RESULT:      -2.7      1.366      4.669
REMARK  2 active torsions:
REMARK  status: ('A' for Active; 'I' for Inactive)
REMARK    1  A    between atoms: C_3  and  C_1 
REMARK       I    between atoms: N_6  and  C_3 
REMARK    2  A    between atoms: C_11  and  N_6 
ROOT
ATOM      1  C   UNL d   1      57.457  -0.616  30.921  0.00  0.00     0.121 A 
ATOM      2  C   UNL d   1      57.324   0.211  30.852  0.00  0.00     0.305 A 
ATOM      3  C   UNL d   1      57.104  -1.035  31.539  0.00  0.00     0.012 A 
ATOM      4  O   UNL d   1      56.839   0.610  31.401  0.00  0.00    -0.273 OA
ATOM      5  C   UNL d   1      56.624  -0.637  32.082  0.00  0.00     0.023 A 
ATOM      6  C   UNL d   1      56.494   0.175  32.014  0.00  0.00     0.103 A 
ATOM      7  O   UNL d   1      57.666   0.681  30.234  0.00  0.00    -0.259 OA
ATOM      8  C   UNL d   1      56.285  -1.071  32.685  0.00  0.00     0.002 A 
ATOM      9  C   UNL d   1      56.020   0.574  32.547  0.00  0.00     0.025 A 
ATOM     10  C   UNL d   1      55.672   0.139  33.163  0.00  0.00     0.002 A 
ATOM     11  C   UNL d   1      55.805  -0.688  33.232  0.00  0.00     0.000 A 
ENDROOT
BRANCH   1  12
ATOM     12  C   UNL d   1      57.942  -1.033  30.377  0.00  0.00     0.284 C 
ATOM     13  N   UNL d   1      58.546  -1.528  30.644  0.00  0.00    -0.208 NA
ATOM     14  O   UNL d   1      57.790  -0.929  29.563  0.00  0.00    -0.265 OA
BRANCH  13  15
ATOM     15  C   UNL d   1      59.018  -1.934  30.094  0.00  0.00     0.085 A 
ATOM     16  C   UNL d   1      59.808  -1.726  29.981  0.00  0.00     0.019 A 
ATOM     17  C   UNL d   1      60.255  -2.125  29.446  0.00  0.00     0.002 A 
ATOM     18  C   UNL d   1      61.042  -1.917  29.333  0.00  0.00     0.000 C 
ATOM     19  C   UNL d   1      59.936  -2.740  29.009  0.00  0.00     0.000 A 
ATOM     20  C   UNL d   1      59.124  -2.954  29.126  0.00  0.00     0.002 A 
ATOM     21  C   UNL d   1      60.418  -3.146  28.455  0.00  0.00     0.000 C 
ATOM     22  C   UNL d   1      58.675  -2.542  29.673  0.00  0.00     0.019 A 
ENDBRANCH  13  15
ENDBRANCH   1  12
TORSDOF 2
ENDMDL
