MODEL 1
REMARK VINA RESULT:      -4.2      0.000      0.000
REMARK  5 active torsions:
REMARK  status: ('A' for Active; 'I' for Inactive)
REMARK    1  A    between atoms: C_23  and  N_10 
REMARK    2  A    between atoms: C_14  and  N_13 
REMARK    3  A    between atoms: N_15  and  C_28 
REMARK    4  A    between atoms: C_27  and  C_23 
REMARK    5  A    between atoms: C_28  and  C_27 
ROOT
ATOM      1  C   UNL d   1     -48.427  13.128  23.247  0.00  0.00     0.173 A 
ATOM      2  C   UNL d   1     -47.829  13.599  22.983  0.00  0.00     0.191 A 
ATOM      3  C   UNL d   1     -46.883  12.553  23.202  0.00  0.00     0.722 A 
ATOM      4  N   UNL d   1     -47.491  12.061  23.476  0.00  0.00    -0.131 N 
ATOM      5  N   UNL d   1     -47.052  13.322  22.956  0.00  0.00    -0.042 NA
ATOM      6  N   UNL d   1     -47.982  14.366  22.734  0.00  0.00    -0.240 N 
ATOM      7  N   UNL d   1     -49.392  14.129  23.046  0.00  0.00    -0.223 N 
ATOM      8  C   UNL d   1     -48.767  14.636  22.765  0.00  0.00     0.343 A 
ATOM      9  C   UNL d   1     -49.214  13.368  23.289  0.00  0.00     0.288 A 
ATOM     10  N   UNL d   1     -46.106  12.276  23.176  0.00  0.00    -0.139 N 
ATOM     11  C   UNL d   1     -46.537  11.006  23.698  0.00  0.00     0.116 A 
ATOM     12  C   UNL d   1     -45.929  11.499  23.424  0.00  0.00     0.100 A 
ATOM     13  O   UNL d   1     -48.910  15.440  22.501  0.00  0.00    -0.245 OA
ATOM     14  O   UNL d   1     -49.822  12.876  23.563  0.00  0.00    -0.265 OA
ATOM     15  C   UNL d   1     -47.374  14.858  22.460  0.00  0.00     0.105 C 
ATOM     16  C   UNL d   1     -50.168  14.407  23.073  0.00  0.00     0.107 C 
ATOM     17  C   UNL d   1     -45.143  11.244  23.388  0.00  0.00     0.021 C 
ENDROOT
BRANCH  10  18
ATOM     18  C   UNL d   1     -45.494  12.763  22.903  0.00  0.00     0.100 C 
BRANCH  18  19
ATOM     19  C   UNL d   1     -44.919  12.469  22.380  0.00  0.00     0.039 C 
BRANCH  19  20
ATOM     20  C   UNL d   1     -44.744  12.874  21.692  0.00  0.00     0.082 C 
BRANCH  20  21
ATOM     21  N   UNL d   1     -43.967  13.098  21.529  0.00  0.00    -0.300 N 
ATOM     22  C   UNL d   1     -43.778  13.900  21.466  0.00  0.00     0.100 A 
ATOM     23  C   UNL d   1     -42.996  14.119  21.302  0.00  0.00     0.100 A 
ATOM     24  N   UNL d   1     -42.414  13.549  21.203  0.00  0.00    -0.301 N 
ATOM     25  C   UNL d   1     -42.608  12.748  21.266  0.00  0.00     0.100 A 
ATOM     26  C   UNL d   1     -43.380  12.523  21.428  0.00  0.00     0.100 A 
BRANCH  24  27
ATOM     27  C   UNL d   1     -41.637  13.774  21.039  0.00  0.00     0.065 A 
ATOM     28  C   UNL d   1     -41.432  14.026  20.290  0.00  0.00     0.029 A 
ATOM     29  C   UNL d   1     -40.667  14.250  20.126  0.00  0.00     0.059 A 
ATOM     30 CL   UNL d   1     -40.457  14.507  19.360  0.00  0.00    -0.082 Cl
ATOM     31  C   UNL d   1     -40.091  14.221  20.722  0.00  0.00     0.011 A 
ATOM     32  C   UNL d   1     -40.294  13.967  21.481  0.00  0.00     0.002 A 
ATOM     33  C   UNL d   1     -41.070  13.742  21.643  0.00  0.00     0.018 A 
ENDBRANCH  24  27
ENDBRANCH  20  21
ENDBRANCH  19  20
ENDBRANCH  18  19
ENDBRANCH  10  18
TORSDOF 5
ENDMDL
MODEL 2
REMARK VINA RESULT:      -3.8      3.624      7.540
REMARK  5 active torsions:
REMARK  status: ('A' for Active; 'I' for Inactive)
REMARK    1  A    between atoms: C_23  and  N_10 
REMARK    2  A    between atoms: C_14  and  N_13 
REMARK    3  A    between atoms: N_15  and  C_28 
REMARK    4  A    between atoms: C_27  and  C_23 
REMARK    5  A    between atoms: C_28  and  C_27 
ROOT
ATOM      1  C   UNL d   1     -39.169  14.627  18.499  0.00  0.00     0.173 A 
ATOM      2  C   UNL d   1     -39.969  14.687  18.573  0.00  0.00     0.191 A 
ATOM      3  C   UNL d   1     -39.886  14.349  19.956  0.00  0.00     0.722 A 
ATOM      4  N   UNL d   1     -39.062  14.284  19.891  0.00  0.00    -0.131 N 
ATOM      5  N   UNL d   1     -40.339  14.550  19.298  0.00  0.00    -0.042 NA
ATOM      6  N   UNL d   1     -40.433  14.887  17.925  0.00  0.00    -0.240 N 
ATOM      7  N   UNL d   1     -39.205  14.957  17.133  0.00  0.00    -0.223 N 
ATOM      8  C   UNL d   1     -40.052  15.023  17.200  0.00  0.00     0.343 A 
ATOM      9  C   UNL d   1     -38.763  14.756  17.793  0.00  0.00     0.288 A 
ATOM     10  N   UNL d   1     -40.256  14.211  20.681  0.00  0.00    -0.139 N 
ATOM     11  C   UNL d   1     -38.978  13.943  21.287  0.00  0.00     0.116 A 
ATOM     12  C   UNL d   1     -39.802  14.007  21.352  0.00  0.00     0.100 A 
ATOM     13  O   UNL d   1     -40.551  15.230  16.534  0.00  0.00    -0.245 OA
ATOM     14  O   UNL d   1     -37.940  14.692  17.728  0.00  0.00    -0.265 OA
ATOM     15  C   UNL d   1     -41.257  14.951  17.991  0.00  0.00     0.105 C 
ATOM     16  C   UNL d   1     -38.835  15.094  16.408  0.00  0.00     0.107 C 
ATOM     17  C   UNL d   1     -40.195  13.874  22.067  0.00  0.00     0.021 C 
ENDROOT
BRANCH  10  18
ATOM     18  C   UNL d   1     -41.078  14.274  20.753  0.00  0.00     0.100 C 
BRANCH  18  19
ATOM     19  C   UNL d   1     -41.522  13.662  21.099  0.00  0.00     0.039 C 
BRANCH  19  20
ATOM     20  C   UNL d   1     -42.169  13.352  20.708  0.00  0.00     0.082 C 
BRANCH  20  21
ATOM     21  N   UNL d   1     -42.877  13.226  21.113  0.00  0.00    -0.300 N 
ATOM     22  C   UNL d   1     -43.425  13.840  21.177  0.00  0.00     0.100 A 
ATOM     23  C   UNL d   1     -44.134  13.708  21.585  0.00  0.00     0.100 A 
ATOM     24  N   UNL d   1     -44.292  12.977  21.923  0.00  0.00    -0.301 N 
ATOM     25  C   UNL d   1     -43.740  12.365  21.856  0.00  0.00     0.100 A 
ATOM     26  C   UNL d   1     -43.036  12.489  21.454  0.00  0.00     0.100 A 
BRANCH  24  27
ATOM     27  C   UNL d   1     -45.001  12.852  22.327  0.00  0.00     0.065 A 
ATOM     28  C   UNL d   1     -45.554  13.451  22.378  0.00  0.00     0.029 A 
ATOM     29  C   UNL d   1     -46.254  13.331  22.777  0.00  0.00     0.059 A 
ATOM     30 CL   UNL d   1     -46.821  13.942  22.830  0.00  0.00    -0.082 Cl
ATOM     31  C   UNL d   1     -46.406  12.598  23.134  0.00  0.00     0.011 A 
ATOM     32  C   UNL d   1     -45.850  11.990  23.085  0.00  0.00     0.002 A 
ATOM     33  C   UNL d   1     -45.142  12.115  22.680  0.00  0.00     0.018 A 
ENDBRANCH  24  27
ENDBRANCH  20  21
ENDBRANCH  19  20
ENDBRANCH  18  19
ENDBRANCH  10  18
TORSDOF 5
ENDMDL
MODEL 3
REMARK VINA RESULT:      -2.0      1.066      2.142
REMARK  5 active torsions:
REMARK  status: ('A' for Active; 'I' for Inactive)
REMARK    1  A    between atoms: C_23  and  N_10 
REMARK    2  A    between atoms: C_14  and  N_13 
REMARK    3  A    between atoms: N_15  and  C_28 
REMARK    4  A    between atoms: C_27  and  C_23 
REMARK    5  A    between atoms: C_28  and  C_27 
ROOT
ATOM      1  C   UNL d   1     -49.195  13.081  23.181  0.00  0.00     0.173 A 
ATOM      2  C   UNL d   1     -48.545  12.605  23.211  0.00  0.00     0.191 A 
ATOM      3  C   UNL d   1     -47.698  13.711  22.899  0.00  0.00     0.722 A 
ATOM      4  N   UNL d   1     -48.360  14.209  22.866  0.00  0.00    -0.131 N 
ATOM      5  N   UNL d   1     -47.791  12.910  23.072  0.00  0.00    -0.042 NA
ATOM      6  N   UNL d   1     -48.622  11.806  23.381  0.00  0.00    -0.240 N 
ATOM      7  N   UNL d   1     -50.065  12.021  23.485  0.00  0.00    -0.223 N 
ATOM      8  C   UNL d   1     -49.385  11.509  23.520  0.00  0.00     0.343 A 
ATOM      9  C   UNL d   1     -49.964  12.815  23.314  0.00  0.00     0.288 A 
ATOM     10  N   UNL d   1     -46.944  14.015  22.760  0.00  0.00    -0.139 N 
ATOM     11  C   UNL d   1     -47.507  15.323  22.551  0.00  0.00     0.116 A 
ATOM     12  C   UNL d   1     -46.844  14.826  22.585  0.00  0.00     0.100 A 
ATOM     13  O   UNL d   1     -49.448  10.671  23.697  0.00  0.00    -0.245 OA
ATOM     14  O   UNL d   1     -50.625  13.312  23.280  0.00  0.00    -0.265 OA
ATOM     15  C   UNL d   1     -47.960  11.309  23.415  0.00  0.00     0.105 C 
ATOM     16  C   UNL d   1     -50.820  11.716  23.625  0.00  0.00     0.107 C 
ATOM     17  C   UNL d   1     -46.079  15.107  22.449  0.00  0.00     0.021 C 
ENDROOT
BRANCH  10  18
ATOM     18  C   UNL d   1     -46.279  13.524  22.792  0.00  0.00     0.100 C 
BRANCH  18  19
ATOM     19  C   UNL d   1     -45.695  13.561  22.202  0.00  0.00     0.039 C 
BRANCH  19  20
ATOM     20  C   UNL d   1     -45.158  12.951  22.115  0.00  0.00     0.082 C 
BRANCH  20  21
ATOM     21  N   UNL d   1     -44.390  13.108  21.857  0.00  0.00    -0.300 N 
ATOM     22  C   UNL d   1     -43.851  12.487  21.780  0.00  0.00     0.100 A 
ATOM     23  C   UNL d   1     -43.081  12.650  21.521  0.00  0.00     0.100 A 
ATOM     24  N   UNL d   1     -42.854  13.419  21.341  0.00  0.00    -0.301 N 
ATOM     25  C   UNL d   1     -43.397  14.037  21.420  0.00  0.00     0.100 A 
ATOM     26  C   UNL d   1     -44.161  13.883  21.676  0.00  0.00     0.100 A 
BRANCH  24  27
ATOM     27  C   UNL d   1     -42.086  13.574  21.084  0.00  0.00     0.065 A 
ATOM     28  C   UNL d   1     -41.948  13.778  20.304  0.00  0.00     0.029 A 
ATOM     29  C   UNL d   1     -41.191  13.932  20.047  0.00  0.00     0.059 A 
ATOM     30 CL   UNL d   1     -41.050  14.140  19.251  0.00  0.00    -0.082 Cl
ATOM     31  C   UNL d   1     -40.556  13.881  20.578  0.00  0.00     0.011 A 
ATOM     32  C   UNL d   1     -40.691  13.675  21.366  0.00  0.00     0.002 A 
ATOM     33  C   UNL d   1     -41.458  13.520  21.623  0.00  0.00     0.018 A 
ENDBRANCH  24  27
ENDBRANCH  20  21
ENDBRANCH  19  20
ENDBRANCH  18  19
ENDBRANCH  10  18
TORSDOF 5
ENDMDL
MODEL 4
REMARK VINA RESULT:      -2.0      3.091      6.707
REMARK  5 active torsions:
REMARK  status: ('A' for Active; 'I' for Inactive)
REMARK    1  A    between atoms: C_23  and  N_10 
REMARK    2  A    between atoms: C_14  and  N_13 
REMARK    3  A    between atoms: N_15  and  C_28 
REMARK    4  A    between atoms: C_27  and  C_23 
REMARK    5  A    between atoms: C_28  and  C_27 
ROOT
ATOM      1  C   UNL d   1     -41.188  13.662  21.468  0.00  0.00     0.173 A 
ATOM      2  C   UNL d   1     -41.852  14.064  21.251  0.00  0.00     0.191 A 
ATOM      3  C   UNL d   1     -42.675  12.997  21.719  0.00  0.00     0.722 A 
ATOM      4  N   UNL d   1     -41.999  12.574  21.945  0.00  0.00    -0.131 N 
ATOM      5  N   UNL d   1     -42.601  13.741  21.372  0.00  0.00    -0.042 NA
ATOM      6  N   UNL d   1     -41.793  14.806  20.905  0.00  0.00    -0.240 N 
ATOM      7  N   UNL d   1     -40.340  14.688  21.021  0.00  0.00    -0.223 N 
ATOM      8  C   UNL d   1     -41.035  15.123  20.788  0.00  0.00     0.343 A 
ATOM      9  C   UNL d   1     -40.423  13.950  21.364  0.00  0.00     0.288 A 
ATOM     10  N   UNL d   1     -43.425  12.674  21.839  0.00  0.00    -0.139 N 
ATOM     11  C   UNL d   1     -42.829  11.497  22.416  0.00  0.00     0.116 A 
ATOM     12  C   UNL d   1     -43.506  11.920  22.190  0.00  0.00     0.100 A 
ATOM     13  O   UNL d   1     -40.992  15.900  20.425  0.00  0.00    -0.245 OA
ATOM     14  O   UNL d   1     -39.747  13.527  21.590  0.00  0.00    -0.265 OA
ATOM     15  C   UNL d   1     -42.469  15.229  20.679  0.00  0.00     0.105 C 
ATOM     16  C   UNL d   1     -39.590  15.012  20.900  0.00  0.00     0.107 C 
ATOM     17  C   UNL d   1     -44.267  11.618  22.300  0.00  0.00     0.021 C 
ENDROOT
BRANCH  10  18
ATOM     18  C   UNL d   1     -44.105  13.091  21.616  0.00  0.00     0.100 C 
BRANCH  18  19
ATOM     19  C   UNL d   1     -44.775  13.104  22.106  0.00  0.00     0.039 C 
BRANCH  19  20
ATOM     20  C   UNL d   1     -45.315  13.714  22.048  0.00  0.00     0.082 C 
BRANCH  20  21
ATOM     21  N   UNL d   1     -46.095  13.602  22.291  0.00  0.00    -0.300 N 
ATOM     22  C   UNL d   1     -46.306  13.759  23.074  0.00  0.00     0.100 A 
ATOM     23  C   UNL d   1     -47.091  13.645  23.312  0.00  0.00     0.100 A 
ATOM     24  N   UNL d   1     -47.655  13.379  22.779  0.00  0.00    -0.301 N 
ATOM     25  C   UNL d   1     -47.440  13.223  21.997  0.00  0.00     0.100 A 
ATOM     26  C   UNL d   1     -46.665  13.333  21.753  0.00  0.00     0.100 A 
BRANCH  24  27
ATOM     27  C   UNL d   1     -48.436  13.267  23.023  0.00  0.00     0.065 A 
ATOM     28  C   UNL d   1     -48.696  12.523  23.237  0.00  0.00     0.029 A 
ATOM     29  C   UNL d   1     -49.465  12.410  23.479  0.00  0.00     0.059 A 
ATOM     30 CL   UNL d   1     -49.732  11.650  23.698  0.00  0.00    -0.082 Cl
ATOM     31  C   UNL d   1     -49.988  13.053  23.508  0.00  0.00     0.011 A 
ATOM     32  C   UNL d   1     -49.729  13.806  23.293  0.00  0.00     0.002 A 
ATOM     33  C   UNL d   1     -48.950  13.917  23.049  0.00  0.00     0.018 A 
ENDBRANCH  24  27
ENDBRANCH  20  21
ENDBRANCH  19  20
ENDBRANCH  18  19
ENDBRANCH  10  18
TORSDOF 5
ENDMDL
MODEL 5
REMARK VINA RESULT:      -1.6      1.427      2.600
REMARK  5 active torsions:
REMARK  status: ('A' for Active; 'I' for Inactive)
REMARK    1  A    between atoms: C_23  and  N_10 
REMARK    2  A    between atoms: C_14  and  N_13 
REMARK    3  A    between atoms: N_15  and  C_28 
REMARK    4  A    between atoms: C_27  and  C_23 
REMARK    5  A    between atoms: C_28  and  C_27 
ROOT
ATOM      1  C   UNL d   1     -46.065  12.699  22.935  0.00  0.00     0.173 A 
ATOM      2  C   UNL d   1     -45.807  13.349  22.535  0.00  0.00     0.191 A 
ATOM      3  C   UNL d   1     -44.558  12.713  22.267  0.00  0.00     0.722 A 
ATOM      4  N   UNL d   1     -44.814  12.040  22.677  0.00  0.00    -0.131 N 
ATOM      5  N   UNL d   1     -45.055  13.368  22.196  0.00  0.00    -0.042 NA
ATOM      6  N   UNL d   1     -46.291  14.008  22.456  0.00  0.00    -0.240 N 
ATOM      7  N   UNL d   1     -47.308  13.288  23.221  0.00  0.00    -0.223 N 
ATOM      8  C   UNL d   1     -47.046  13.980  22.800  0.00  0.00     0.343 A 
ATOM      9  C   UNL d   1     -46.808  12.642  23.287  0.00  0.00     0.288 A 
ATOM     10  N   UNL d   1     -43.806  12.732  21.929  0.00  0.00    -0.139 N 
ATOM     11  C   UNL d   1     -43.554  11.398  22.408  0.00  0.00     0.116 A 
ATOM     12  C   UNL d   1     -43.299  12.072  21.998  0.00  0.00     0.100 A 
ATOM     13  O   UNL d   1     -47.539  14.677  22.708  0.00  0.00    -0.245 OA
ATOM     14  O   UNL d   1     -47.063  11.970  23.696  0.00  0.00    -0.265 OA
ATOM     15  C   UNL d   1     -46.036  14.682  22.046  0.00  0.00     0.105 C 
ATOM     16  C   UNL d   1     -48.061  13.270  23.559  0.00  0.00     0.107 C 
ATOM     17  C   UNL d   1     -42.550  12.114  21.650  0.00  0.00     0.021 C 
ENDROOT
BRANCH  10  18
ATOM     18  C   UNL d   1     -43.545  13.401  21.518  0.00  0.00     0.100 C 
BRANCH  18  19
ATOM     19  C   UNL d   1     -42.733  13.547  21.416  0.00  0.00     0.039 C 
BRANCH  19  20
ATOM     20  C   UNL d   1     -42.470  14.296  21.226  0.00  0.00     0.082 C 
BRANCH  20  21
ATOM     21  N   UNL d   1     -41.719  14.403  20.901  0.00  0.00    -0.300 N 
ATOM     22  C   UNL d   1     -41.616  14.340  20.084  0.00  0.00     0.100 A 
ATOM     23  C   UNL d   1     -40.860  14.449  19.763  0.00  0.00     0.100 A 
ATOM     24  N   UNL d   1     -40.219  14.616  20.248  0.00  0.00    -0.301 N 
ATOM     25  C   UNL d   1     -40.328  14.678  21.065  0.00  0.00     0.100 A 
ATOM     26  C   UNL d   1     -41.074  14.572  21.390  0.00  0.00     0.100 A 
BRANCH  24  27
ATOM     27  C   UNL d   1     -39.469  14.723  19.922  0.00  0.00     0.065 A 
ATOM     28  C   UNL d   1     -39.079  14.093  19.576  0.00  0.00     0.029 A 
ATOM     29  C   UNL d   1     -38.339  14.196  19.253  0.00  0.00     0.059 A 
ATOM     30 CL   UNL d   1     -37.940  13.553  18.899  0.00  0.00    -0.082 Cl
ATOM     31  C   UNL d   1     -37.978  14.941  19.275  0.00  0.00     0.011 A 
ATOM     32  C   UNL d   1     -38.367  15.580  19.624  0.00  0.00     0.002 A 
ATOM     33  C   UNL d   1     -39.117  15.473  19.950  0.00  0.00     0.018 A 
ENDBRANCH  24  27
ENDBRANCH  20  21
ENDBRANCH  19  20
ENDBRANCH  18  19
ENDBRANCH  10  18
TORSDOF 5
ENDMDL
