MODEL 1
REMARK VINA RESULT:      77.1      0.000      0.000
REMARK  10 active torsions:
REMARK  status: ('A' for Active; 'I' for Inactive)
REMARK    1  A    between atoms: C_16  and  N_1 
REMARK    2  A    between atoms: S_10  and  C_2 
REMARK    3  A    between atoms: N_8  and  C_9 
REMARK    4  A    between atoms: C_18  and  S_10 
REMARK    5  A    between atoms: C_12  and  C_18 
REMARK       I    between atoms: N_19  and  C_12 
REMARK    6  A    between atoms: C_27  and  C_16 
REMARK    7  A    between atoms: C_25  and  N_19 
REMARK    8  A    between atoms: O_22  and  C_26 
REMARK    9  A    between atoms: C_26  and  C_25 
REMARK   10  A    between atoms: C_29  and  C_27 
ROOT
ATOM      1  N   UNL d   1     -50.072  27.304  35.892  0.00  0.00    -0.253 N 
ATOM      2  C   UNL d   1     -50.005  27.048  35.103  0.00  0.00     0.182 A 
ATOM      3  C   UNL d   1     -49.594  27.906  36.177  0.00  0.00     0.268 A 
ATOM      4  C   UNL d   1     -49.044  28.253  35.664  0.00  0.00     0.076 A 
ATOM      5  N   UNL d   1     -49.459  27.396  34.604  0.00  0.00    -0.222 NA
ATOM      6  C   UNL d   1     -48.976  27.999  34.883  0.00  0.00     0.088 A 
ATOM      7  C   UNL d   1     -48.571  28.851  35.954  0.00  0.00     0.024 A 
ATOM      8  C   UNL d   1     -48.010  29.212  35.451  0.00  0.00     0.065 A 
ATOM      9  O   UNL d   1     -49.661  28.159  36.958  0.00  0.00    -0.267 OA
ATOM     10  C   UNL d   1     -48.427  28.350  34.383  0.00  0.00     0.021 A 
ATOM     11  C   UNL d   1     -47.951  28.948  34.664  0.00  0.00     0.019 A 
ENDROOT
BRANCH   2  12
ATOM     12  S   UNL d   1     -50.499  26.433  34.826  0.00  0.00    -0.044 SA
BRANCH  12  13
ATOM     13  C   UNL d   1     -50.494  26.239  34.026  0.00  0.00     0.101 C 
BRANCH  13  14
ATOM     14  C   UNL d   1     -51.120  25.815  33.688  0.00  0.00     0.286 C 
ATOM     15  O   UNL d   1     -51.727  26.202  33.306  0.00  0.00    -0.265 OA
ATOM     16  N   UNL d   1     -51.139  24.990  33.734  0.00  0.00    -0.204 NA
BRANCH  16  17
ATOM     17  C   UNL d   1     -51.770  24.555  33.394  0.00  0.00     0.129 C 
BRANCH  17  18
ATOM     18  C   UNL d   1     -51.698  23.752  33.314  0.00  0.00     0.137 C 
BRANCH  18  19
ATOM     19  O   UNL d   1     -52.300  23.262  33.585  0.00  0.00    -0.325 OA
ATOM     20  C   UNL d   1     -53.084  23.495  33.504  0.00  0.00     0.182 C 
ENDBRANCH  18  19
ENDBRANCH  17  18
ENDBRANCH  16  17
ENDBRANCH  13  14
ENDBRANCH  12  13
ENDBRANCH   2  12
BRANCH   1  21
ATOM     21  C   UNL d   1     -50.634  26.942  36.396  0.00  0.00     0.085 C 
BRANCH  21  22
ATOM     22  C   UNL d   1     -50.387  26.603  37.094  0.00  0.00     0.019 C 
BRANCH  22  23
ATOM     23  C   UNL d   1     -50.789  26.761  37.793  0.00  0.00     0.002 C 
ATOM     24  C   UNL d   1     -51.093  26.135  38.250  0.00  0.00     0.000 C 
ENDBRANCH  22  23
ENDBRANCH  21  22
ENDBRANCH   1  21
BRANCH   8  25
ATOM     25  N   UNL d   1     -47.527  29.816  35.731  0.00  0.00    -0.300 N 
ATOM     26  C   UNL d   1     -47.326  29.832  36.534  0.00  0.00     0.107 A 
ATOM     27  C   UNL d   1     -46.839  30.443  36.812  0.00  0.00     0.142 A 
ATOM     28  O   UNL d   1     -46.558  31.030  36.294  0.00  0.00    -0.300 OA
ATOM     29  C   UNL d   1     -46.766  31.003  35.494  0.00  0.00     0.142 A 
ATOM     30  C   UNL d   1     -47.251  30.399  35.202  0.00  0.00     0.107 A 
ENDBRANCH   8  25
TORSDOF 10
ENDMDL
MODEL 2
REMARK VINA RESULT:      77.4      1.945      6.110
REMARK  10 active torsions:
REMARK  status: ('A' for Active; 'I' for Inactive)
REMARK    1  A    between atoms: C_16  and  N_1 
REMARK    2  A    between atoms: S_10  and  C_2 
REMARK    3  A    between atoms: N_8  and  C_9 
REMARK    4  A    between atoms: C_18  and  S_10 
REMARK    5  A    between atoms: C_12  and  C_18 
REMARK       I    between atoms: N_19  and  C_12 
REMARK    6  A    between atoms: C_27  and  C_16 
REMARK    7  A    between atoms: C_25  and  N_19 
REMARK    8  A    between atoms: O_22  and  C_26 
REMARK    9  A    between atoms: C_26  and  C_25 
REMARK   10  A    between atoms: C_29  and  C_27 
ROOT
ATOM      1  N   UNL d   1     -50.733  27.959  33.482  0.00  0.00    -0.253 N 
ATOM      2  C   UNL d   1     -49.935  27.747  33.591  0.00  0.00     0.182 A 
ATOM      3  C   UNL d   1     -51.313  27.381  33.433  0.00  0.00     0.268 A 
ATOM      4  C   UNL d   1     -51.090  26.586  33.495  0.00  0.00     0.076 A 
ATOM      5  N   UNL d   1     -49.723  26.960  33.652  0.00  0.00    -0.222 NA
ATOM      6  C   UNL d   1     -50.300  26.377  33.604  0.00  0.00     0.088 A 
ATOM      7  C   UNL d   1     -51.672  26.017  33.446  0.00  0.00     0.024 A 
ATOM      8  C   UNL d   1     -51.464  25.210  33.507  0.00  0.00     0.065 A 
ATOM      9  O   UNL d   1     -52.103  27.590  33.324  0.00  0.00    -0.267 OA
ATOM     10  C   UNL d   1     -50.089  25.586  33.664  0.00  0.00     0.021 A 
ATOM     11  C   UNL d   1     -50.664  25.011  33.616  0.00  0.00     0.019 A 
ENDROOT
BRANCH   2  12
ATOM     12  S   UNL d   1     -49.354  28.347  33.639  0.00  0.00    -0.044 SA
BRANCH  12  13
ATOM     13  C   UNL d   1     -48.995  28.505  34.363  0.00  0.00     0.101 C 
BRANCH  13  14
ATOM     14  C   UNL d   1     -48.453  29.126  34.441  0.00  0.00     0.286 C 
ATOM     15  O   UNL d   1     -48.514  29.794  33.977  0.00  0.00    -0.265 OA
ATOM     16  N   UNL d   1     -47.839  29.079  34.993  0.00  0.00    -0.204 NA
BRANCH  16  17
ATOM     17  C   UNL d   1     -47.287  29.705  35.076  0.00  0.00     0.129 C 
BRANCH  17  18
ATOM     18  C   UNL d   1     -47.453  30.424  34.739  0.00  0.00     0.137 C 
BRANCH  18  19
ATOM     19  O   UNL d   1     -47.317  31.112  35.169  0.00  0.00    -0.325 OA
ATOM     20  C   UNL d   1     -46.556  31.295  35.419  0.00  0.00     0.182 C 
ENDBRANCH  18  19
ENDBRANCH  17  18
ENDBRANCH  16  17
ENDBRANCH  13  14
ENDBRANCH  12  13
ENDBRANCH   2  12
BRANCH   1  21
ATOM     21  C   UNL d   1     -50.940  28.767  33.421  0.00  0.00     0.085 C 
BRANCH  21  22
ATOM     22  C   UNL d   1     -51.620  29.035  33.781  0.00  0.00     0.019 C 
BRANCH  22  23
ATOM     23  C   UNL d   1     -51.807  29.835  33.767  0.00  0.00     0.002 C 
ATOM     24  C   UNL d   1     -52.540  30.098  34.058  0.00  0.00     0.000 C 
ENDBRANCH  22  23
ENDBRANCH  21  22
ENDBRANCH   1  21
BRANCH   8  25
ATOM     25  N   UNL d   1     -52.042  24.627  33.459  0.00  0.00    -0.300 N 
ATOM     26  C   UNL d   1     -51.811  23.838  33.360  0.00  0.00     0.107 A 
ATOM     27  C   UNL d   1     -52.397  23.253  33.312  0.00  0.00     0.142 A 
ATOM     28  O   UNL d   1     -53.202  23.455  33.362  0.00  0.00    -0.300 OA
ATOM     29  C   UNL d   1     -53.421  24.247  33.460  0.00  0.00     0.142 A 
ATOM     30  C   UNL d   1     -52.847  24.842  33.510  0.00  0.00     0.107 A 
ENDBRANCH   8  25
TORSDOF 10
ENDMDL
