MODEL 1
REMARK VINA RESULT:      -6.5      0.000      0.000
REMARK  3 active torsions:
REMARK  status: ('A' for Active; 'I' for Inactive)
REMARK    1  A    between atoms: N_4  and  C_1 
REMARK       I    between atoms: C_7  and  N_4 
REMARK    2  A    between atoms: C_10  and  C_7 
REMARK    3  A    between atoms: O_16  and  C_15 
ROOT
ATOM      1  N   UNL d   1     -41.783-123.492 -51.735  0.00  0.00    -0.183 NA
ATOM      2  C   UNL d   1     -41.440-122.898 -52.198  0.00  0.00     0.281 C 
ATOM      3  O   UNL d   1     -41.124-122.217 -51.830  0.00  0.00    -0.265 OA
ENDROOT
BRANCH   1   4
ATOM      4  C   UNL d   1     -41.815-123.416 -50.908  0.00  0.00     0.197 A 
ATOM      5  N   UNL d   1     -42.416-123.031 -50.480  0.00  0.00    -0.221 NA
ATOM      6  C   UNL d   1     -42.230-123.085 -49.673  0.00  0.00     0.092 A 
ATOM      7  C   UNL d   1     -42.618-122.809 -49.000  0.00  0.00     0.039 A 
ATOM      8  C   UNL d   1     -41.513-123.503 -49.600  0.00  0.00     0.068 A 
ATOM      9  C   UNL d   1     -42.288-122.951 -48.246  0.00  0.00     0.082 A 
ATOM     10  N   UNL d   1     -41.581-123.364 -48.179  0.00  0.00    -0.301 N 
ATOM     11  C   UNL d   1     -41.196-123.638 -48.855  0.00  0.00     0.088 A 
ATOM     12  C   UNL d   1     -41.254-123.504 -47.423  0.00  0.00     0.100 C 
ATOM     13  S   UNL d   1     -41.263-123.704 -50.364  0.00  0.00    -0.045 SA
ENDBRANCH   1   4
BRANCH   2  14
ATOM     14  C   UNL d   1     -41.408-122.974 -53.020  0.00  0.00     0.060 A 
ATOM     15  C   UNL d   1     -41.631-122.346 -53.500  0.00  0.00     0.029 A 
ATOM     16  C   UNL d   1     -41.599-122.423 -54.314  0.00  0.00     0.094 A 
ATOM     17  C   UNL d   1     -41.345-123.130 -54.653  0.00  0.00     0.024 A 
ATOM     18  C   UNL d   1     -41.123-123.757 -54.164  0.00  0.00     0.002 A 
ATOM     19  C   UNL d   1     -41.155-123.679 -53.350  0.00  0.00     0.005 A 
BRANCH  16  20
ATOM     20  O   UNL d   1     -41.825-121.783 -54.813  0.00  0.00    -0.328 OA
ATOM     21  C   UNL d   1     -42.249-121.922 -55.509  0.00  0.00     0.181 C 
ENDBRANCH  16  20
ENDBRANCH   2  14
TORSDOF 3
ENDMDL
MODEL 2
REMARK VINA RESULT:      -5.0      1.528      5.028
REMARK  3 active torsions:
REMARK  status: ('A' for Active; 'I' for Inactive)
REMARK    1  A    between atoms: N_4  and  C_1 
REMARK       I    between atoms: C_7  and  N_4 
REMARK    2  A    between atoms: C_10  and  C_7 
REMARK    3  A    between atoms: O_16  and  C_15 
ROOT
ATOM      1  N   UNL d   1     -41.411-122.688 -51.150  0.00  0.00    -0.183 NA
ATOM      2  C   UNL d   1     -41.879-123.213 -50.713  0.00  0.00     0.281 C 
ATOM      3  O   UNL d   1     -42.396-123.736 -51.110  0.00  0.00    -0.265 OA
ENDROOT
BRANCH   1   4
ATOM      4  C   UNL d   1     -41.453-122.678 -51.980  0.00  0.00     0.197 A 
ATOM      5  N   UNL d   1     -41.134-123.256 -52.487  0.00  0.00    -0.221 NA
ATOM      6  C   UNL d   1     -41.301-123.030 -53.268  0.00  0.00     0.092 A 
ATOM      7  C   UNL d   1     -41.124-123.384 -53.992  0.00  0.00     0.039 A 
ATOM      8  C   UNL d   1     -41.722-122.312 -53.246  0.00  0.00     0.068 A 
ATOM      9  C   UNL d   1     -41.370-123.017 -54.701  0.00  0.00     0.082 A 
ATOM     10  N   UNL d   1     -41.786-122.308 -54.674  0.00  0.00    -0.301 N 
ATOM     11  C   UNL d   1     -41.960-121.958 -53.948  0.00  0.00     0.088 A 
ATOM     12  C   UNL d   1     -42.030-121.945 -55.385  0.00  0.00     0.100 C 
ATOM     13  S   UNL d   1     -41.812-122.101 -52.449  0.00  0.00    -0.045 SA
ENDBRANCH   1   4
BRANCH   2  14
ATOM     14  C   UNL d   1     -41.838-123.222 -49.888  0.00  0.00     0.060 A 
ATOM     15  C   UNL d   1     -42.468-123.512 -49.448  0.00  0.00     0.029 A 
ATOM     16  C   UNL d   1     -42.425-123.520 -48.630  0.00  0.00     0.094 A 
ATOM     17  C   UNL d   1     -41.752-123.238 -48.248  0.00  0.00     0.024 A 
ATOM     18  C   UNL d   1     -41.123-122.949 -48.697  0.00  0.00     0.002 A 
ATOM     19  C   UNL d   1     -41.166-122.941 -49.514  0.00  0.00     0.005 A 
BRANCH  16  20
ATOM     20  O   UNL d   1     -43.068-123.815 -48.172  0.00  0.00    -0.328 OA
ATOM     21  C   UNL d   1     -43.030-123.816 -47.347  0.00  0.00     0.181 C 
ENDBRANCH  16  20
ENDBRANCH   2  14
TORSDOF 3
ENDMDL
