MODEL 1
REMARK VINA RESULT:      16.6      0.000      0.000
REMARK  7 active torsions:
REMARK  status: ('A' for Active; 'I' for Inactive)
REMARK    1  A    between atoms: S_8  and  C_3 
REMARK    2  A    between atoms: C_4  and  C_15 
REMARK       I    between atoms: N_7  and  C_4 
REMARK    3  A    between atoms: C_13  and  C_5 
REMARK    4  A    between atoms: C_6  and  C_9 
REMARK    5  A    between atoms: C_9  and  N_7 
REMARK    6  A    between atoms: C_15  and  S_8 
REMARK    7  A    between atoms: O_17  and  C_11 
ROOT
ATOM      1  S   UNL d   1      45.676 -17.038  44.148  0.00  0.00    -0.061 SA
ENDROOT
BRANCH   1   2
ATOM      2  C   UNL d   1      45.638 -16.206  44.170  0.00  0.00     0.133 A 
ATOM      3  N   UNL d   1      46.121 -15.749  43.679  0.00  0.00    -0.141 NA
ATOM      4  N   UNL d   1      46.073 -14.919  43.710  0.00  0.00    -0.148 NA
ATOM      5  C   UNL d   1      45.547 -14.554  44.228  0.00  0.00     0.103 A 
ATOM      6  C   UNL d   1      45.065 -15.010  44.719  0.00  0.00     0.023 A 
ATOM      7  C   UNL d   1      45.109 -15.833  44.691  0.00  0.00     0.029 A 
BRANCH   5   8
ATOM      8  C   UNL d   1      45.503 -13.730  44.255  0.00  0.00     0.022 A 
ATOM      9  C   UNL d   1      45.876 -13.320  44.865  0.00  0.00     0.022 A 
ATOM     10  C   UNL d   1      45.833 -12.494  44.893  0.00  0.00     0.099 A 
ATOM     11  N   UNL d   1      45.414 -12.080  44.309  0.00  0.00    -0.242 NA
ATOM     12  C   UNL d   1      45.040 -12.494  43.698  0.00  0.00     0.099 A 
ATOM     13  C   UNL d   1      45.084 -13.317  43.670  0.00  0.00     0.022 A 
ENDBRANCH   5   8
ENDBRANCH   1   2
BRANCH   1  14
ATOM     14  C   UNL d   1      46.397 -17.426  44.258  0.00  0.00     0.099 C 
BRANCH  14  15
ATOM     15  C   UNL d   1      46.482 -18.209  44.014  0.00  0.00     0.286 C 
ATOM     16  N   UNL d   1      46.543 -18.390  43.203  0.00  0.00    -0.206 NA
ATOM     17  O   UNL d   1      46.508 -18.816  44.576  0.00  0.00    -0.265 OA
BRANCH  16  18
ATOM     18  C   UNL d   1      46.628 -19.172  42.959  0.00  0.00     0.104 C 
BRANCH  18  19
ATOM     19  C   UNL d   1      46.634 -19.358  42.150  0.00  0.00     0.042 A 
ATOM     20  C   UNL d   1      46.632 -18.755  41.588  0.00  0.00     0.096 A 
ATOM     21  C   UNL d   1      46.637 -18.940  40.783  0.00  0.00     0.024 A 
ATOM     22  C   UNL d   1      46.645 -19.727  40.540  0.00  0.00     0.002 A 
ATOM     23  C   UNL d   1      46.647 -20.330  41.102  0.00  0.00     0.000 A 
ATOM     24  C   UNL d   1      46.641 -20.145  41.907  0.00  0.00     0.004 A 
BRANCH  20  25
ATOM     25  O   UNL d   1      46.624 -17.952  41.841  0.00  0.00    -0.328 OA
ATOM     26  C   UNL d   1      46.635 -17.346  41.282  0.00  0.00     0.181 C 
ENDBRANCH  20  25
ENDBRANCH  18  19
ENDBRANCH  16  18
ENDBRANCH  14  15
ENDBRANCH   1  14
TORSDOF 7
ENDMDL
