MODEL 1
REMARK VINA RESULT:      29.3      0.000      0.000
REMARK  5 active torsions:
REMARK  status: ('A' for Active; 'I' for Inactive)
REMARK    1  A    between atoms: S_2  and  C_1 
REMARK    2  A    between atoms: C_5  and  C_1 
REMARK    3  A    between atoms: C_10  and  S_2 
REMARK       I    between atoms: N_9  and  C_5 
REMARK    4  A    between atoms: C_19  and  N_9 
REMARK    5  A    between atoms: C_18  and  C_19 
ROOT
ATOM      1  C   UNL d   1      14.165  12.367  -0.790  0.00  0.00     0.277 C 
ATOM      2  N   UNL d   1      14.105  12.388  -1.622  0.00  0.00    -0.209 NA
ATOM      3  O   UNL d   1      13.514  12.101  -0.345  0.00  0.00    -0.268 OA
ENDROOT
BRANCH   1   4
ATOM      4  C   UNL d   1      14.856  12.606  -0.405  0.00  0.00     0.207 A 
ATOM      5  C   UNL d   1      15.538  12.845  -0.024  0.00  0.00    -0.001 A 
ATOM      6  C   UNL d   1      15.390  12.036  -0.114  0.00  0.00    -0.001 A 
BRANCH   4   7
ATOM      7  S   UNL d   1      15.021  13.406  -0.306  0.00  0.00     0.203 S 
ATOM      8  O   UNL d   1      15.844  13.241  -0.417  0.00  0.00    -0.221 OA
ATOM      9  O   UNL d   1      14.224  13.553  -0.200  0.00  0.00    -0.221 OA
BRANCH   7  10
ATOM     10  C   UNL d   1      15.200  14.204  -0.209  0.00  0.00     0.085 A 
ATOM     11  C   UNL d   1      14.587  14.758  -0.198  0.00  0.00     0.011 A 
ATOM     12  C   UNL d   1      14.754  15.555  -0.102  0.00  0.00     0.001 A 
ATOM     13  C   UNL d   1      15.543  15.808  -0.015  0.00  0.00     0.000 A 
ATOM     14  C   UNL d   1      16.152  15.254  -0.026  0.00  0.00     0.001 A 
ATOM     15  C   UNL d   1      15.987  14.460  -0.121  0.00  0.00     0.011 A 
ENDBRANCH   7  10
ENDBRANCH   4   7
ENDBRANCH   1   4
BRANCH   2  16
ATOM     16  C   UNL d   1      13.395  12.143  -2.012  0.00  0.00     0.102 C 
BRANCH  16  17
ATOM     17  C   UNL d   1      13.267  12.358  -2.819  0.00  0.00     0.021 A 
ATOM     18  C   UNL d   1      13.288  13.149  -3.038  0.00  0.00     0.028 A 
ATOM     19  C   UNL d   1      13.160  13.348  -3.835  0.00  0.00     0.119 A 
ATOM     20  O   UNL d   1      13.143  14.057  -4.230  0.00  0.00    -0.300 OA
ATOM     21  C   UNL d   1      13.016  12.748  -4.392  0.00  0.00     0.119 A 
ATOM     22  C   UNL d   1      12.992  13.897  -5.008  0.00  0.00     0.304 A 
ATOM     23  O   UNL d   1      12.916  13.112  -5.109  0.00  0.00    -0.300 OA
ATOM     24  C   UNL d   1      13.001  11.959  -4.144  0.00  0.00     0.026 A 
ATOM     25  C   UNL d   1      13.130  11.785  -3.352  0.00  0.00     0.004 A 
ENDBRANCH  16  17
ENDBRANCH   2  16
TORSDOF 5
ENDMDL
MODEL 2
REMARK VINA RESULT:      32.0      1.512      3.971
REMARK  5 active torsions:
REMARK  status: ('A' for Active; 'I' for Inactive)
REMARK    1  A    between atoms: S_2  and  C_1 
REMARK    2  A    between atoms: C_5  and  C_1 
REMARK    3  A    between atoms: C_10  and  S_2 
REMARK       I    between atoms: N_9  and  C_5 
REMARK    4  A    between atoms: C_19  and  N_9 
REMARK    5  A    between atoms: C_18  and  C_19 
ROOT
ATOM      1  C   UNL d   1      14.685  12.792  -0.316  0.00  0.00     0.277 C 
ATOM      2  N   UNL d   1      14.593  13.621  -0.353  0.00  0.00    -0.209 NA
ATOM      3  O   UNL d   1      15.395  12.479  -0.014  0.00  0.00    -0.268 OA
ENDROOT
BRANCH   1   4
ATOM      4  C   UNL d   1      14.087  12.283  -0.571  0.00  0.00     0.207 A 
ATOM      5  C   UNL d   1      13.497  11.780  -0.828  0.00  0.00    -0.001 A 
ATOM      6  C   UNL d   1      13.613  11.882  -0.015  0.00  0.00    -0.001 A 
BRANCH   4   7
ATOM      7  S   UNL d   1      13.956  12.168  -1.376  0.00  0.00     0.203 S 
ATOM      8  O   UNL d   1      13.149  11.975  -1.208  0.00  0.00    -0.221 OA
ATOM      9  O   UNL d   1      14.738  12.355  -1.526  0.00  0.00    -0.221 OA
BRANCH   7  10
ATOM     10  C   UNL d   1      13.811  12.049  -2.178  0.00  0.00     0.085 A 
ATOM     11  C   UNL d   1      14.449  12.002  -2.701  0.00  0.00     0.011 A 
ATOM     12  C   UNL d   1      14.316  11.884  -3.502  0.00  0.00     0.001 A 
ATOM     13  C   UNL d   1      13.538  11.812  -3.790  0.00  0.00     0.000 A 
ATOM     14  C   UNL d   1      12.904  11.860  -3.265  0.00  0.00     0.001 A 
ATOM     15  C   UNL d   1      13.035  11.977  -2.468  0.00  0.00     0.011 A 
ENDBRANCH   7  10
ENDBRANCH   4   7
ENDBRANCH   1   4
BRANCH   2  16
ATOM     16  C   UNL d   1      15.208  14.139  -0.090  0.00  0.00     0.102 C 
BRANCH  16  17
ATOM     17  C   UNL d   1      15.268  14.915  -0.419  0.00  0.00     0.021 A 
ATOM     18  C   UNL d   1      14.827  15.111  -1.083  0.00  0.00     0.028 A 
ATOM     19  C   UNL d   1      14.895  15.878  -1.396  0.00  0.00     0.119 A 
ATOM     20  O   UNL d   1      14.549  16.247  -2.031  0.00  0.00    -0.300 OA
ATOM     21  C   UNL d   1      15.405  16.428  -1.036  0.00  0.00     0.119 A 
ATOM     22  C   UNL d   1      14.836  17.002  -2.059  0.00  0.00     0.304 A 
ATOM     23  O   UNL d   1      15.350  17.114  -1.463  0.00  0.00    -0.300 OA
ATOM     24  C   UNL d   1      15.837  16.203  -0.368  0.00  0.00     0.026 A 
ATOM     25  C   UNL d   1      15.754  15.440  -0.074  0.00  0.00     0.004 A 
ENDBRANCH  16  17
ENDBRANCH   2  16
TORSDOF 5
ENDMDL
