MODEL 1
REMARK VINA RESULT:       0.2      0.000      0.000
REMARK  5 active torsions:
REMARK  status: ('A' for Active; 'I' for Inactive)
REMARK    1  A    between atoms: N_7  and  C_1 
REMARK    2  A    between atoms: C_6  and  N_2 
REMARK    3  A    between atoms: C_11  and  C_6 
REMARK    4  A    between atoms: C_12  and  N_7 
REMARK    5  A    between atoms: C_13  and  C_12 
ROOT
ATOM      1  C   UNL d   1     -41.473-122.706 -52.172  0.00  0.00     0.735 A 
ATOM      2  N   UNL d   1     -41.685-122.169 -51.577  0.00  0.00    -0.138 N 
ATOM      3  N   UNL d   1     -41.227-123.414 -51.815  0.00  0.00    -0.059 NA
ATOM      4  C   UNL d   1     -41.570-122.542 -50.848  0.00  0.00     0.100 A 
ATOM      5  C   UNL d   1     -41.287-123.312 -51.000  0.00  0.00     0.116 A 
ATOM      6  C   UNL d   1     -41.684-122.290 -50.071  0.00  0.00     0.020 A 
ATOM      7  C   UNL d   1     -41.123-123.816 -50.365  0.00  0.00     0.021 A 
ATOM      8  C   UNL d   1     -41.518-122.797 -49.445  0.00  0.00     0.002 A 
ATOM      9  C   UNL d   1     -41.236-123.564 -49.589  0.00  0.00     0.002 A 
ENDROOT
BRANCH   1  10
ATOM     10  N   UNL d   1     -41.502-122.565 -52.985  0.00  0.00    -0.056 NA
BRANCH  10  11
ATOM     11  C   UNL d   1     -41.687-123.171 -53.510  0.00  0.00     0.163 C 
BRANCH  11  12
ATOM     12  C   UNL d   1     -41.332-123.214 -54.250  0.00  0.00     0.255 C 
ATOM     13  O   UNL d   1     -41.600-122.741 -54.869  0.00  0.00    -0.281 OA
ENDBRANCH  11  12
ENDBRANCH  10  11
ENDBRANCH   1  10
BRANCH   2  14
ATOM     14  C   UNL d   1     -41.959-121.402 -51.693  0.00  0.00     0.098 C 
BRANCH  14  15
ATOM     15  C   UNL d   1     -41.419-120.787 -51.836  0.00  0.00     0.018 C 
ATOM     16  C   UNL d   1     -41.179-120.296 -51.225  0.00  0.00     0.002 C 
ATOM     17  C   UNL d   1     -41.124-120.672 -52.600  0.00  0.00     0.002 C 
ENDBRANCH  14  15
ENDBRANCH   2  14
TORSDOF 5
ENDMDL
MODEL 2
REMARK VINA RESULT:       0.3      1.661      3.797
REMARK  5 active torsions:
REMARK  status: ('A' for Active; 'I' for Inactive)
REMARK    1  A    between atoms: N_7  and  C_1 
REMARK    2  A    between atoms: C_6  and  N_2 
REMARK    3  A    between atoms: C_11  and  C_6 
REMARK    4  A    between atoms: C_12  and  N_7 
REMARK    5  A    between atoms: C_13  and  C_12 
ROOT
ATOM      1  C   UNL d   1     -41.397-121.984 -53.074  0.00  0.00     0.735 A 
ATOM      2  N   UNL d   1     -41.461-122.766 -53.341  0.00  0.00    -0.138 N 
ATOM      3  N   UNL d   1     -41.655-121.476 -53.678  0.00  0.00    -0.059 NA
ATOM      4  C   UNL d   1     -41.759-122.746 -54.112  0.00  0.00     0.100 A 
ATOM      5  C   UNL d   1     -41.877-121.947 -54.316  0.00  0.00     0.116 A 
ATOM      6  C   UNL d   1     -41.938-123.342 -54.653  0.00  0.00     0.020 A 
ATOM      7  C   UNL d   1     -42.175-121.760 -55.066  0.00  0.00     0.021 A 
ATOM      8  C   UNL d   1     -42.234-123.149 -55.396  0.00  0.00     0.002 A 
ATOM      9  C   UNL d   1     -42.354-122.355 -55.606  0.00  0.00     0.002 A 
ENDROOT
BRANCH   1  10
ATOM     10  N   UNL d   1     -41.123-121.745 -52.333  0.00  0.00    -0.056 NA
BRANCH  10  11
ATOM     11  C   UNL d   1     -41.232-120.971 -52.075  0.00  0.00     0.163 C 
BRANCH  11  12
ATOM     12  C   UNL d   1     -41.157-120.775 -51.280  0.00  0.00     0.255 C 
ATOM     13  O   UNL d   1     -41.158-119.987 -51.043  0.00  0.00    -0.281 OA
ENDBRANCH  11  12
ENDBRANCH  10  11
ENDBRANCH   1  10
BRANCH   2  14
ATOM     14  C   UNL d   1     -41.262-123.440 -52.913  0.00  0.00     0.098 C 
BRANCH  14  15
ATOM     15  C   UNL d   1     -41.727-123.669 -52.263  0.00  0.00     0.018 C 
ATOM     16  C   UNL d   1     -41.389-123.747 -51.520  0.00  0.00     0.002 C 
ATOM     17  C   UNL d   1     -42.533-123.817 -52.369  0.00  0.00     0.002 C 
ENDBRANCH  14  15
ENDBRANCH   2  14
TORSDOF 5
ENDMDL
MODEL 3
REMARK VINA RESULT:       2.0      1.779      2.939
REMARK  5 active torsions:
REMARK  status: ('A' for Active; 'I' for Inactive)
REMARK    1  A    between atoms: N_7  and  C_1 
REMARK    2  A    between atoms: C_6  and  N_2 
REMARK    3  A    between atoms: C_11  and  C_6 
REMARK    4  A    between atoms: C_12  and  N_7 
REMARK    5  A    between atoms: C_13  and  C_12 
ROOT
ATOM      1  C   UNL d   1     -42.209-122.756 -50.452  0.00  0.00     0.735 A 
ATOM      2  N   UNL d   1     -42.183-123.246 -49.783  0.00  0.00    -0.138 N 
ATOM      3  N   UNL d   1     -43.002-122.573 -50.615  0.00  0.00    -0.059 NA
ATOM      4  C   UNL d   1     -42.961-123.368 -49.529  0.00  0.00     0.100 A 
ATOM      5  C   UNL d   1     -43.464-122.949 -50.047  0.00  0.00     0.116 A 
ATOM      6  C   UNL d   1     -43.280-123.799 -48.902  0.00  0.00     0.020 A 
ATOM      7  C   UNL d   1     -44.282-122.973 -49.923  0.00  0.00     0.021 A 
ATOM      8  C   UNL d   1     -44.093-123.817 -48.786  0.00  0.00     0.002 A 
ATOM      9  C   UNL d   1     -44.600-123.403 -49.297  0.00  0.00     0.002 A 
ENDROOT
BRANCH   1  10
ATOM     10  N   UNL d   1     -41.557-122.493 -50.885  0.00  0.00    -0.056 NA
BRANCH  10  11
ATOM     11  C   UNL d   1     -41.661-122.035 -51.562  0.00  0.00     0.163 C 
BRANCH  11  12
ATOM     12  C   UNL d   1     -41.123-122.069 -52.182  0.00  0.00     0.255 C 
ATOM     13  O   UNL d   1     -41.386-122.072 -52.962  0.00  0.00    -0.281 OA
ENDBRANCH  11  12
ENDBRANCH  10  11
ENDBRANCH   1  10
BRANCH   2  14
ATOM     14  C   UNL d   1     -41.504-123.555 -49.436  0.00  0.00     0.098 C 
BRANCH  14  15
ATOM     15  C   UNL d   1     -41.252-123.270 -48.696  0.00  0.00     0.018 C 
ATOM     16  C   UNL d   1     -41.123-123.789 -48.075  0.00  0.00     0.002 C 
ATOM     17  C   UNL d   1     -41.132-122.459 -48.590  0.00  0.00     0.002 C 
ENDBRANCH  14  15
ENDBRANCH   2  14
TORSDOF 5
ENDMDL
MODEL 4
REMARK VINA RESULT:       2.3      1.906      3.457
REMARK  5 active torsions:
REMARK  status: ('A' for Active; 'I' for Inactive)
REMARK    1  A    between atoms: N_7  and  C_1 
REMARK    2  A    between atoms: C_6  and  N_2 
REMARK    3  A    between atoms: C_11  and  C_6 
REMARK    4  A    between atoms: C_12  and  N_7 
REMARK    5  A    between atoms: C_13  and  C_12 
ROOT
ATOM      1  C   UNL d   1     -41.607-122.901 -50.624  0.00  0.00     0.735 A 
ATOM      2  N   UNL d   1     -41.393-122.946 -51.423  0.00  0.00    -0.138 N 
ATOM      3  N   UNL d   1     -41.680-122.102 -50.414  0.00  0.00    -0.059 NA
ATOM      4  C   UNL d   1     -41.333-122.174 -51.713  0.00  0.00     0.100 A 
ATOM      5  C   UNL d   1     -41.512-121.655 -51.085  0.00  0.00     0.116 A 
ATOM      6  C   UNL d   1     -41.142-121.872 -52.456  0.00  0.00     0.020 A 
ATOM      7  C   UNL d   1     -41.495-120.838 -51.217  0.00  0.00     0.021 A 
ATOM      8  C   UNL d   1     -41.128-121.060 -52.580  0.00  0.00     0.002 A 
ATOM      9  C   UNL d   1     -41.304-120.537 -51.960  0.00  0.00     0.002 A 
ENDROOT
BRANCH   1  10
ATOM     10  N   UNL d   1     -41.727-123.542 -50.117  0.00  0.00    -0.056 NA
BRANCH  10  11
ATOM     11  C   UNL d   1     -41.470-123.513 -49.336  0.00  0.00     0.163 C 
BRANCH  11  12
ATOM     12  C   UNL d   1     -41.954-123.767 -48.722  0.00  0.00     0.255 C 
ATOM     13  O   UNL d   1     -41.860-123.461 -47.963  0.00  0.00    -0.281 OA
ENDBRANCH  11  12
ENDBRANCH  10  11
ENDBRANCH   1  10
BRANCH   2  14
ATOM     14  C   UNL d   1     -41.264-123.637 -51.851  0.00  0.00     0.098 C 
BRANCH  14  15
ATOM     15  C   UNL d   1     -41.601-123.725 -52.606  0.00  0.00     0.018 C 
ATOM     16  C   UNL d   1     -41.123-123.806 -53.266  0.00  0.00     0.002 C 
ATOM     17  C   UNL d   1     -42.424-123.731 -52.687  0.00  0.00     0.002 C 
ENDBRANCH  14  15
ENDBRANCH   2  14
TORSDOF 5
ENDMDL
MODEL 5
REMARK VINA RESULT:       2.7      1.519      2.600
REMARK  5 active torsions:
REMARK  status: ('A' for Active; 'I' for Inactive)
REMARK    1  A    between atoms: N_7  and  C_1 
REMARK    2  A    between atoms: C_6  and  N_2 
REMARK    3  A    between atoms: C_11  and  C_6 
REMARK    4  A    between atoms: C_12  and  N_7 
REMARK    5  A    between atoms: C_13  and  C_12 
ROOT
ATOM      1  C   UNL d   1     -42.175-122.200 -50.736  0.00  0.00     0.735 A 
ATOM      2  N   UNL d   1     -41.943-122.967 -50.524  0.00  0.00    -0.138 N 
ATOM      3  N   UNL d   1     -42.657-121.893 -50.134  0.00  0.00    -0.059 NA
ATOM      4  C   UNL d   1     -42.280-123.138 -49.789  0.00  0.00     0.100 A 
ATOM      5  C   UNL d   1     -42.721-122.471 -49.552  0.00  0.00     0.116 A 
ATOM      6  C   UNL d   1     -42.248-123.805 -49.304  0.00  0.00     0.020 A 
ATOM      7  C   UNL d   1     -43.124-122.487 -48.828  0.00  0.00     0.021 A 
ATOM      8  C   UNL d   1     -42.650-123.814 -48.587  0.00  0.00     0.002 A 
ATOM      9  C   UNL d   1     -43.091-123.154 -48.345  0.00  0.00     0.002 A 
ENDROOT
BRANCH   1  10
ATOM     10  N   UNL d   1     -41.965-121.804 -51.430  0.00  0.00    -0.056 NA
BRANCH  10  11
ATOM     11  C   UNL d   1     -41.431-121.177 -51.409  0.00  0.00     0.163 C 
BRANCH  11  12
ATOM     12  C   UNL d   1     -41.222-120.777 -52.096  0.00  0.00     0.255 C 
ATOM     13  O   UNL d   1     -41.286-119.957 -52.137  0.00  0.00    -0.281 OA
ENDBRANCH  11  12
ENDBRANCH  10  11
ENDBRANCH   1  10
BRANCH   2  14
ATOM     14  C   UNL d   1     -41.462-123.467 -50.967  0.00  0.00     0.098 C 
BRANCH  14  15
ATOM     15  C   UNL d   1     -41.691-123.688 -51.734  0.00  0.00     0.018 C 
ATOM     16  C   UNL d   1     -41.128-123.792 -52.320  0.00  0.00     0.002 C 
ATOM     17  C   UNL d   1     -42.493-123.802 -51.904  0.00  0.00     0.002 C 
ENDBRANCH  14  15
ENDBRANCH   2  14
TORSDOF 5
ENDMDL
