MODEL 1
REMARK VINA RESULT:      -4.7      0.000      0.000
REMARK  3 active torsions:
REMARK  status: ('A' for Active; 'I' for Inactive)
REMARK    1  A    between atoms: S_4  and  C_1 
REMARK    2  A    between atoms: C_8  and  S_4 
REMARK    3  A    between atoms: C_10  and  C_8 
ROOT
ATOM      1  C   UNL d   1     -41.546-122.852 -53.524  0.00  0.00     0.114 A 
ATOM      2  C   UNL d   1     -41.881-122.403 -54.125  0.00  0.00     0.042 A 
ATOM      3  N   UNL d   1     -41.166-123.561 -53.708  0.00  0.00    -0.217 NA
ATOM      4  N   UNL d   1     -41.460-123.364 -55.094  0.00  0.00    -0.224 NA
ATOM      5  C   UNL d   1     -41.122-123.817 -54.493  0.00  0.00     0.200 A 
ATOM      6  C   UNL d   1     -41.838-122.659 -54.910  0.00  0.00     0.085 A 
ATOM      7  C   UNL d   1     -42.262-121.694 -53.941  0.00  0.00     0.004 A 
ATOM      8  C   UNL d   1     -42.175-122.206 -55.511  0.00  0.00     0.019 A 
ATOM      9  C   UNL d   1     -42.599-121.241 -54.543  0.00  0.00     0.000 A 
ATOM     10  C   UNL d   1     -42.555-121.497 -55.329  0.00  0.00     0.002 A 
ENDROOT
BRANCH   1  11
ATOM     11  S   UNL d   1     -41.590-122.596 -52.740  0.00  0.00    -0.067 SA
BRANCH  11  12
ATOM     12  C   UNL d   1     -41.151-122.969 -52.158  0.00  0.00     0.037 C 
BRANCH  12  13
ATOM     13  C   UNL d   1     -41.344-122.870 -51.368  0.00  0.00     0.007 A 
ATOM     14  C   UNL d   1     -41.444-122.111 -51.045  0.00  0.00     0.003 A 
ATOM     15  C   UNL d   1     -41.636-122.023 -50.256  0.00  0.00     0.030 A 
ATOM     16  C   UNL d   1     -41.731-122.682 -49.782  0.00  0.00     0.140 A 
ATOM     17  C   UNL d   1     -41.634-123.433 -50.092  0.00  0.00     0.030 A 
ATOM     18  F   UNL d   1     -41.926-122.589 -48.978  0.00  0.00    -0.204 F 
ATOM     19  C   UNL d   1     -41.439-123.537 -50.888  0.00  0.00     0.003 A 
ENDBRANCH  12  13
ENDBRANCH  11  12
ENDBRANCH   1  11
TORSDOF 3
ENDMDL
MODEL 2
REMARK VINA RESULT:      -4.3      2.088      4.349
REMARK  3 active torsions:
REMARK  status: ('A' for Active; 'I' for Inactive)
REMARK    1  A    between atoms: S_4  and  C_1 
REMARK    2  A    between atoms: C_8  and  S_4 
REMARK    3  A    between atoms: C_10  and  C_8 
ROOT
ATOM      1  C   UNL d   1     -41.422-122.070 -51.956  0.00  0.00     0.114 A 
ATOM      2  C   UNL d   1     -41.475-122.541 -51.284  0.00  0.00     0.042 A 
ATOM      3  N   UNL d   1     -41.245-121.268 -51.879  0.00  0.00    -0.217 NA
ATOM      4  N   UNL d   1     -41.177-121.414 -50.457  0.00  0.00    -0.224 NA
ATOM      5  C   UNL d   1     -41.123-120.940 -51.130  0.00  0.00     0.200 A 
ATOM      6  C   UNL d   1     -41.353-122.213 -50.535  0.00  0.00     0.085 A 
ATOM      7  C   UNL d   1     -41.652-123.343 -51.361  0.00  0.00     0.004 A 
ATOM      8  C   UNL d   1     -41.407-122.687 -49.863  0.00  0.00     0.019 A 
ATOM      9  C   UNL d   1     -41.706-123.817 -50.688  0.00  0.00     0.000 A 
ATOM     10  C   UNL d   1     -41.584-123.490 -49.939  0.00  0.00     0.002 A 
ENDROOT
BRANCH   1  11
ATOM     11  S   UNL d   1     -41.544-122.398 -52.704  0.00  0.00    -0.067 SA
BRANCH  11  12
ATOM     12  C   UNL d   1     -41.249-122.027 -53.372  0.00  0.00     0.037 C 
BRANCH  12  13
ATOM     13  C   UNL d   1     -41.629-122.109 -54.092  0.00  0.00     0.007 A 
ATOM     14  C   UNL d   1     -42.240-121.590 -54.316  0.00  0.00     0.003 A 
ATOM     15  C   UNL d   1     -42.612-121.681 -55.036  0.00  0.00     0.030 A 
ATOM     16  C   UNL d   1     -42.387-122.284 -55.541  0.00  0.00     0.140 A 
ATOM     17  C   UNL d   1     -41.787-122.799 -55.329  0.00  0.00     0.030 A 
ATOM     18  F   UNL d   1     -42.769-122.374 -56.275  0.00  0.00    -0.204 F 
ATOM     19  C   UNL d   1     -41.401-122.719 -54.603  0.00  0.00     0.003 A 
ENDBRANCH  12  13
ENDBRANCH  11  12
ENDBRANCH   1  11
TORSDOF 3
ENDMDL
MODEL 3
REMARK VINA RESULT:      -3.8      1.442      2.186
REMARK  3 active torsions:
REMARK  status: ('A' for Active; 'I' for Inactive)
REMARK    1  A    between atoms: S_4  and  C_1 
REMARK    2  A    between atoms: C_8  and  S_4 
REMARK    3  A    between atoms: C_10  and  C_8 
ROOT
ATOM      1  C   UNL d   1     -41.434-122.273 -51.869  0.00  0.00     0.114 A 
ATOM      2  C   UNL d   1     -41.333-122.632 -52.602  0.00  0.00     0.042 A 
ATOM      3  N   UNL d   1     -41.434-121.449 -51.815  0.00  0.00    -0.217 NA
ATOM      4  N   UNL d   1     -41.233-121.351 -53.228  0.00  0.00    -0.224 NA
ATOM      5  C   UNL d   1     -41.334-120.988 -52.494  0.00  0.00     0.200 A 
ATOM      6  C   UNL d   1     -41.233-122.171 -53.281  0.00  0.00     0.085 A 
ATOM      7  C   UNL d   1     -41.333-123.455 -52.656  0.00  0.00     0.004 A 
ATOM      8  C   UNL d   1     -41.132-122.534 -54.015  0.00  0.00     0.019 A 
ATOM      9  C   UNL d   1     -41.232-123.817 -53.391  0.00  0.00     0.000 A 
ATOM     10  C   UNL d   1     -41.131-123.357 -54.070  0.00  0.00     0.002 A 
ENDROOT
BRANCH   1  11
ATOM     11  S   UNL d   1     -41.535-122.733 -51.191  0.00  0.00    -0.067 SA
BRANCH  11  12
ATOM     12  C   UNL d   1     -41.474-122.394 -50.448  0.00  0.00     0.037 C 
BRANCH  12  13
ATOM     13  C   UNL d   1     -41.835-122.746 -49.803  0.00  0.00     0.007 A 
ATOM     14  C   UNL d   1     -42.651-122.662 -49.671  0.00  0.00     0.003 A 
ATOM     15  C   UNL d   1     -43.001-123.017 -49.025  0.00  0.00     0.030 A 
ATOM     16  C   UNL d   1     -42.549-123.457 -48.504  0.00  0.00     0.140 A 
ATOM     17  C   UNL d   1     -41.745-123.545 -48.627  0.00  0.00     0.030 A 
ATOM     18  F   UNL d   1     -42.909-123.817 -47.846  0.00  0.00    -0.204 F 
ATOM     19  C   UNL d   1     -41.378-123.191 -49.276  0.00  0.00     0.003 A 
ENDBRANCH  12  13
ENDBRANCH  11  12
ENDBRANCH   1  11
TORSDOF 3
ENDMDL
MODEL 4
REMARK VINA RESULT:      -3.7      2.200      4.613
REMARK  3 active torsions:
REMARK  status: ('A' for Active; 'I' for Inactive)
REMARK    1  A    between atoms: S_4  and  C_1 
REMARK    2  A    between atoms: C_8  and  S_4 
REMARK    3  A    between atoms: C_10  and  C_8 
ROOT
ATOM      1  C   UNL d   1     -42.166-122.746 -50.681  0.00  0.00     0.114 A 
ATOM      2  C   UNL d   1     -41.982-123.027 -49.931  0.00  0.00     0.042 A 
ATOM      3  N   UNL d   1     -42.830-122.266 -50.786  0.00  0.00    -0.217 NA
ATOM      4  N   UNL d   1     -43.119-122.353 -49.388  0.00  0.00    -0.224 NA
ATOM      5  C   UNL d   1     -43.306-122.070 -50.140  0.00  0.00     0.200 A 
ATOM      6  C   UNL d   1     -42.458-122.830 -49.284  0.00  0.00     0.085 A 
ATOM      7  C   UNL d   1     -41.319-123.506 -49.826  0.00  0.00     0.004 A 
ATOM      8  C   UNL d   1     -42.271-123.113 -48.532  0.00  0.00     0.019 A 
ATOM      9  C   UNL d   1     -41.132-123.789 -49.074  0.00  0.00     0.000 A 
ATOM     10  C   UNL d   1     -41.608-123.592 -48.427  0.00  0.00     0.002 A 
ENDROOT
BRANCH   1  11
ATOM     11  S   UNL d   1     -41.690-122.942 -51.327  0.00  0.00    -0.067 SA
BRANCH  11  12
ATOM     12  C   UNL d   1     -41.555-122.397 -51.923  0.00  0.00     0.037 C 
BRANCH  12  13
ATOM     13  C   UNL d   1     -41.448-122.647 -52.695  0.00  0.00     0.007 A 
ATOM     14  C   UNL d   1     -41.253-123.437 -52.866  0.00  0.00     0.003 A 
ATOM     15  C   UNL d   1     -41.149-123.676 -53.639  0.00  0.00     0.030 A 
ATOM     16  C   UNL d   1     -41.237-123.139 -54.249  0.00  0.00     0.140 A 
ATOM     17  C   UNL d   1     -41.430-122.359 -54.090  0.00  0.00     0.030 A 
ATOM     18  F   UNL d   1     -41.131-123.385 -55.037  0.00  0.00    -0.204 F 
ATOM     19  C   UNL d   1     -41.538-122.104 -53.312  0.00  0.00     0.003 A 
ENDBRANCH  12  13
ENDBRANCH  11  12
ENDBRANCH   1  11
TORSDOF 3
ENDMDL
