MODEL 1
REMARK VINA RESULT:      -4.9      0.000      0.000
REMARK  3 active torsions:
REMARK  status: ('A' for Active; 'I' for Inactive)
REMARK       I    between atoms: C_6  and  N_9 
REMARK    1  A    between atoms: C_7  and  C_6 
REMARK    2  A    between atoms: N_9  and  C_17 
REMARK    3  A    between atoms: C_17  and  C_16 
ROOT
ATOM      1  N   UNL d   1     -41.957-123.387 -48.758  0.00  0.00    -0.304 N 
ATOM      2  C   UNL d   1     -42.732-123.205 -48.559  0.00  0.00     0.064 A 
ATOM      3  C   UNL d   1     -41.799-123.066 -49.499  0.00  0.00     0.064 A 
ATOM      4  C   UNL d   1     -42.484-122.686 -49.754  0.00  0.00     0.018 A 
ATOM      5  C   UNL d   1     -43.055-122.771 -49.177  0.00  0.00     0.019 A 
ATOM      6  C   UNL d   1     -41.124-123.074 -49.969  0.00  0.00     0.018 A 
ATOM      7  C   UNL d   1     -42.493-122.304 -50.496  0.00  0.00     0.003 A 
ATOM      8  C   UNL d   1     -41.816-122.311 -50.968  0.00  0.00     0.019 A 
ATOM      9  C   UNL d   1     -41.129-122.698 -50.704  0.00  0.00     0.003 A 
ATOM     10  C   UNL d   1     -41.424-123.816 -48.298  0.00  0.00     0.099 C 
ATOM     11  C   UNL d   1     -43.119-123.417 -47.863  0.00  0.00     0.019 C 
ENDROOT
BRANCH   8  12
ATOM     12  C   UNL d   1     -41.822-121.936 -51.700  0.00  0.00     0.102 C 
BRANCH  12  13
ATOM     13  N   UNL d   1     -41.825-122.371 -52.390  0.00  0.00    -0.206 NA
ATOM     14  C   UNL d   1     -41.698-122.014 -53.114  0.00  0.00     0.285 C 
ATOM     15  O   UNL d   1     -41.565-121.201 -53.150  0.00  0.00    -0.265 OA
BRANCH  14  16
ATOM     16  C   UNL d   1     -41.701-122.454 -53.813  0.00  0.00     0.087 A 
ATOM     17  S   UNL d   1     -42.189-122.335 -54.467  0.00  0.00    -0.082 SA
ATOM     18  C   UNL d   1     -41.997-122.901 -55.031  0.00  0.00     0.036 A 
ATOM     19  C   UNL d   1     -41.388-123.379 -54.734  0.00  0.00     0.008 A 
ATOM     20  C   UNL d   1     -41.207-123.098 -53.979  0.00  0.00     0.012 A 
ENDBRANCH  14  16
ENDBRANCH  12  13
ENDBRANCH   8  12
TORSDOF 3
ENDMDL
