MODEL 1
REMARK VINA RESULT:      52.7      0.000      0.000
REMARK  2 active torsions:
REMARK  status: ('A' for Active; 'I' for Inactive)
REMARK    1  A    between atoms: N_7  and  C_3 
REMARK    2  A    between atoms: C_15  and  C_5 
ROOT
ATOM      1  N   UNL d   1      45.795 -17.630  43.666  0.00  0.00    -0.196 N 
ATOM      2  C   UNL d   1      45.894 -16.873  43.312  0.00  0.00     0.167 A 
ATOM      3  C   UNL d   1      45.961 -18.315  43.226  0.00  0.00     0.153 A 
ATOM      4  N   UNL d   1      45.371 -17.009  44.877  0.00  0.00    -0.163 NA
ATOM      5  C   UNL d   1      45.732 -16.204  43.741  0.00  0.00     0.055 A 
ATOM      6  N   UNL d   1      46.156 -16.826  42.530  0.00  0.00    -0.227 NA
ATOM      7  C   UNL d   1      46.219 -18.252  42.455  0.00  0.00     0.052 A 
ATOM      8  C   UNL d   1      45.469 -16.263  44.528  0.00  0.00     0.104 A 
ATOM      9  C   UNL d   1      46.320 -17.498  42.094  0.00  0.00     0.086 A 
ATOM     10  C   UNL d   1      46.421 -18.809  41.897  0.00  0.00     0.005 A 
ATOM     11  C   UNL d   1      45.307 -15.581  44.955  0.00  0.00     0.023 C 
ATOM     12  C   UNL d   1      46.582 -17.610  41.323  0.00  0.00     0.019 A 
ATOM     13  C   UNL d   1      46.645 -18.433  41.202  0.00  0.00     0.002 A 
ENDROOT
BRANCH   3  14
ATOM     14  N   UNL d   1      45.862 -19.081  43.580  0.00  0.00    -0.274 N 
ATOM     15  C   UNL d   1      46.089 -19.610  44.196  0.00  0.00     0.149 A 
ATOM     16  N   UNL d   1      45.652 -20.330  44.096  0.00  0.00    -0.225 NA
ATOM     17  C   UNL d   1      46.646 -19.451  44.797  0.00  0.00     0.041 C 
ATOM     18  C   UNL d   1      45.161 -20.232  43.416  0.00  0.00     0.120 A 
ATOM     19  C   UNL d   1      45.286 -19.474  43.100  0.00  0.00     0.104 A 
ENDBRANCH   3  14
BRANCH   5  20
ATOM     20  C   UNL d   1      45.829 -15.462  43.394  0.00  0.00     0.004 A 
ATOM     21  C   UNL d   1      45.204 -14.923  43.385  0.00  0.00     0.000 A 
ATOM     22  C   UNL d   1      45.297 -14.185  43.041  0.00  0.00     0.000 A 
ATOM     23  C   UNL d   1      46.023 -13.978  42.700  0.00  0.00     0.000 A 
ATOM     24  C   UNL d   1      46.645 -14.504  42.705  0.00  0.00     0.000 A 
ATOM     25  C   UNL d   1      46.547 -15.253  43.055  0.00  0.00     0.000 A 
ENDBRANCH   5  20
TORSDOF 2
ENDMDL
