MODEL 1
REMARK VINA RESULT:      -8.7      0.000      0.000
REMARK  5 active torsions:
REMARK  status: ('A' for Active; 'I' for Inactive)
REMARK    1  A    between atoms: S_5  and  C_3 
REMARK    2  A    between atoms: C_13  and  S_5 
REMARK    3  A    between atoms: C_23  and  N_7 
REMARK    4  A    between atoms: C_30  and  C_23 
REMARK    5  A    between atoms: O_29  and  C_30 
ROOT
ATOM      1  C   UNL d   1      52.841  33.387  53.535  0.00  0.00     0.155 A 
ATOM      2  C   UNL d   1      52.560  34.121  53.757  0.00  0.00     0.092 A 
ATOM      3  C   UNL d   1      51.424  33.934  52.936  0.00  0.00     0.124 A 
ATOM      4  N   UNL d   1      53.548  33.108  53.831  0.00  0.00    -0.210 NA
ATOM      5  N   UNL d   1      53.707  34.296  54.578  0.00  0.00    -0.258 N 
ATOM      6  N   UNL d   1      52.416  32.922  53.013  0.00  0.00    -0.271 N 
ATOM      7  C   UNL d   1      53.981  33.561  54.352  0.00  0.00     0.152 A 
ATOM      8  C   UNL d   1      51.705  33.201  52.715  0.00  0.00     0.181 A 
ATOM      9  C   UNL d   1      52.991  34.578  54.279  0.00  0.00     0.269 A 
ATOM     10  C   UNL d   1      51.853  34.400  53.461  0.00  0.00     0.022 A 
ATOM     11  C   UNL d   1      54.688  33.282  54.647  0.00  0.00     0.035 A 
ATOM     12  C   UNL d   1      54.138  34.754  55.101  0.00  0.00     0.084 A 
ATOM     13  N   UNL d   1      51.269  32.725  52.179  0.00  0.00    -0.128 N 
ATOM     14  O   UNL d   1      52.709  35.333  54.511  0.00  0.00    -0.266 OA
ATOM     15  C   UNL d   1      54.847  34.470  55.395  0.00  0.00     0.019 A 
ATOM     16  C   UNL d   1      55.122  33.735  55.168  0.00  0.00     0.005 A 
ATOM     17  C   UNL d   1      54.970  32.528  54.415  0.00  0.00     0.003 C 
ENDROOT
BRANCH   3  18
ATOM     18  S   UNL d   1      50.702  34.212  52.631  0.00  0.00     0.213 S 
ATOM     19  O   UNL d   1      51.083  34.484  51.940  0.00  0.00    -0.217 OA
ATOM     20  O   UNL d   1      50.316  33.944  53.314  0.00  0.00    -0.217 OA
BRANCH  18  21
ATOM     21  C   UNL d   1      49.972  34.487  52.335  0.00  0.00     0.088 A 
ATOM     22  C   UNL d   1      49.771  34.363  51.541  0.00  0.00     0.014 A 
ATOM     23  C   UNL d   1      49.043  34.638  51.250  0.00  0.00     0.030 A 
ATOM     24  C   UNL d   1      48.517  35.038  51.757  0.00  0.00     0.140 A 
ATOM     25  C   UNL d   1      48.727  35.161  52.561  0.00  0.00     0.030 A 
ATOM     26  F   UNL d   1      47.782  35.317  51.467  0.00  0.00    -0.204 F 
ATOM     27  C   UNL d   1      49.452  34.884  52.843  0.00  0.00     0.014 A 
ENDBRANCH  18  21
ENDBRANCH   3  18
BRANCH   6  28
ATOM     28  C   UNL d   1      52.702  32.177  52.788  0.00  0.00     0.109 C 
BRANCH  28  29
ATOM     29  C   UNL d   1      52.316  31.488  53.049  0.00  0.00     0.135 C 
BRANCH  29  30
ATOM     30  O   UNL d   1      52.567  30.738  52.773  0.00  0.00    -0.325 OA
ATOM     31  C   UNL d   1      52.541  30.078  53.280  0.00  0.00     0.182 C 
ENDBRANCH  29  30
ENDBRANCH  28  29
ENDBRANCH   6  28
TORSDOF 5
ENDMDL
MODEL 2
REMARK VINA RESULT:      -8.1      0.996      2.625
REMARK  5 active torsions:
REMARK  status: ('A' for Active; 'I' for Inactive)
REMARK    1  A    between atoms: S_5  and  C_3 
REMARK    2  A    between atoms: C_13  and  S_5 
REMARK    3  A    between atoms: C_23  and  N_7 
REMARK    4  A    between atoms: C_30  and  C_23 
REMARK    5  A    between atoms: O_29  and  C_30 
ROOT
ATOM      1  C   UNL d   1      52.491  33.396  53.218  0.00  0.00     0.155 A 
ATOM      2  C   UNL d   1      51.905  32.880  52.981  0.00  0.00     0.092 A 
ATOM      3  C   UNL d   1      51.052  33.974  52.708  0.00  0.00     0.124 A 
ATOM      4  N   UNL d   1      53.213  33.113  53.474  0.00  0.00    -0.210 NA
ATOM      5  N   UNL d   1      52.773  31.788  53.259  0.00  0.00    -0.258 N 
ATOM      6  N   UNL d   1      52.362  34.204  53.202  0.00  0.00    -0.271 N 
ATOM      7  C   UNL d   1      53.354  32.310  53.494  0.00  0.00     0.152 A 
ATOM      8  C   UNL d   1      51.638  34.488  52.945  0.00  0.00     0.181 A 
ATOM      9  C   UNL d   1      52.043  32.074  53.000  0.00  0.00     0.269 A 
ATOM     10  C   UNL d   1      51.184  33.162  52.725  0.00  0.00     0.022 A 
ATOM     11  C   UNL d   1      54.075  32.029  53.750  0.00  0.00     0.035 A 
ATOM     12  C   UNL d   1      52.911  30.983  53.278  0.00  0.00     0.084 A 
ATOM     13  N   UNL d   1      51.505  35.317  52.929  0.00  0.00    -0.128 N 
ATOM     14  O   UNL d   1      51.446  31.538  52.757  0.00  0.00    -0.266 OA
ATOM     15  C   UNL d   1      53.636  30.704  53.535  0.00  0.00     0.019 A 
ATOM     16  C   UNL d   1      54.217  31.226  53.771  0.00  0.00     0.005 A 
ATOM     17  C   UNL d   1      54.672  32.565  53.992  0.00  0.00     0.003 C 
ENDROOT
BRANCH   3  18
ATOM     18  S   UNL d   1      50.320  34.268  52.449  0.00  0.00     0.213 S 
ATOM     19  O   UNL d   1      50.015  34.236  53.225  0.00  0.00    -0.217 OA
ATOM     20  O   UNL d   1      50.614  34.304  51.674  0.00  0.00    -0.217 OA
BRANCH  18  21
ATOM     21  C   UNL d   1      49.588  34.565  52.176  0.00  0.00     0.088 A 
ATOM     22  C   UNL d   1      49.096  34.992  52.686  0.00  0.00     0.014 A 
ATOM     23  C   UNL d   1      48.369  35.286  52.412  0.00  0.00     0.030 A 
ATOM     24  C   UNL d   1      48.137  35.149  51.624  0.00  0.00     0.140 A 
ATOM     25  C   UNL d   1      48.640  34.715  51.111  0.00  0.00     0.030 A 
ATOM     26  F   UNL d   1      47.404  35.444  51.342  0.00  0.00    -0.204 F 
ATOM     27  C   UNL d   1      49.361  34.426  51.391  0.00  0.00     0.014 A 
ENDBRANCH  18  21
ENDBRANCH   3  18
BRANCH   6  28
ATOM     28  C   UNL d   1      52.958  34.727  53.444  0.00  0.00     0.109 C 
BRANCH  28  29
ATOM     29  C   UNL d   1      52.828  35.236  54.088  0.00  0.00     0.135 C 
BRANCH  29  30
ATOM     30  O   UNL d   1      53.446  35.730  54.363  0.00  0.00    -0.325 OA
ATOM     31  C   UNL d   1      53.329  36.209  55.033  0.00  0.00     0.182 C 
ENDBRANCH  29  30
ENDBRANCH  28  29
ENDBRANCH   6  28
TORSDOF 5
ENDMDL
