MODEL 1
REMARK VINA RESULT:      74.6      0.000      0.000
REMARK  8 active torsions:
REMARK  status: ('A' for Active; 'I' for Inactive)
REMARK    1  A    between atoms: C_7  and  C_1 
REMARK    2  A    between atoms: N_5  and  C_2 
REMARK       I    between atoms: C_8  and  N_5 
REMARK    3  A    between atoms: N_9  and  C_7 
REMARK    4  A    between atoms: C_12  and  C_7 
REMARK    5  A    between atoms: C_10  and  C_8 
REMARK    6  A    between atoms: C_11  and  C_14 
REMARK    7  A    between atoms: O_25  and  C_11 
REMARK    8  A    between atoms: C_31  and  O_25 
ROOT
ATOM      1  C   UNL d   1      44.869 -14.247  43.724  0.00  0.00     0.068 C 
ENDROOT
BRANCH   1   2
ATOM      2  C   UNL d   1      45.268 -13.521  43.664  0.00  0.00     0.041 A 
ATOM      3  C   UNL d   1      45.253 -12.940  43.084  0.00  0.00     0.115 A 
ATOM      4  S   UNL d   1      45.764 -12.338  43.322  0.00  0.00    -0.068 SA
ATOM      5  C   UNL d   1      46.089 -12.554  44.046  0.00  0.00     0.031 A 
ATOM      6  C   UNL d   1      45.781 -13.299  44.267  0.00  0.00     0.009 A 
ATOM      7  C   UNL d   1      46.639 -12.096  44.482  0.00  0.00     0.007 C 
ATOM      8  C   UNL d   1      45.958 -13.721  44.954  0.00  0.00     0.001 C 
BRANCH   3   9
ATOM      9  N   UNL d   1      44.801 -12.944  42.369  0.00  0.00    -0.200 NA
ATOM     10  C   UNL d   1      45.069 -12.504  41.702  0.00  0.00     0.302 C 
ATOM     11  O   UNL d   1      45.757 -12.084  41.757  0.00  0.00    -0.263 OA
BRANCH  10  12
ATOM     12  C   UNL d   1      44.613 -12.517  41.004  0.00  0.00     0.158 A 
ATOM     13  O   UNL d   1      43.848 -12.241  40.856  0.00  0.00    -0.300 OA
ATOM     14  C   UNL d   1      43.683 -12.403  40.058  0.00  0.00     0.123 A 
ATOM     15  C   UNL d   1      44.373 -12.784  39.735  0.00  0.00     0.029 A 
ATOM     16  C   UNL d   1      44.928 -12.841  40.338  0.00  0.00     0.032 A 
ENDBRANCH  10  12
ENDBRANCH   3   9
ENDBRANCH   1   2
BRANCH   1  17
ATOM     17  N   UNL d   1      45.263 -14.979  43.574  0.00  0.00    -0.304 N 
ATOM     18  C   UNL d   1      45.666 -15.122  42.866  0.00  0.00     0.080 A 
ATOM     19  C   UNL d   1      46.038 -15.844  42.751  0.00  0.00     0.024 A 
ATOM     20  C   UNL d   1      46.012 -16.416  43.326  0.00  0.00     0.067 A 
ATOM     21  C   UNL d   1      45.619 -16.304  44.038  0.00  0.00     0.024 A 
ATOM     22  C   UNL d   1      45.238 -15.578  44.168  0.00  0.00     0.080 A 
BRANCH  20  23
ATOM     23  C   UNL d   1      46.392 -17.114  43.171  0.00  0.00     0.300 C 
ATOM     24  O   UNL d   1      46.596 -17.338  42.407  0.00  0.00    -0.259 OA
BRANCH  23  25
ATOM     25  O   UNL d   1      46.598 -17.646  43.781  0.00  0.00    -0.271 OA
BRANCH  25  26
ATOM     26  C   UNL d   1      46.306 -18.478  43.516  0.00  0.00     0.126 C 
ATOM     27  C   UNL d   1      46.611 -19.038  43.947  0.00  0.00     0.029 C 
ENDBRANCH  25  26
ENDBRANCH  23  25
ENDBRANCH  20  23
ENDBRANCH   1  17
BRANCH   1  28
ATOM     28  C   UNL d   1      44.057 -14.286  43.938  0.00  0.00     0.035 A 
ATOM     29  C   UNL d   1      43.491 -14.432  43.358  0.00  0.00     0.100 A 
ATOM     30  N   UNL d   1      42.699 -14.470  43.563  0.00  0.00    -0.242 NA
ATOM     31  C   UNL d   1      42.463 -14.355  44.397  0.00  0.00     0.099 A 
ATOM     32  C   UNL d   1      43.075 -14.209  44.954  0.00  0.00     0.021 A 
ATOM     33  C   UNL d   1      43.852 -14.175  44.735  0.00  0.00     0.005 A 
ENDBRANCH   1  28
TORSDOF 8
ENDMDL
