MODEL 1
REMARK VINA RESULT:      -4.7      0.000      0.000
REMARK  4 active torsions:
REMARK  status: ('A' for Active; 'I' for Inactive)
REMARK    1  A    between atoms: C_2  and  C_1 
REMARK    2  A    between atoms: C_3  and  C_1 
REMARK    3  A    between atoms: C_4  and  C_2 
REMARK    4  A    between atoms: C_9  and  C_3 
ROOT
ATOM      1  C   UNL d   1      57.378   0.278  32.097  0.00  0.00     0.196 C 
ATOM      2  O   UNL d   1      57.993   0.639  32.512  0.00  0.00    -0.287 OA
ENDROOT
BRANCH   1   3
ATOM      3  C   UNL d   1      57.469   0.111  31.288  0.00  0.00     0.042 C 
BRANCH   3   4
ATOM      4  C   UNL d   1      58.126   0.397  30.880  0.00  0.00     0.005 C 
BRANCH   4   5
ATOM      5  C   UNL d   1      58.237   0.189  30.092  0.00  0.00     0.019 A 
ATOM      6  C   UNL d   1      57.956   0.682  29.490  0.00  0.00     0.099 A 
ATOM      7  N   UNL d   1      58.067   0.475  28.702  0.00  0.00    -0.242 NA
ATOM      8  C   UNL d   1      58.461  -0.229  28.509  0.00  0.00     0.099 A 
ATOM      9  C   UNL d   1      58.742  -0.721  29.106  0.00  0.00     0.021 A 
ATOM     10  C   UNL d   1      58.631  -0.514  29.899  0.00  0.00     0.003 A 
ENDBRANCH   4   5
ENDBRANCH   3   4
ENDBRANCH   1   3
BRANCH   1  11
ATOM     11  C   UNL d   1      56.678   0.085  32.483  0.00  0.00     0.039 A 
ATOM     12  C   UNL d   1      56.224   0.682  32.817  0.00  0.00     0.006 A 
ATOM     13  C   UNL d   1      55.521   0.491  33.205  0.00  0.00     0.042 A 
ATOM     14  C   UNL d   1      55.275  -0.303  33.258  0.00  0.00     0.196 A 
ATOM     15  C   UNL d   1      55.737  -0.897  32.919  0.00  0.00     0.042 A 
ATOM     16  O   UNL d   1      54.570  -0.491  33.647  0.00  0.00    -0.287 OA
ATOM     17  C   UNL d   1      56.437  -0.704  32.533  0.00  0.00     0.006 A 
ENDBRANCH   1  11
TORSDOF 4
ENDMDL
MODEL 2
REMARK VINA RESULT:      -4.5      1.956      4.327
REMARK  4 active torsions:
REMARK  status: ('A' for Active; 'I' for Inactive)
REMARK    1  A    between atoms: C_2  and  C_1 
REMARK    2  A    between atoms: C_3  and  C_1 
REMARK    3  A    between atoms: C_4  and  C_2 
REMARK    4  A    between atoms: C_9  and  C_3 
ROOT
ATOM      1  C   UNL d   1      57.846   0.135  30.250  0.00  0.00     0.196 C 
ATOM      2  O   UNL d   1      57.368   0.681  29.857  0.00  0.00    -0.287 OA
ENDROOT
BRANCH   1   3
ATOM      3  C   UNL d   1      57.623  -0.142  31.001  0.00  0.00     0.042 C 
BRANCH   3   4
ATOM      4  C   UNL d   1      56.937   0.144  31.358  0.00  0.00     0.005 C 
BRANCH   4   5
ATOM      5  C   UNL d   1      56.702  -0.159  32.086  0.00  0.00     0.019 A 
ATOM      6  C   UNL d   1      56.872   0.254  32.781  0.00  0.00     0.099 A 
ATOM      7  N   UNL d   1      56.637  -0.049  33.509  0.00  0.00    -0.242 NA
ATOM      8  C   UNL d   1      56.227  -0.769  33.546  0.00  0.00     0.099 A 
ATOM      9  C   UNL d   1      56.056  -1.181  32.856  0.00  0.00     0.021 A 
ATOM     10  C   UNL d   1      56.292  -0.879  32.123  0.00  0.00     0.003 A 
ENDBRANCH   4   5
ENDBRANCH   3   4
ENDBRANCH   1   3
BRANCH   1  11
ATOM     11  C   UNL d   1      58.540  -0.133  29.899  0.00  0.00     0.039 A 
ATOM     12  C   UNL d   1      59.222   0.321  29.954  0.00  0.00     0.006 A 
ATOM     13  C   UNL d   1      59.919   0.054  29.603  0.00  0.00     0.042 A 
ATOM     14  C   UNL d   1      59.930  -0.672  29.195  0.00  0.00     0.196 A 
ATOM     15  C   UNL d   1      59.240  -1.122  29.144  0.00  0.00     0.042 A 
ATOM     16  O   UNL d   1      60.631  -0.936  28.844  0.00  0.00    -0.287 OA
ATOM     17  C   UNL d   1      58.547  -0.854  29.495  0.00  0.00     0.006 A 
ENDBRANCH   1  11
TORSDOF 4
ENDMDL
MODEL 3
REMARK VINA RESULT:      -4.4      1.910      4.320
REMARK  4 active torsions:
REMARK  status: ('A' for Active; 'I' for Inactive)
REMARK    1  A    between atoms: C_2  and  C_1 
REMARK    2  A    between atoms: C_3  and  C_1 
REMARK    3  A    between atoms: C_4  and  C_2 
REMARK    4  A    between atoms: C_9  and  C_3 
ROOT
ATOM      1  C   UNL d   1      57.273  -0.757  31.112  0.00  0.00     0.196 C 
ATOM      2  O   UNL d   1      57.045  -1.547  31.041  0.00  0.00    -0.287 OA
ENDROOT
BRANCH   1   3
ATOM      3  C   UNL d   1      57.008  -0.309  31.759  0.00  0.00     0.042 C 
BRANCH   3   4
ATOM      4  C   UNL d   1      56.645  -0.683  32.398  0.00  0.00     0.005 C 
BRANCH   4   5
ATOM      5  C   UNL d   1      56.302  -0.230  32.993  0.00  0.00     0.019 A 
ATOM      6  C   UNL d   1      56.780   0.174  33.533  0.00  0.00     0.099 A 
ATOM      7  N   UNL d   1      56.438   0.627  34.129  0.00  0.00    -0.242 NA
ATOM      8  C   UNL d   1      55.613   0.680  34.188  0.00  0.00     0.099 A 
ATOM      9  C   UNL d   1      55.135   0.279  33.651  0.00  0.00     0.021 A 
ATOM     10  C   UNL d   1      55.477  -0.177  33.052  0.00  0.00     0.003 A 
ENDBRANCH   4   5
ENDBRANCH   3   4
ENDBRANCH   1   3
BRANCH   1  11
ATOM     11  C   UNL d   1      57.760  -0.416  30.544  0.00  0.00     0.039 A 
ATOM     12  C   UNL d   1      58.409  -0.835  30.265  0.00  0.00     0.006 A 
ATOM     13  C   UNL d   1      58.900  -0.496  29.695  0.00  0.00     0.042 A 
ATOM     14  C   UNL d   1      58.736   0.268  29.404  0.00  0.00     0.196 A 
ATOM     15  C   UNL d   1      58.082   0.682  29.690  0.00  0.00     0.042 A 
ATOM     16  O   UNL d   1      59.230   0.605  28.833  0.00  0.00    -0.287 OA
ATOM     17  C   UNL d   1      57.595   0.341  30.258  0.00  0.00     0.006 A 
ENDBRANCH   1  11
TORSDOF 4
ENDMDL
MODEL 4
REMARK VINA RESULT:      -4.3      1.178      1.477
REMARK  4 active torsions:
REMARK  status: ('A' for Active; 'I' for Inactive)
REMARK    1  A    between atoms: C_2  and  C_1 
REMARK    2  A    between atoms: C_3  and  C_1 
REMARK    3  A    between atoms: C_4  and  C_2 
REMARK    4  A    between atoms: C_9  and  C_3 
ROOT
ATOM      1  C   UNL d   1      57.309   0.039  30.902  0.00  0.00     0.196 C 
ATOM      2  O   UNL d   1      57.024   0.682  30.471  0.00  0.00    -0.287 OA
ENDROOT
BRANCH   1   3
ATOM      3  C   UNL d   1      57.936  -0.415  30.600  0.00  0.00     0.042 C 
BRANCH   3   4
ATOM      4  C   UNL d   1      58.238  -0.251  29.851  0.00  0.00     0.005 C 
BRANCH   4   5
ATOM      5  C   UNL d   1      58.886  -0.675  29.572  0.00  0.00     0.019 A 
ATOM      6  C   UNL d   1      59.645  -0.349  29.615  0.00  0.00     0.099 A 
ATOM      7  N   UNL d   1      60.292  -0.773  29.337  0.00  0.00    -0.242 NA
ATOM      8  C   UNL d   1      60.185  -1.528  29.011  0.00  0.00     0.099 A 
ATOM      9  C   UNL d   1      59.431  -1.855  28.967  0.00  0.00     0.021 A 
ATOM     10  C   UNL d   1      58.779  -1.430  29.247  0.00  0.00     0.003 A 
ENDBRANCH   4   5
ENDBRANCH   3   4
ENDBRANCH   1   3
BRANCH   1  11
ATOM     11  C   UNL d   1      56.973  -0.152  31.628  0.00  0.00     0.039 A 
ATOM     12  C   UNL d   1      57.019   0.384  32.248  0.00  0.00     0.006 A 
ATOM     13  C   UNL d   1      56.683   0.195  32.978  0.00  0.00     0.042 A 
ATOM     14  C   UNL d   1      56.298  -0.536  33.083  0.00  0.00     0.196 A 
ATOM     15  C   UNL d   1      56.256  -1.069  32.455  0.00  0.00     0.042 A 
ATOM     16  O   UNL d   1      55.962  -0.722  33.815  0.00  0.00    -0.287 OA
ATOM     17  C   UNL d   1      56.592  -0.878  31.729  0.00  0.00     0.006 A 
ENDBRANCH   1  11
TORSDOF 4
ENDMDL
