MODEL 1
REMARK VINA RESULT:      -5.8      0.000      0.000
REMARK  7 active torsions:
REMARK  status: ('A' for Active; 'I' for Inactive)
REMARK    1  A    between atoms: C_3  and  C_1 
REMARK    2  A    between atoms: N_5  and  C_2 
REMARK    3  A    between atoms: N_4  and  C_3 
REMARK    4  A    between atoms: C_10  and  C_3 
REMARK    5  A    between atoms: C_13  and  N_4 
REMARK       I    between atoms: C_6  and  N_5 
REMARK    6  A    between atoms: C_8  and  C_13 
REMARK    7  A    between atoms: O_16  and  C_8 
ROOT
ATOM      1  C   UNL d   1     -48.526  13.627  22.592  0.00  0.00     0.083 C 
ENDROOT
BRANCH   1   2
ATOM      2  C   UNL d   1     -47.739  13.527  22.816  0.00  0.00     0.036 A 
ATOM      3  C   UNL d   1     -47.489  12.845  23.179  0.00  0.00     0.086 A 
ATOM      4  C   UNL d   1     -46.701  12.745  23.403  0.00  0.00     0.020 A 
ATOM      5  C   UNL d   1     -46.163  13.328  23.264  0.00  0.00     0.008 A 
ATOM      6  C   UNL d   1     -46.409  14.045  22.886  0.00  0.00     0.035 A 
ATOM      7  C   UNL d   1     -47.201  14.127  22.669  0.00  0.00     0.010 A 
ATOM      8 BR   UNL d   1     -45.860  14.661  22.735  0.00  0.00    -0.049 Br
BRANCH   3   9
ATOM      9  N   UNL d   1     -48.049  12.230  23.328  0.00  0.00    -0.208 NA
ATOM     10  C   UNL d   1     -47.783  11.476  23.544  0.00  0.00     0.279 C 
ATOM     11  O   UNL d   1     -48.318  10.889  23.686  0.00  0.00    -0.265 OA
ATOM     12  C   UNL d   1     -46.986  11.312  23.617  0.00  0.00     0.068 C 
ENDBRANCH   3   9
ENDBRANCH   1   2
BRANCH   1  13
ATOM     13  N   UNL d   1     -48.911  13.072  22.136  0.00  0.00    -0.238 NA
BRANCH  13  14
ATOM     14  C   UNL d   1     -49.318  13.337  21.462  0.00  0.00     0.167 C 
BRANCH  14  15
ATOM     15  C   UNL d   1     -49.712  12.762  20.989  0.00  0.00     0.315 C 
ATOM     16  O   UNL d   1     -49.277  12.381  20.370  0.00  0.00    -0.257 OA
BRANCH  15  17
ATOM     17  O   UNL d   1     -50.503  12.568  21.119  0.00  0.00    -0.295 OA
ATOM     18  C   UNL d   1     -51.063  12.797  20.598  0.00  0.00     0.185 C 
ENDBRANCH  15  17
ENDBRANCH  14  15
ENDBRANCH  13  14
ENDBRANCH   1  13
BRANCH   1  19
ATOM     19  C   UNL d   1     -48.934  14.298  22.832  0.00  0.00     0.018 A 
ATOM     20  C   UNL d   1     -49.485  14.263  23.445  0.00  0.00     0.002 A 
ATOM     21  C   UNL d   1     -49.900  14.918  23.697  0.00  0.00     0.000 A 
ATOM     22  C   UNL d   1     -49.748  15.664  23.304  0.00  0.00     0.000 A 
ATOM     23  C   UNL d   1     -49.197  15.706  22.690  0.00  0.00     0.000 A 
ATOM     24  C   UNL d   1     -48.791  15.028  22.454  0.00  0.00     0.002 A 
ENDBRANCH   1  19
TORSDOF 7
ENDMDL
MODEL 2
REMARK VINA RESULT:      -5.2      7.695      9.306
REMARK  7 active torsions:
REMARK  status: ('A' for Active; 'I' for Inactive)
REMARK    1  A    between atoms: C_3  and  C_1 
REMARK    2  A    between atoms: N_5  and  C_2 
REMARK    3  A    between atoms: N_4  and  C_3 
REMARK    4  A    between atoms: C_10  and  C_3 
REMARK    5  A    between atoms: C_13  and  N_4 
REMARK       I    between atoms: C_6  and  N_5 
REMARK    6  A    between atoms: C_8  and  C_13 
REMARK    7  A    between atoms: O_16  and  C_8 
ROOT
ATOM      1  C   UNL d   1     -39.972  14.448  20.189  0.00  0.00     0.083 C 
ENDROOT
BRANCH   1   2
ATOM      2  C   UNL d   1     -39.602  14.188  19.498  0.00  0.00     0.036 A 
ATOM      3  C   UNL d   1     -39.812  14.487  18.772  0.00  0.00     0.086 A 
ATOM      4  C   UNL d   1     -39.443  14.227  18.081  0.00  0.00     0.020 A 
ATOM      5  C   UNL d   1     -38.864  13.668  18.117  0.00  0.00     0.008 A 
ATOM      6  C   UNL d   1     -38.635  13.348  18.867  0.00  0.00     0.035 A 
ATOM      7  C   UNL d   1     -39.015  13.620  19.547  0.00  0.00     0.010 A 
ATOM      8 BR   UNL d   1     -38.033  12.765  18.920  0.00  0.00    -0.049 Br
BRANCH   3   9
ATOM      9  N   UNL d   1     -40.419  15.073  18.729  0.00  0.00    -0.208 NA
ATOM     10  C   UNL d   1     -40.658  15.362  17.990  0.00  0.00     0.279 C 
ATOM     11  O   UNL d   1     -41.237  15.922  17.949  0.00  0.00    -0.265 OA
ATOM     12  C   UNL d   1     -40.318  15.092  17.298  0.00  0.00     0.068 C 
ENDBRANCH   3   9
ENDBRANCH   1   2
BRANCH   1  13
ATOM     13  N   UNL d   1     -40.779  14.390  20.286  0.00  0.00    -0.238 NA
BRANCH  13  14
ATOM     14  C   UNL d   1     -41.064  13.892  20.886  0.00  0.00     0.167 C 
BRANCH  14  15
ATOM     15  C   UNL d   1     -41.897  13.795  20.954  0.00  0.00     0.315 C 
ATOM     16  O   UNL d   1     -42.376  14.484  21.071  0.00  0.00    -0.257 OA
BRANCH  15  17
ATOM     17  O   UNL d   1     -42.249  13.051  20.908  0.00  0.00    -0.295 OA
ATOM     18  C   UNL d   1     -42.845  12.857  21.404  0.00  0.00     0.185 C 
ENDBRANCH  15  17
ENDBRANCH  14  15
ENDBRANCH  13  14
ENDBRANCH   1  13
BRANCH   1  19
ATOM     19  C   UNL d   1     -39.520  14.772  20.792  0.00  0.00     0.018 A 
ATOM     20  C   UNL d   1     -39.362  15.582  20.815  0.00  0.00     0.002 A 
ATOM     21  C   UNL d   1     -38.915  15.922  21.407  0.00  0.00     0.000 A 
ATOM     22  C   UNL d   1     -38.605  15.410  22.019  0.00  0.00     0.000 A 
ATOM     23  C   UNL d   1     -38.759  14.600  22.002  0.00  0.00     0.000 A 
ATOM     24  C   UNL d   1     -39.214  14.280  21.392  0.00  0.00     0.002 A 
ENDBRANCH   1  19
TORSDOF 7
ENDMDL
MODEL 3
REMARK VINA RESULT:      -4.7      1.812      3.194
REMARK  7 active torsions:
REMARK  status: ('A' for Active; 'I' for Inactive)
REMARK    1  A    between atoms: C_3  and  C_1 
REMARK    2  A    between atoms: N_5  and  C_2 
REMARK    3  A    between atoms: N_4  and  C_3 
REMARK    4  A    between atoms: C_10  and  C_3 
REMARK    5  A    between atoms: C_13  and  N_4 
REMARK       I    between atoms: C_6  and  N_5 
REMARK    6  A    between atoms: C_8  and  C_13 
REMARK    7  A    between atoms: O_16  and  C_8 
ROOT
ATOM      1  C   UNL d   1     -48.658  13.650  22.807  0.00  0.00     0.083 C 
ENDROOT
BRANCH   1   2
ATOM      2  C   UNL d   1     -49.154  13.006  22.670  0.00  0.00     0.036 A 
ATOM      3  C   UNL d   1     -49.097  12.569  21.987  0.00  0.00     0.086 A 
ATOM      4  C   UNL d   1     -49.593  11.925  21.849  0.00  0.00     0.020 A 
ATOM      5  C   UNL d   1     -50.147  11.716  22.395  0.00  0.00     0.008 A 
ATOM      6  C   UNL d   1     -50.218  12.161  23.112  0.00  0.00     0.035 A 
ATOM      7  C   UNL d   1     -49.714  12.803  23.233  0.00  0.00     0.010 A 
ATOM      8 BR   UNL d   1     -50.791  11.956  23.690  0.00  0.00    -0.049 Br
BRANCH   3   9
ATOM      9  N   UNL d   1     -48.517  12.784  21.410  0.00  0.00    -0.208 NA
ATOM     10  C   UNL d   1     -48.387  12.292  20.756  0.00  0.00     0.279 C 
ATOM     11  O   UNL d   1     -47.834  12.497  20.207  0.00  0.00    -0.265 OA
ATOM     12  C   UNL d   1     -48.809  11.600  20.656  0.00  0.00     0.068 C 
ENDBRANCH   3   9
ENDBRANCH   1   2
BRANCH   1  13
ATOM     13  N   UNL d   1     -47.848  13.565  22.829  0.00  0.00    -0.238 NA
BRANCH  13  14
ATOM     14  C   UNL d   1     -47.497  13.357  23.553  0.00  0.00     0.167 C 
BRANCH  14  15
ATOM     15  C   UNL d   1     -46.658  13.312  23.584  0.00  0.00     0.315 C 
ATOM     16  O   UNL d   1     -46.214  14.033  23.607  0.00  0.00    -0.257 OA
BRANCH  15  17
ATOM     17  O   UNL d   1     -46.266  12.585  23.593  0.00  0.00    -0.295 OA
ATOM     18  C   UNL d   1     -45.648  12.457  23.104  0.00  0.00     0.185 C 
ENDBRANCH  15  17
ENDBRANCH  14  15
ENDBRANCH  13  14
ENDBRANCH   1  13
BRANCH   1  19
ATOM     19  C   UNL d   1     -48.984  14.394  22.925  0.00  0.00     0.018 A 
ATOM     20  C   UNL d   1     -49.485  14.541  23.564  0.00  0.00     0.002 A 
ATOM     21  C   UNL d   1     -49.818  15.273  23.698  0.00  0.00     0.000 A 
ATOM     22  C   UNL d   1     -49.634  15.903  23.148  0.00  0.00     0.000 A 
ATOM     23  C   UNL d   1     -49.133  15.763  22.507  0.00  0.00     0.000 A 
ATOM     24  C   UNL d   1     -48.809  15.013  22.394  0.00  0.00     0.002 A 
ENDBRANCH   1  19
TORSDOF 7
ENDMDL
MODEL 4
REMARK VINA RESULT:      -4.7      8.367      9.828
REMARK  7 active torsions:
REMARK  status: ('A' for Active; 'I' for Inactive)
REMARK    1  A    between atoms: C_3  and  C_1 
REMARK    2  A    between atoms: N_5  and  C_2 
REMARK    3  A    between atoms: N_4  and  C_3 
REMARK    4  A    between atoms: C_10  and  C_3 
REMARK    5  A    between atoms: C_13  and  N_4 
REMARK       I    between atoms: C_6  and  N_5 
REMARK    6  A    between atoms: C_8  and  C_13 
REMARK    7  A    between atoms: O_16  and  C_8 
ROOT
ATOM      1  C   UNL d   1     -39.745  14.333  19.235  0.00  0.00     0.083 C 
ENDROOT
BRANCH   1   2
ATOM      2  C   UNL d   1     -39.733  14.449  18.419  0.00  0.00     0.036 A 
ATOM      3  C   UNL d   1     -39.366  13.918  17.925  0.00  0.00     0.086 A 
ATOM      4  C   UNL d   1     -39.353  14.034  17.108  0.00  0.00     0.020 A 
ATOM      5  C   UNL d   1     -39.707  14.681  16.785  0.00  0.00     0.008 A 
ATOM      6  C   UNL d   1     -40.094  15.243  17.288  0.00  0.00     0.035 A 
ATOM      7  C   UNL d   1     -40.097  15.111  18.102  0.00  0.00     0.010 A 
ATOM      8 BR   UNL d   1     -40.468  15.922  16.965  0.00  0.00    -0.049 Br
BRANCH   3   9
ATOM      9  N   UNL d   1     -38.992  13.237  18.258  0.00  0.00    -0.208 NA
ATOM     10  C   UNL d   1     -38.594  12.704  17.764  0.00  0.00     0.279 C 
ATOM     11  O   UNL d   1     -38.238  12.055  18.083  0.00  0.00    -0.265 OA
ATOM     12  C   UNL d   1     -38.555  12.822  16.957  0.00  0.00     0.068 C 
ENDBRANCH   3   9
ENDBRANCH   1   2
BRANCH   1  13
ATOM     13  N   UNL d   1     -40.318  13.874  19.590  0.00  0.00    -0.238 NA
BRANCH  13  14
ATOM     14  C   UNL d   1     -40.909  14.260  20.028  0.00  0.00     0.167 C 
BRANCH  14  15
ATOM     15  C   UNL d   1     -41.526  13.790  20.355  0.00  0.00     0.315 C 
ATOM     16  O   UNL d   1     -41.870  13.184  19.874  0.00  0.00    -0.257 OA
BRANCH  15  17
ATOM     17  O   UNL d   1     -41.796  13.909  21.125  0.00  0.00    -0.295 OA
ATOM     18  C   UNL d   1     -42.490  13.590  21.360  0.00  0.00     0.185 C 
ENDBRANCH  15  17
ENDBRANCH  14  15
ENDBRANCH  13  14
ENDBRANCH   1  13
BRANCH   1  19
ATOM     19  C   UNL d   1     -39.170  14.685  19.703  0.00  0.00     0.018 A 
ATOM     20  C   UNL d   1     -38.665  14.228  20.170  0.00  0.00     0.002 A 
ATOM     21  C   UNL d   1     -38.088  14.559  20.641  0.00  0.00     0.000 A 
ATOM     22  C   UNL d   1     -38.014  15.412  20.643  0.00  0.00     0.000 A 
ATOM     23  C   UNL d   1     -38.515  15.875  20.179  0.00  0.00     0.000 A 
ATOM     24  C   UNL d   1     -39.091  15.515  19.710  0.00  0.00     0.002 A 
ENDBRANCH   1  19
TORSDOF 7
ENDMDL
MODEL 5
REMARK VINA RESULT:      -3.8      7.282      8.691
REMARK  7 active torsions:
REMARK  status: ('A' for Active; 'I' for Inactive)
REMARK    1  A    between atoms: C_3  and  C_1 
REMARK    2  A    between atoms: N_5  and  C_2 
REMARK    3  A    between atoms: N_4  and  C_3 
REMARK    4  A    between atoms: C_10  and  C_3 
REMARK    5  A    between atoms: C_13  and  N_4 
REMARK       I    between atoms: C_6  and  N_5 
REMARK    6  A    between atoms: C_8  and  C_13 
REMARK    7  A    between atoms: O_16  and  C_8 
ROOT
ATOM      1  C   UNL d   1     -40.544  14.275  20.099  0.00  0.00     0.083 C 
ENDROOT
BRANCH   1   2
ATOM      2  C   UNL d   1     -39.963  14.488  20.646  0.00  0.00     0.036 A 
ATOM      3  C   UNL d   1     -39.240  14.116  20.656  0.00  0.00     0.086 A 
ATOM      4  C   UNL d   1     -38.659  14.329  21.202  0.00  0.00     0.020 A 
ATOM      5  C   UNL d   1     -38.802  14.914  21.738  0.00  0.00     0.008 A 
ATOM      6  C   UNL d   1     -39.550  15.310  21.739  0.00  0.00     0.035 A 
ATOM      7  C   UNL d   1     -40.119  15.084  21.185  0.00  0.00     0.010 A 
ATOM      8 BR   UNL d   1     -39.712  15.921  22.291  0.00  0.00    -0.049 Br
BRANCH   3   9
ATOM      9  N   UNL d   1     -39.086  13.503  20.097  0.00  0.00    -0.208 NA
ATOM     10  C   UNL d   1     -38.440  12.996  20.211  0.00  0.00     0.279 C 
ATOM     11  O   UNL d   1     -38.293  12.410  19.677  0.00  0.00    -0.265 OA
ATOM     12  C   UNL d   1     -37.947  13.077  20.857  0.00  0.00     0.068 C 
ENDBRANCH   3   9
ENDBRANCH   1   2
BRANCH   1  13
ATOM     13  N   UNL d   1     -41.055  13.657  20.243  0.00  0.00    -0.238 NA
BRANCH  13  14
ATOM     14  C   UNL d   1     -41.774  13.826  20.622  0.00  0.00     0.167 C 
BRANCH  14  15
ATOM     15  C   UNL d   1     -42.294  13.184  20.784  0.00  0.00     0.315 C 
ATOM     16  O   UNL d   1     -42.529  12.684  20.143  0.00  0.00    -0.257 OA
BRANCH  15  17
ATOM     17  O   UNL d   1     -42.573  13.039  21.546  0.00  0.00    -0.295 OA
ATOM     18  C   UNL d   1     -43.322  12.784  21.657  0.00  0.00     0.185 C 
ENDBRANCH  15  17
ENDBRANCH  14  15
ENDBRANCH  13  14
ENDBRANCH   1  13
BRANCH   1  19
ATOM     19  C   UNL d   1     -40.611  14.693  19.396  0.00  0.00     0.018 A 
ATOM     20  C   UNL d   1     -40.826  15.489  19.395  0.00  0.00     0.002 A 
ATOM     21  C   UNL d   1     -40.898  15.921  18.707  0.00  0.00     0.000 A 
ATOM     22  C   UNL d   1     -40.741  15.522  17.966  0.00  0.00     0.000 A 
ATOM     23  C   UNL d   1     -40.525  14.725  17.960  0.00  0.00     0.000 A 
ATOM     24  C   UNL d   1     -40.460  14.311  18.670  0.00  0.00     0.002 A 
ENDBRANCH   1  19
TORSDOF 7
ENDMDL
MODEL 6
REMARK VINA RESULT:      -3.5      7.715      9.103
REMARK  7 active torsions:
REMARK  status: ('A' for Active; 'I' for Inactive)
REMARK    1  A    between atoms: C_3  and  C_1 
REMARK    2  A    between atoms: N_5  and  C_2 
REMARK    3  A    between atoms: N_4  and  C_3 
REMARK    4  A    between atoms: C_10  and  C_3 
REMARK    5  A    between atoms: C_13  and  N_4 
REMARK       I    between atoms: C_6  and  N_5 
REMARK    6  A    between atoms: C_8  and  C_13 
REMARK    7  A    between atoms: O_16  and  C_8 
ROOT
ATOM      1  C   UNL d   1     -40.249  14.480  19.683  0.00  0.00     0.083 C 
ENDROOT
BRANCH   1   2
ATOM      2  C   UNL d   1     -39.482  14.239  19.865  0.00  0.00     0.036 A 
ATOM      3  C   UNL d   1     -39.078  14.564  20.491  0.00  0.00     0.086 A 
ATOM      4  C   UNL d   1     -38.310  14.323  20.674  0.00  0.00     0.020 A 
ATOM      5  C   UNL d   1     -37.946  13.758  20.230  0.00  0.00     0.008 A 
ATOM      6  C   UNL d   1     -38.355  13.411  19.574  0.00  0.00     0.035 A 
ATOM      7  C   UNL d   1     -39.122  13.664  19.407  0.00  0.00     0.010 A 
ATOM      8 BR   UNL d   1     -37.988  12.821  19.103  0.00  0.00    -0.049 Br
BRANCH   3   9
ATOM      9  N   UNL d   1     -39.454  15.157  20.960  0.00  0.00    -0.208 NA
ATOM     10  C   UNL d   1     -39.143  15.354  21.702  0.00  0.00     0.279 C 
ATOM     11  O   UNL d   1     -39.502  15.920  22.149  0.00  0.00    -0.265 OA
ATOM     12  C   UNL d   1     -38.474  14.984  21.992  0.00  0.00     0.068 C 
ENDBRANCH   3   9
ENDBRANCH   1   2
BRANCH   1  13
ATOM     13  N   UNL d   1     -40.861  14.385  20.213  0.00  0.00    -0.238 NA
BRANCH  13  14
ATOM     14  C   UNL d   1     -41.471  13.859  20.013  0.00  0.00     0.167 C 
BRANCH  14  15
ATOM     15  C   UNL d   1     -41.986  13.602  20.628  0.00  0.00     0.315 C 
ATOM     16  O   UNL d   1     -41.920  13.967  21.389  0.00  0.00    -0.257 OA
BRANCH  15  17
ATOM     17  O   UNL d   1     -42.544  13.008  20.502  0.00  0.00    -0.295 OA
ATOM     18  C   UNL d   1     -43.128  12.887  21.033  0.00  0.00     0.185 C 
ENDBRANCH  15  17
ENDBRANCH  14  15
ENDBRANCH  13  14
ENDBRANCH   1  13
BRANCH   1  19
ATOM     19  C   UNL d   1     -40.404  14.822  18.953  0.00  0.00     0.018 A 
ATOM     20  C   UNL d   1     -40.870  14.434  18.393  0.00  0.00     0.002 A 
ATOM     21  C   UNL d   1     -41.034  14.758  17.663  0.00  0.00     0.000 A 
ATOM     22  C   UNL d   1     -40.706  15.528  17.483  0.00  0.00     0.000 A 
ATOM     23  C   UNL d   1     -40.239  15.921  18.038  0.00  0.00     0.000 A 
ATOM     24  C   UNL d   1     -40.088  15.572  18.770  0.00  0.00     0.002 A 
ENDBRANCH   1  19
TORSDOF 7
ENDMDL
MODEL 7
REMARK VINA RESULT:      -3.2      9.600     10.950
REMARK  7 active torsions:
REMARK  status: ('A' for Active; 'I' for Inactive)
REMARK    1  A    between atoms: C_3  and  C_1 
REMARK    2  A    between atoms: N_5  and  C_2 
REMARK    3  A    between atoms: N_4  and  C_3 
REMARK    4  A    between atoms: C_10  and  C_3 
REMARK    5  A    between atoms: C_13  and  N_4 
REMARK       I    between atoms: C_6  and  N_5 
REMARK    6  A    between atoms: C_8  and  C_13 
REMARK    7  A    between atoms: O_16  and  C_8 
ROOT
ATOM      1  C   UNL d   1     -39.196  14.368  18.022  0.00  0.00     0.083 C 
ENDROOT
BRANCH   1   2
ATOM      2  C   UNL d   1     -39.797  14.799  17.657  0.00  0.00     0.036 A 
ATOM      3  C   UNL d   1     -39.639  15.292  17.031  0.00  0.00     0.086 A 
ATOM      4  C   UNL d   1     -40.240  15.724  16.666  0.00  0.00     0.020 A 
ATOM      5  C   UNL d   1     -40.999  15.662  16.927  0.00  0.00     0.008 A 
ATOM      6  C   UNL d   1     -41.179  15.152  17.579  0.00  0.00     0.035 A 
ATOM      7  C   UNL d   1     -40.565  14.728  17.932  0.00  0.00     0.010 A 
ATOM      8 BR   UNL d   1     -41.965  15.077  17.862  0.00  0.00    -0.049 Br
BRANCH   3   9
ATOM      9  N   UNL d   1     -38.844  15.361  16.753  0.00  0.00    -0.208 NA
ATOM     10  C   UNL d   1     -38.698  15.675  16.000  0.00  0.00     0.279 C 
ATOM     11  O   UNL d   1     -37.940  15.741  15.735  0.00  0.00    -0.265 OA
ATOM     12  C   UNL d   1     -39.310  15.922  15.518  0.00  0.00     0.068 C 
ENDBRANCH   3   9
ENDBRANCH   1   2
BRANCH   1  13
ATOM     13  N   UNL d   1     -38.797  13.777  17.627  0.00  0.00    -0.238 NA
BRANCH  13  14
ATOM     14  C   UNL d   1     -38.890  12.997  17.897  0.00  0.00     0.167 C 
BRANCH  14  15
ATOM     15  C   UNL d   1     -38.483  12.387  17.484  0.00  0.00     0.315 C 
ATOM     16  O   UNL d   1     -37.940  12.606  16.872  0.00  0.00    -0.257 OA
BRANCH  15  17
ATOM     17  O   UNL d   1     -38.603  11.591  17.665  0.00  0.00    -0.295 OA
ATOM     18  C   UNL d   1     -38.113  11.217  18.174  0.00  0.00     0.185 C 
ENDBRANCH  15  17
ENDBRANCH  14  15
ENDBRANCH  13  14
ENDBRANCH   1  13
BRANCH   1  19
ATOM     19  C   UNL d   1     -38.992  14.535  18.800  0.00  0.00     0.018 A 
ATOM     20  C   UNL d   1     -38.290  14.930  18.978  0.00  0.00     0.002 A 
ATOM     21  C   UNL d   1     -38.070  15.105  19.744  0.00  0.00     0.000 A 
ATOM     22  C   UNL d   1     -38.596  14.865  20.376  0.00  0.00     0.000 A 
ATOM     23  C   UNL d   1     -39.300  14.470  20.204  0.00  0.00     0.000 A 
ATOM     24  C   UNL d   1     -39.499  14.305  19.421  0.00  0.00     0.002 A 
ENDBRANCH   1  19
TORSDOF 7
ENDMDL
MODEL 8
REMARK VINA RESULT:      -2.9      2.030      2.892
REMARK  7 active torsions:
REMARK  status: ('A' for Active; 'I' for Inactive)
REMARK    1  A    between atoms: C_3  and  C_1 
REMARK    2  A    between atoms: N_5  and  C_2 
REMARK    3  A    between atoms: N_4  and  C_3 
REMARK    4  A    between atoms: C_10  and  C_3 
REMARK    5  A    between atoms: C_13  and  N_4 
REMARK       I    between atoms: C_6  and  N_5 
REMARK    6  A    between atoms: C_8  and  C_13 
REMARK    7  A    between atoms: O_16  and  C_8 
ROOT
ATOM      1  C   UNL d   1     -48.928  13.284  22.364  0.00  0.00     0.083 C 
ENDROOT
BRANCH   1   2
ATOM      2  C   UNL d   1     -48.276  13.092  21.897  0.00  0.00     0.036 A 
ATOM      3  C   UNL d   1     -47.528  13.342  22.097  0.00  0.00     0.086 A 
ATOM      4  C   UNL d   1     -46.876  13.150  21.630  0.00  0.00     0.020 A 
ATOM      5  C   UNL d   1     -46.970  12.708  20.964  0.00  0.00     0.008 A 
ATOM      6  C   UNL d   1     -47.742  12.441  20.743  0.00  0.00     0.035 A 
ATOM      7  C   UNL d   1     -48.384  12.642  21.221  0.00  0.00     0.010 A 
ATOM      8 BR   UNL d   1     -47.856  11.980  20.050  0.00  0.00    -0.049 Br
BRANCH   3   9
ATOM      9  N   UNL d   1     -47.424  13.806  22.795  0.00  0.00    -0.208 NA
ATOM     10  C   UNL d   1     -46.664  14.055  23.013  0.00  0.00     0.279 C 
ATOM     11  O   UNL d   1     -46.565  14.498  23.679  0.00  0.00    -0.265 OA
ATOM     12  C   UNL d   1     -46.010  13.862  22.563  0.00  0.00     0.068 C 
ENDBRANCH   3   9
ENDBRANCH   1   2
BRANCH   1  13
ATOM     13  N   UNL d   1     -49.120  14.059  22.527  0.00  0.00    -0.238 NA
BRANCH  13  14
ATOM     14  C   UNL d   1     -49.855  14.342  22.264  0.00  0.00     0.167 C 
BRANCH  14  15
ATOM     15  C   UNL d   1     -50.069  15.130  22.469  0.00  0.00     0.315 C 
ATOM     16  O   UNL d   1     -49.859  15.756  21.939  0.00  0.00    -0.257 OA
BRANCH  15  17
ATOM     17  O   UNL d   1     -50.473  15.298  23.168  0.00  0.00    -0.295 OA
ATOM     18  C   UNL d   1     -50.246  15.913  23.625  0.00  0.00     0.185 C 
ENDBRANCH  15  17
ENDBRANCH  14  15
ENDBRANCH  13  14
ENDBRANCH   1  13
BRANCH   1  19
ATOM     19  C   UNL d   1     -49.397  12.684  22.671  0.00  0.00     0.018 A 
ATOM     20  C   UNL d   1     -50.100  12.464  22.300  0.00  0.00     0.002 A 
ATOM     21  C   UNL d   1     -50.579  11.871  22.590  0.00  0.00     0.000 A 
ATOM     22  C   UNL d   1     -50.331  11.470  23.306  0.00  0.00     0.000 A 
ATOM     23  C   UNL d   1     -49.628  11.685  23.681  0.00  0.00     0.000 A 
ATOM     24  C   UNL d   1     -49.162  12.289  23.367  0.00  0.00     0.002 A 
ENDBRANCH   1  19
TORSDOF 7
ENDMDL
MODEL 9
REMARK VINA RESULT:      -2.9      1.685      3.291
REMARK  7 active torsions:
REMARK  status: ('A' for Active; 'I' for Inactive)
REMARK    1  A    between atoms: C_3  and  C_1 
REMARK    2  A    between atoms: N_5  and  C_2 
REMARK    3  A    between atoms: N_4  and  C_3 
REMARK    4  A    between atoms: C_10  and  C_3 
REMARK    5  A    between atoms: C_13  and  N_4 
REMARK       I    between atoms: C_6  and  N_5 
REMARK    6  A    between atoms: C_8  and  C_13 
REMARK    7  A    between atoms: O_16  and  C_8 
ROOT
ATOM      1  C   UNL d   1     -49.018  13.312  22.436  0.00  0.00     0.083 C 
ENDROOT
BRANCH   1   2
ATOM      2  C   UNL d   1     -49.072  14.084  22.721  0.00  0.00     0.036 A 
ATOM      3  C   UNL d   1     -48.442  14.596  22.670  0.00  0.00     0.086 A 
ATOM      4  C   UNL d   1     -48.496  15.368  22.954  0.00  0.00     0.020 A 
ATOM      5  C   UNL d   1     -49.180  15.629  23.290  0.00  0.00     0.008 A 
ATOM      6  C   UNL d   1     -49.845  15.107  23.350  0.00  0.00     0.035 A 
ATOM      7  C   UNL d   1     -49.772  14.338  23.060  0.00  0.00     0.010 A 
ATOM      8 BR   UNL d   1     -50.564  15.366  23.698  0.00  0.00    -0.049 Br
BRANCH   3   9
ATOM      9  N   UNL d   1     -47.722  14.327  22.318  0.00  0.00    -0.208 NA
ATOM     10  C   UNL d   1     -47.071  14.837  22.277  0.00  0.00     0.279 C 
ATOM     11  O   UNL d   1     -46.384  14.580  21.942  0.00  0.00    -0.265 OA
ATOM     12  C   UNL d   1     -47.109  15.598  22.570  0.00  0.00     0.068 C 
ENDBRANCH   3   9
ENDBRANCH   1   2
BRANCH   1  13
ATOM     13  N   UNL d   1     -48.383  12.835  22.622  0.00  0.00    -0.238 NA
BRANCH  13  14
ATOM     14  C   UNL d   1     -48.522  12.170  23.098  0.00  0.00     0.167 C 
BRANCH  14  15
ATOM     15  C   UNL d   1     -47.881  11.640  23.231  0.00  0.00     0.315 C 
ATOM     16  O   UNL d   1     -47.093  11.915  23.087  0.00  0.00    -0.257 OA
BRANCH  15  17
ATOM     17  O   UNL d   1     -48.008  10.869  23.496  0.00  0.00    -0.295 OA
ATOM     18  C   UNL d   1     -47.388  10.408  23.698  0.00  0.00     0.185 C 
ENDBRANCH  15  17
ENDBRANCH  14  15
ENDBRANCH  13  14
ENDBRANCH   1  13
BRANCH   1  19
ATOM     19  C   UNL d   1     -49.613  13.014  21.957  0.00  0.00     0.018 A 
ATOM     20  C   UNL d   1     -50.236  12.576  22.277  0.00  0.00     0.002 A 
ATOM     21  C   UNL d   1     -50.837  12.272  21.817  0.00  0.00     0.000 A 
ATOM     22  C   UNL d   1     -50.809  12.420  20.973  0.00  0.00     0.000 A 
ATOM     23  C   UNL d   1     -50.189  12.857  20.647  0.00  0.00     0.000 A 
ATOM     24  C   UNL d   1     -49.594  13.153  21.135  0.00  0.00     0.002 A 
ENDBRANCH   1  19
TORSDOF 7
ENDMDL
