MODEL 1
REMARK VINA RESULT:       3.1      0.000      0.000
REMARK  9 active torsions:
REMARK  status: ('A' for Active; 'I' for Inactive)
REMARK    1  A    between atoms: C_5  and  C_1 
REMARK    2  A    between atoms: N_6  and  C_2 
REMARK    3  A    between atoms: C_7  and  C_5 
REMARK    4  A    between atoms: C_8  and  C_5 
REMARK    5  A    between atoms: O_13  and  C_7 
REMARK    6  A    between atoms: C_17  and  N_12 
REMARK    7  A    between atoms: C_20  and  O_13 
REMARK    8  A    between atoms: C_21  and  C_17 
REMARK    9  A    between atoms: C_24  and  C_20 
ROOT
ATOM      1  C   UNL d   1      57.261  -0.371  31.456  0.00  0.00     0.117 A 
ATOM      2  C   UNL d   1      57.190  -1.172  31.292  0.00  0.00     0.145 A 
ATOM      3  N   UNL d   1      56.781  -1.672  31.811  0.00  0.00    -0.230 NA
ATOM      4  N   UNL d   1      56.922  -0.061  32.145  0.00  0.00    -0.241 NA
ATOM      5  C   UNL d   1      56.441  -1.362  32.500  0.00  0.00     0.100 A 
ATOM      6  C   UNL d   1      56.516  -0.549  32.663  0.00  0.00     0.099 A 
ATOM      7  C   UNL d   1      56.032  -1.857  33.023  0.00  0.00     0.021 A 
ATOM      8  C   UNL d   1      56.180  -0.244  33.345  0.00  0.00     0.021 A 
ATOM      9  C   UNL d   1      55.699  -1.541  33.702  0.00  0.00     0.002 A 
ATOM     10  C   UNL d   1      55.769  -0.732  33.871  0.00  0.00     0.002 A 
ENDROOT
BRANCH   2  11
ATOM     11  N   UNL d   1      57.578  -1.324  30.576  0.00  0.00    -0.189 NA
ATOM     12  C   UNL d   1      57.931  -1.586  30.073  0.00  0.00     0.076 A 
ATOM     13  C   UNL d   1      58.155  -1.229  29.126  0.00  0.00     0.093 A 
ATOM     14  N   UNL d   1      58.628  -1.946  28.892  0.00  0.00    -0.301 N 
ATOM     15  C   UNL d   1      58.268  -1.652  29.373  0.00  0.00     0.093 A 
ATOM     16  C   UNL d   1      58.011  -2.003  30.390  0.00  0.00     0.076 A 
BRANCH  14  17
ATOM     17  C   UNL d   1      59.092  -2.490  28.472  0.00  0.00     0.080 C 
BRANCH  17  18
ATOM     18  C   UNL d   1      59.728  -2.860  28.846  0.00  0.00     0.018 A 
ATOM     19  C   UNL d   1      60.495  -2.612  28.688  0.00  0.00     0.002 A 
ATOM     20  C   UNL d   1      61.127  -2.984  29.065  0.00  0.00     0.000 A 
ATOM     21  C   UNL d   1      60.990  -3.601  29.597  0.00  0.00     0.000 A 
ATOM     22  C   UNL d   1      60.217  -3.844  29.750  0.00  0.00     0.000 A 
ATOM     23  C   UNL d   1      59.585  -3.472  29.374  0.00  0.00     0.002 A 
ENDBRANCH  17  18
ENDBRANCH  14  17
ENDBRANCH   2  11
BRANCH   1  24
ATOM     24  C   UNL d   1      57.693  -0.020  30.844  0.00  0.00     0.104 C 
BRANCH  24  25
ATOM     25  C   UNL d   1      58.497   0.203  30.879  0.00  0.00     0.303 C 
ATOM     26  O   UNL d   1      58.922   0.321  30.181  0.00  0.00    -0.259 OA
BRANCH  25  27
ATOM     27  O   UNL d   1      58.863   0.305  31.614  0.00  0.00    -0.271 OA
BRANCH  27  28
ATOM     28  C   UNL d   1      59.597   0.679  31.665  0.00  0.00     0.126 C 
BRANCH  28  29
ATOM     29  C   UNL d   1      60.129   0.471  32.258  0.00  0.00     0.025 C 
ATOM     30  C   UNL d   1      60.824   0.077  32.067  0.00  0.00     0.002 C 
ATOM     31  C   UNL d   1      59.963   0.659  33.046  0.00  0.00     0.002 C 
ENDBRANCH  28  29
ENDBRANCH  27  28
ENDBRANCH  25  27
ENDBRANCH  24  25
BRANCH  24  32
ATOM     32  C   UNL d   1      57.196   0.070  30.195  0.00  0.00     0.129 C 
ATOM     33  N   UNL d   1      56.616   0.658  30.094  0.00  0.00    -0.146 N 
ENDBRANCH  24  32
ENDBRANCH   1  24
TORSDOF 9
ENDMDL
MODEL 2
REMARK VINA RESULT:       5.1      1.665      5.245
REMARK  9 active torsions:
REMARK  status: ('A' for Active; 'I' for Inactive)
REMARK    1  A    between atoms: C_5  and  C_1 
REMARK    2  A    between atoms: N_6  and  C_2 
REMARK    3  A    between atoms: C_7  and  C_5 
REMARK    4  A    between atoms: C_8  and  C_5 
REMARK    5  A    between atoms: O_13  and  C_7 
REMARK    6  A    between atoms: C_17  and  N_12 
REMARK    7  A    between atoms: C_20  and  O_13 
REMARK    8  A    between atoms: C_21  and  C_17 
REMARK    9  A    between atoms: C_24  and  C_20 
ROOT
ATOM      1  C   UNL d   1      58.471  -0.316  30.077  0.00  0.00     0.117 A 
ATOM      2  C   UNL d   1      58.787   0.212  30.620  0.00  0.00     0.145 A 
ATOM      3  N   UNL d   1      59.535   0.547  30.492  0.00  0.00    -0.230 NA
ATOM      4  N   UNL d   1      58.902  -0.516  29.398  0.00  0.00    -0.241 NA
ATOM      5  C   UNL d   1      59.966   0.347  29.814  0.00  0.00     0.100 A 
ATOM      6  C   UNL d   1      59.641  -0.189  29.266  0.00  0.00     0.099 A 
ATOM      7  C   UNL d   1      60.713   0.679  29.682  0.00  0.00     0.021 A 
ATOM      8  C   UNL d   1      60.069  -0.385  28.595  0.00  0.00     0.021 A 
ATOM      9  C   UNL d   1      61.132   0.476  29.007  0.00  0.00     0.002 A 
ATOM     10  C   UNL d   1      60.816  -0.058  28.457  0.00  0.00     0.002 A 
ENDROOT
BRANCH   2  11
ATOM     11  N   UNL d   1      58.242   0.307  31.235  0.00  0.00    -0.189 NA
ATOM     12  C   UNL d   1      57.937   0.394  31.823  0.00  0.00     0.076 A 
ATOM     13  C   UNL d   1      56.934   0.445  32.080  0.00  0.00     0.093 A 
ATOM     14  N   UNL d   1      57.091   0.564  32.949  0.00  0.00    -0.301 N 
ATOM     15  C   UNL d   1      57.361   0.475  32.343  0.00  0.00     0.093 A 
ATOM     16  C   UNL d   1      58.421   0.416  32.035  0.00  0.00     0.076 A 
BRANCH  14  17
ATOM     17  C   UNL d   1      57.000   0.680  33.765  0.00  0.00     0.080 C 
BRANCH  17  18
ATOM     18  C   UNL d   1      56.248   0.646  34.101  0.00  0.00     0.018 A 
ATOM     19  C   UNL d   1      56.163   0.681  34.918  0.00  0.00     0.002 A 
ATOM     20  C   UNL d   1      55.409   0.647  35.249  0.00  0.00     0.000 A 
ATOM     21  C   UNL d   1      54.744   0.578  34.764  0.00  0.00     0.000 A 
ATOM     22  C   UNL d   1      54.837   0.544  33.945  0.00  0.00     0.000 A 
ATOM     23  C   UNL d   1      55.590   0.578  33.614  0.00  0.00     0.002 A 
ENDBRANCH  17  18
ENDBRANCH  14  17
ENDBRANCH   2  11
BRANCH   1  24
ATOM     24  C   UNL d   1      57.728  -0.553  30.352  0.00  0.00     0.104 C 
BRANCH  24  25
ATOM     25  C   UNL d   1      57.464  -1.341  30.433  0.00  0.00     0.303 C 
ATOM     26  O   UNL d   1      56.718  -1.495  30.749  0.00  0.00    -0.259 OA
BRANCH  25  27
ATOM     27  O   UNL d   1      57.955  -1.964  30.195  0.00  0.00    -0.271 OA
BRANCH  27  28
ATOM     28  C   UNL d   1      57.859  -2.309  29.452  0.00  0.00     0.126 C 
BRANCH  28  29
ATOM     29  C   UNL d   1      58.204  -3.037  29.283  0.00  0.00     0.025 C 
ATOM     30  C   UNL d   1      58.963  -3.203  29.551  0.00  0.00     0.002 C 
ATOM     31  C   UNL d   1      57.788  -3.600  28.844  0.00  0.00     0.002 C 
ENDBRANCH  28  29
ENDBRANCH  27  28
ENDBRANCH  25  27
ENDBRANCH  24  25
BRANCH  24  32
ATOM     32  C   UNL d   1      57.292   0.121  30.532  0.00  0.00     0.129 C 
ATOM     33  N   UNL d   1      56.647   0.423  30.102  0.00  0.00    -0.146 N 
ENDBRANCH  24  32
ENDBRANCH   1  24
TORSDOF 9
ENDMDL
