MODEL 1
REMARK VINA RESULT:      -3.4      0.000      0.000
REMARK  2 active torsions:
REMARK  status: ('A' for Active; 'I' for Inactive)
REMARK    1  A    between atoms: C_3  and  C_1 
REMARK       I    between atoms: N_6  and  C_3 
REMARK    2  A    between atoms: C_11  and  N_6 
ROOT
ATOM      1  C   UNL d   1      33.012  20.127 -22.943  0.00  0.00     0.121 A 
ATOM      2  C   UNL d   1      33.089  20.206 -23.776  0.00  0.00     0.305 A 
ATOM      3  C   UNL d   1      32.949  19.375 -22.609  0.00  0.00     0.012 A 
ATOM      4  O   UNL d   1      33.102  19.532 -24.267  0.00  0.00    -0.273 OA
ATOM      5  C   UNL d   1      32.963  18.708 -23.098  0.00  0.00     0.023 A 
ATOM      6  C   UNL d   1      33.038  18.786 -23.916  0.00  0.00     0.103 A 
ATOM      7  O   UNL d   1      33.156  20.960 -24.161  0.00  0.00    -0.259 OA
ATOM      8  C   UNL d   1      32.899  17.973 -22.747  0.00  0.00     0.002 A 
ATOM      9  C   UNL d   1      33.052  18.131 -24.404  0.00  0.00     0.025 A 
ATOM     10  C   UNL d   1      32.988  17.381 -24.054  0.00  0.00     0.002 A 
ATOM     11  C   UNL d   1      32.911  17.302 -23.221  0.00  0.00     0.000 A 
ENDROOT
BRANCH   1  12
ATOM     12  C   UNL d   1      32.997  20.796 -22.434  0.00  0.00     0.284 C 
ATOM     13  N   UNL d   1      32.749  20.724 -21.650  0.00  0.00    -0.208 NA
ATOM     14  O   UNL d   1      33.241  21.529 -22.750  0.00  0.00    -0.265 OA
BRANCH  13  15
ATOM     15  C   UNL d   1      32.740  21.394 -21.160  0.00  0.00     0.085 A 
ATOM     16  C   UNL d   1      32.242  22.030 -21.325  0.00  0.00     0.019 A 
ATOM     17  C   UNL d   1      32.241  22.674 -20.844  0.00  0.00     0.002 A 
ATOM     18  C   UNL d   1      31.745  23.307 -21.009  0.00  0.00     0.000 C 
ATOM     19  C   UNL d   1      32.729  22.707 -20.188  0.00  0.00     0.000 A 
ATOM     20  C   UNL d   1      33.241  22.052 -20.017  0.00  0.00     0.002 A 
ATOM     21  C   UNL d   1      32.714  23.387 -19.696  0.00  0.00     0.000 C 
ATOM     22  C   UNL d   1      33.236  21.400 -20.513  0.00  0.00     0.019 A 
ENDBRANCH  13  15
ENDBRANCH   1  12
TORSDOF 2
ENDMDL
MODEL 2
REMARK VINA RESULT:      -3.3      1.333      4.713
REMARK  2 active torsions:
REMARK  status: ('A' for Active; 'I' for Inactive)
REMARK    1  A    between atoms: C_3  and  C_1 
REMARK       I    between atoms: N_6  and  C_3 
REMARK    2  A    between atoms: C_11  and  N_6 
ROOT
ATOM      1  C   UNL d   1      32.894  20.420 -22.148  0.00  0.00     0.121 A 
ATOM      2  C   UNL d   1      32.816  20.565 -21.324  0.00  0.00     0.305 A 
ATOM      3  C   UNL d   1      32.977  21.056 -22.668  0.00  0.00     0.012 A 
ATOM      4  O   UNL d   1      32.822  21.344 -21.029  0.00  0.00    -0.273 OA
ATOM      5  C   UNL d   1      32.983  21.827 -22.372  0.00  0.00     0.023 A 
ATOM      6  C   UNL d   1      32.906  21.970 -21.563  0.00  0.00     0.103 A 
ATOM      7  O   UNL d   1      32.729  19.941 -20.755  0.00  0.00    -0.259 OA
ATOM      8  C   UNL d   1      33.066  22.442 -22.904  0.00  0.00     0.002 A 
ATOM      9  C   UNL d   1      32.911  22.731 -21.264  0.00  0.00     0.025 A 
ATOM     10  C   UNL d   1      32.995  23.360 -21.799  0.00  0.00     0.002 A 
ATOM     11  C   UNL d   1      33.073  23.215 -22.623  0.00  0.00     0.000 A 
ENDROOT
BRANCH   1  12
ATOM     12  C   UNL d   1      32.890  19.641 -22.463  0.00  0.00     0.284 C 
ATOM     13  N   UNL d   1      32.550  19.485 -23.199  0.00  0.00    -0.208 NA
ATOM     14  O   UNL d   1      33.241  19.037 -22.007  0.00  0.00    -0.265 OA
BRANCH  13  15
ATOM     15  C   UNL d   1      32.553  18.710 -23.497  0.00  0.00     0.085 A 
ATOM     16  C   UNL d   1      31.901  18.215 -23.394  0.00  0.00     0.019 A 
ATOM     17  C   UNL d   1      31.914  17.467 -23.686  0.00  0.00     0.002 A 
ATOM     18  C   UNL d   1      31.265  16.976 -23.583  0.00  0.00     0.000 C 
ATOM     19  C   UNL d   1      32.570  17.187 -24.087  0.00  0.00     0.000 A 
ATOM     20  C   UNL d   1      33.241  17.695 -24.194  0.00  0.00     0.002 A 
ATOM     21  C   UNL d   1      32.567  16.402 -24.386  0.00  0.00     0.000 C 
ATOM     22  C   UNL d   1      33.219  18.456 -23.892  0.00  0.00     0.019 A 
ENDBRANCH  13  15
ENDBRANCH   1  12
TORSDOF 2
ENDMDL
MODEL 3
REMARK VINA RESULT:      -2.3      1.067      1.431
REMARK  2 active torsions:
REMARK  status: ('A' for Active; 'I' for Inactive)
REMARK    1  A    between atoms: C_3  and  C_1 
REMARK       I    between atoms: N_6  and  C_3 
REMARK    2  A    between atoms: C_11  and  N_6 
ROOT
ATOM      1  C   UNL d   1      32.623  18.951 -23.272  0.00  0.00     0.121 A 
ATOM      2  C   UNL d   1      32.846  19.113 -24.065  0.00  0.00     0.305 A 
ATOM      3  C   UNL d   1      32.240  18.241 -23.093  0.00  0.00     0.012 A 
ATOM      4  O   UNL d   1      32.684  18.565 -24.672  0.00  0.00    -0.273 OA
ATOM      5  C   UNL d   1      32.081  17.700 -23.697  0.00  0.00     0.023 A 
ATOM      6  C   UNL d   1      32.300  17.859 -24.476  0.00  0.00     0.103 A 
ATOM      7  O   UNL d   1      33.241  19.829 -24.293  0.00  0.00    -0.259 OA
ATOM      8  C   UNL d   1      31.701  17.004 -23.498  0.00  0.00     0.002 A 
ATOM      9  C   UNL d   1      32.145  17.328 -25.077  0.00  0.00     0.025 A 
ATOM     10  C   UNL d   1      31.760  16.618 -24.882  0.00  0.00     0.002 A 
ATOM     11  C   UNL d   1      31.536  16.456 -24.089  0.00  0.00     0.000 A 
ENDROOT
BRANCH   1  12
ATOM     12  C   UNL d   1      32.778  19.492 -22.648  0.00  0.00     0.284 C 
ATOM     13  N   UNL d   1      32.515  20.273 -22.691  0.00  0.00    -0.208 NA
ATOM     14  O   UNL d   1      33.205  19.210 -21.988  0.00  0.00    -0.265 OA
BRANCH  13  15
ATOM     15  C   UNL d   1      32.676  20.796 -22.067  0.00  0.00     0.085 A 
ATOM     16  C   UNL d   1      32.882  21.581 -22.217  0.00  0.00     0.019 A 
ATOM     17  C   UNL d   1      33.036  22.079 -21.606  0.00  0.00     0.002 A 
ATOM     18  C   UNL d   1      33.241  22.860 -21.756  0.00  0.00     0.000 C 
ATOM     19  C   UNL d   1      32.991  21.817 -20.831  0.00  0.00     0.000 A 
ATOM     20  C   UNL d   1      32.779  21.011 -20.677  0.00  0.00     0.002 A 
ATOM     21  C   UNL d   1      33.155  22.352 -20.205  0.00  0.00     0.000 C 
ATOM     22  C   UNL d   1      32.624  20.510 -21.306  0.00  0.00     0.019 A 
ENDBRANCH  13  15
ENDBRANCH   1  12
TORSDOF 2
ENDMDL
MODEL 4
REMARK VINA RESULT:      -2.3      1.171      1.554
REMARK  2 active torsions:
REMARK  status: ('A' for Active; 'I' for Inactive)
REMARK    1  A    between atoms: C_3  and  C_1 
REMARK       I    between atoms: N_6  and  C_3 
REMARK    2  A    between atoms: C_11  and  N_6 
ROOT
ATOM      1  C   UNL d   1      33.020  19.431 -22.542  0.00  0.00     0.121 A 
ATOM      2  C   UNL d   1      33.133  18.685 -22.174  0.00  0.00     0.305 A 
ATOM      3  C   UNL d   1      32.919  19.471 -23.361  0.00  0.00     0.012 A 
ATOM      4  O   UNL d   1      33.144  17.986 -22.627  0.00  0.00    -0.273 OA
ATOM      5  C   UNL d   1      32.930  18.776 -23.808  0.00  0.00     0.023 A 
ATOM      6  C   UNL d   1      33.041  18.043 -23.446  0.00  0.00     0.103 A 
ATOM      7  O   UNL d   1      33.241  18.598 -21.336  0.00  0.00    -0.259 OA
ATOM      8  C   UNL d   1      32.829  18.838 -24.616  0.00  0.00     0.002 A 
ATOM      9  C   UNL d   1      33.053  17.352 -23.883  0.00  0.00     0.025 A 
ATOM     10  C   UNL d   1      32.950  17.408 -24.705  0.00  0.00     0.002 A 
ATOM     11  C   UNL d   1      32.837  18.155 -25.073  0.00  0.00     0.000 A 
ENDROOT
BRANCH   1  12
ATOM     12  C   UNL d   1      33.007  20.146 -22.100  0.00  0.00     0.284 C 
ATOM     13  N   UNL d   1      32.778  20.856 -22.453  0.00  0.00    -0.208 NA
ATOM     14  O   UNL d   1      33.232  20.109 -21.297  0.00  0.00    -0.265 OA
BRANCH  13  15
ATOM     15  C   UNL d   1      32.770  21.554 -22.003  0.00  0.00     0.085 A 
ATOM     16  C   UNL d   1      32.303  21.613 -21.325  0.00  0.00     0.019 A 
ATOM     17  C   UNL d   1      32.302  22.293 -20.897  0.00  0.00     0.002 A 
ATOM     18  C   UNL d   1      31.837  22.352 -20.223  0.00  0.00     0.000 C 
ATOM     19  C   UNL d   1      32.761  22.932 -21.125  0.00  0.00     0.000 A 
ATOM     20  C   UNL d   1      33.241  22.871 -21.821  0.00  0.00     0.002 A 
ATOM     21  C   UNL d   1      32.747  23.634 -20.666  0.00  0.00     0.000 C 
ATOM     22  C   UNL d   1      33.236  22.175 -22.252  0.00  0.00     0.019 A 
ENDBRANCH  13  15
ENDBRANCH   1  12
TORSDOF 2
ENDMDL
