MODEL 1
REMARK VINA RESULT:      -6.9      0.000      0.000
REMARK  6 active torsions:
REMARK  status: ('A' for Active; 'I' for Inactive)
REMARK    1  A    between atoms: N_3  and  S_1 
REMARK    2  A    between atoms: C_9  and  S_1 
REMARK    3  A    between atoms: C_2  and  N_3 
REMARK    4  A    between atoms: N_5  and  C_10 
REMARK    5  A    between atoms: C_19  and  C_8 
REMARK    6  A    between atoms: O_20  and  C_19 
ROOT
ATOM      1  S   UNL d   1     -47.717  13.825  22.949  0.00  0.00     0.287 S 
ATOM      2  O   UNL d   1     -47.846  13.096  23.350  0.00  0.00    -0.198 OA
ATOM      3  O   UNL d   1     -47.580  14.555  22.552  0.00  0.00    -0.198 OA
ENDROOT
BRANCH   1   4
ATOM      4  N   UNL d   1     -46.957  13.880  23.327  0.00  0.00    -0.130 NA
BRANCH   4   5
ATOM      5  C   UNL d   1     -46.316  13.472  23.013  0.00  0.00     0.227 A 
ATOM      6  S   UNL d   1     -45.834  13.618  22.348  0.00  0.00    -0.023 SA
ATOM      7  C   UNL d   1     -45.265  12.999  22.313  0.00  0.00     0.159 A 
ATOM      8  N   UNL d   1     -45.401  12.498  22.939  0.00  0.00    -0.137 NA
ATOM      9  N   UNL d   1     -46.053  12.793  23.371  0.00  0.00    -0.120 NA
BRANCH   7  10
ATOM     10  C   UNL d   1     -44.669  12.922  21.735  0.00  0.00     0.144 C 
BRANCH  10  11
ATOM     11  O   UNL d   1     -43.958  12.494  21.933  0.00  0.00    -0.324 OA
ATOM     12  C   UNL d   1     -43.270  12.550  21.442  0.00  0.00     0.182 C 
ENDBRANCH  10  11
ENDBRANCH   7  10
ENDBRANCH   4   5
ENDBRANCH   1   4
BRANCH   1  13
ATOM     13  C   UNL d   1     -48.472  13.772  22.573  0.00  0.00     0.105 A 
ATOM     14  C   UNL d   1     -49.030  14.315  22.737  0.00  0.00     0.015 A 
ATOM     15  C   UNL d   1     -49.773  14.280  22.380  0.00  0.00     0.024 A 
ATOM     16  C   UNL d   1     -49.932  13.672  21.847  0.00  0.00     0.127 A 
ATOM     17  C   UNL d   1     -49.355  13.100  21.670  0.00  0.00     0.024 A 
ATOM     18  C   UNL d   1     -48.634  13.163  22.039  0.00  0.00     0.015 A 
BRANCH  16  19
ATOM     19  N   UNL d   1     -50.689  13.619  21.470  0.00  0.00    -0.114 N 
ATOM     20  O   UNL d   1     -51.064  12.897  21.405  0.00  0.00    -0.532 OA
ATOM     21  O   UNL d   1     -51.056  14.293  21.165  0.00  0.00    -0.532 OA
ENDBRANCH  16  19
ENDBRANCH   1  13
TORSDOF 6
ENDMDL
MODEL 2
REMARK VINA RESULT:      -6.3      1.481      4.681
REMARK  6 active torsions:
REMARK  status: ('A' for Active; 'I' for Inactive)
REMARK    1  A    between atoms: N_3  and  S_1 
REMARK    2  A    between atoms: C_9  and  S_1 
REMARK    3  A    between atoms: C_2  and  N_3 
REMARK    4  A    between atoms: N_5  and  C_10 
REMARK    5  A    between atoms: C_19  and  C_8 
REMARK    6  A    between atoms: O_20  and  C_19 
ROOT
ATOM      1  S   UNL d   1     -47.169  12.542  23.348  0.00  0.00     0.287 S 
ATOM      2  O   UNL d   1     -47.290  13.368  23.241  0.00  0.00    -0.198 OA
ATOM      3  O   UNL d   1     -47.056  11.714  23.458  0.00  0.00    -0.198 OA
ENDROOT
BRANCH   1   4
ATOM      4  N   UNL d   1     -47.943  12.489  23.698  0.00  0.00    -0.130 NA
BRANCH   4   5
ATOM      5  C   UNL d   1     -48.594  12.325  23.223  0.00  0.00     0.227 A 
ATOM      6  S   UNL d   1     -49.024  12.796  22.685  0.00  0.00    -0.023 SA
ATOM      7  C   UNL d   1     -49.636  12.314  22.366  0.00  0.00     0.159 A 
ATOM      8  N   UNL d   1     -49.574  11.576  22.704  0.00  0.00    -0.137 NA
ATOM      9  N   UNL d   1     -48.928  11.586  23.234  0.00  0.00    -0.120 NA
BRANCH   7  10
ATOM     10  C   UNL d   1     -50.201  12.558  21.804  0.00  0.00     0.144 C 
BRANCH  10  11
ATOM     11  O   UNL d   1     -50.535  13.340  21.873  0.00  0.00    -0.324 OA
ATOM     12  C   UNL d   1     -51.064  13.637  21.281  0.00  0.00     0.182 C 
ENDBRANCH  10  11
ENDBRANCH   7  10
ENDBRANCH   4   5
ENDBRANCH   1   4
BRANCH   1  13
ATOM     13  C   UNL d   1     -46.401  12.592  23.001  0.00  0.00     0.105 A 
ATOM     14  C   UNL d   1     -46.185  13.258  22.622  0.00  0.00     0.015 A 
ATOM     15  C   UNL d   1     -45.439  13.327  22.276  0.00  0.00     0.024 A 
ATOM     16  C   UNL d   1     -44.915  12.693  22.328  0.00  0.00     0.127 A 
ATOM     17  C   UNL d   1     -45.131  11.994  22.722  0.00  0.00     0.024 A 
ATOM     18  C   UNL d   1     -45.874  11.958  23.051  0.00  0.00     0.015 A 
BRANCH  16  19
ATOM     19  N   UNL d   1     -44.145  12.744  21.980  0.00  0.00    -0.114 N 
ATOM     20  O   UNL d   1     -43.642  12.101  22.001  0.00  0.00    -0.532 OA
ATOM     21  O   UNL d   1     -43.891  13.441  21.617  0.00  0.00    -0.532 OA
ENDBRANCH  16  19
ENDBRANCH   1  13
TORSDOF 6
ENDMDL
MODEL 3
REMARK VINA RESULT:      -6.1      1.639      4.606
REMARK  6 active torsions:
REMARK  status: ('A' for Active; 'I' for Inactive)
REMARK    1  A    between atoms: N_3  and  S_1 
REMARK    2  A    between atoms: C_9  and  S_1 
REMARK    3  A    between atoms: C_2  and  N_3 
REMARK    4  A    between atoms: N_5  and  C_10 
REMARK    5  A    between atoms: C_19  and  C_8 
REMARK    6  A    between atoms: O_20  and  C_19 
ROOT
ATOM      1  S   UNL d   1     -48.326  14.410  22.537  0.00  0.00     0.287 S 
ATOM      2  O   UNL d   1     -48.473  14.172  21.743  0.00  0.00    -0.198 OA
ATOM      3  O   UNL d   1     -48.188  14.652  23.332  0.00  0.00    -0.198 OA
ENDROOT
BRANCH   1   4
ATOM      4  N   UNL d   1     -49.087  14.792  22.546  0.00  0.00    -0.130 NA
BRANCH   4   5
ATOM      5  C   UNL d   1     -49.720  14.430  22.926  0.00  0.00     0.227 A 
ATOM      6  S   UNL d   1     -49.940  13.629  23.002  0.00  0.00    -0.023 SA
ATOM      7  C   UNL d   1     -50.647  13.608  23.458  0.00  0.00     0.159 A 
ATOM      8  N   UNL d   1     -50.845  14.374  23.648  0.00  0.00    -0.137 NA
ATOM      9  N   UNL d   1     -50.269  14.881  23.317  0.00  0.00    -0.120 NA
BRANCH   7  10
ATOM     10  C   UNL d   1     -51.064  12.919  23.671  0.00  0.00     0.144 C 
BRANCH  10  11
ATOM     11  O   UNL d   1     -50.886  12.189  23.266  0.00  0.00    -0.324 OA
ATOM     12  C   UNL d   1     -50.796  11.466  23.698  0.00  0.00     0.182 C 
ENDBRANCH  10  11
ENDBRANCH   7  10
ENDBRANCH   4   5
ENDBRANCH   1   4
BRANCH   1  13
ATOM     13  C   UNL d   1     -47.571  14.030  22.530  0.00  0.00     0.105 A 
ATOM     14  C   UNL d   1     -47.507  13.292  22.240  0.00  0.00     0.015 A 
ATOM     15  C   UNL d   1     -46.778  12.904  22.225  0.00  0.00     0.024 A 
ATOM     16  C   UNL d   1     -46.113  13.294  22.514  0.00  0.00     0.127 A 
ATOM     17  C   UNL d   1     -46.171  14.066  22.819  0.00  0.00     0.024 A 
ATOM     18  C   UNL d   1     -46.903  14.419  22.820  0.00  0.00     0.015 A 
BRANCH  16  19
ATOM     19  N   UNL d   1     -45.356  12.914  22.507  0.00  0.00    -0.114 N 
ATOM     20  O   UNL d   1     -44.767  13.184  22.011  0.00  0.00    -0.532 OA
ATOM     21  O   UNL d   1     -45.204  12.267  22.998  0.00  0.00    -0.532 OA
ENDBRANCH  16  19
ENDBRANCH   1  13
TORSDOF 6
ENDMDL
MODEL 4
REMARK VINA RESULT:      -5.5      7.939      9.053
REMARK  6 active torsions:
REMARK  status: ('A' for Active; 'I' for Inactive)
REMARK    1  A    between atoms: N_3  and  S_1 
REMARK    2  A    between atoms: C_9  and  S_1 
REMARK    3  A    between atoms: C_2  and  N_3 
REMARK    4  A    between atoms: N_5  and  C_10 
REMARK    5  A    between atoms: C_19  and  C_8 
REMARK    6  A    between atoms: O_20  and  C_19 
ROOT
ATOM      1  S   UNL d   1     -40.525  15.126  19.970  0.00  0.00     0.287 S 
ATOM      2  O   UNL d   1     -40.220  15.876  19.742  0.00  0.00    -0.198 OA
ATOM      3  O   UNL d   1     -40.835  14.374  20.192  0.00  0.00    -0.198 OA
ENDROOT
BRANCH   1   4
ATOM      4  N   UNL d   1     -40.951  15.092  19.235  0.00  0.00    -0.130 NA
BRANCH   4   5
ATOM      5  C   UNL d   1     -40.604  14.739  18.579  0.00  0.00     0.227 A 
ATOM      6  S   UNL d   1     -40.013  15.003  18.051  0.00  0.00    -0.023 SA
ATOM      7  C   UNL d   1     -39.891  14.390  17.488  0.00  0.00     0.159 A 
ATOM      8  N   UNL d   1     -40.393  13.777  17.672  0.00  0.00    -0.137 NA
ATOM      9  N   UNL d   1     -40.833  13.996  18.348  0.00  0.00    -0.120 NA
BRANCH   7  10
ATOM     10  C   UNL d   1     -39.348  14.415  16.856  0.00  0.00     0.144 C 
BRANCH  10  11
ATOM     11  O   UNL d   1     -38.790  13.776  16.769  0.00  0.00    -0.324 OA
ATOM     12  C   UNL d   1     -38.229  13.776  16.134  0.00  0.00     0.182 C 
ENDBRANCH  10  11
ENDBRANCH   7  10
ENDBRANCH   4   5
ENDBRANCH   1   4
BRANCH   1  13
ATOM     13  C   UNL d   1     -40.102  15.158  20.701  0.00  0.00     0.105 A 
ATOM     14  C   UNL d   1     -39.970  14.486  21.107  0.00  0.00     0.015 A 
ATOM     15  C   UNL d   1     -39.560  14.495  21.823  0.00  0.00     0.024 A 
ATOM     16  C   UNL d   1     -39.285  15.215  22.115  0.00  0.00     0.127 A 
ATOM     17  C   UNL d   1     -39.418  15.922  21.698  0.00  0.00     0.024 A 
ATOM     18  C   UNL d   1     -39.826  15.877  20.997  0.00  0.00     0.015 A 
BRANCH  16  19
ATOM     19  N   UNL d   1     -38.861  15.246  22.848  0.00  0.00    -0.114 N 
ATOM     20  O   UNL d   1     -38.264  14.711  22.998  0.00  0.00    -0.532 OA
ATOM     21  O   UNL d   1     -39.046  15.815  23.418  0.00  0.00    -0.532 OA
ENDBRANCH  16  19
ENDBRANCH   1  13
TORSDOF 6
ENDMDL
MODEL 5
REMARK VINA RESULT:      -5.3      8.065      9.578
REMARK  6 active torsions:
REMARK  status: ('A' for Active; 'I' for Inactive)
REMARK    1  A    between atoms: N_3  and  S_1 
REMARK    2  A    between atoms: C_9  and  S_1 
REMARK    3  A    between atoms: C_2  and  N_3 
REMARK    4  A    between atoms: N_5  and  C_10 
REMARK    5  A    between atoms: C_19  and  C_8 
REMARK    6  A    between atoms: O_20  and  C_19 
ROOT
ATOM      1  S   UNL d   1     -40.368  14.448  18.415  0.00  0.00     0.287 S 
ATOM      2  O   UNL d   1     -40.558  15.244  18.215  0.00  0.00    -0.198 OA
ATOM      3  O   UNL d   1     -40.183  13.653  18.621  0.00  0.00    -0.198 OA
ENDROOT
BRANCH   1   4
ATOM      4  N   UNL d   1     -40.895  14.505  19.080  0.00  0.00    -0.130 NA
BRANCH   4   5
ATOM      5  C   UNL d   1     -40.638  14.865  19.773  0.00  0.00     0.227 A 
ATOM      6  S   UNL d   1     -40.153  14.593  20.396  0.00  0.00    -0.023 SA
ATOM      7  C   UNL d   1     -40.090  15.220  20.954  0.00  0.00     0.159 A 
ATOM      8  N   UNL d   1     -40.525  15.848  20.674  0.00  0.00    -0.137 NA
ATOM      9  N   UNL d   1     -40.863  15.626  19.943  0.00  0.00    -0.120 NA
BRANCH   7  10
ATOM     10  C   UNL d   1     -39.657  15.192  21.665  0.00  0.00     0.144 C 
BRANCH  10  11
ATOM     11  O   UNL d   1     -39.360  15.922  21.993  0.00  0.00    -0.324 OA
ATOM     12  C   UNL d   1     -38.865  15.916  22.681  0.00  0.00     0.182 C 
ENDBRANCH  10  11
ENDBRANCH   7  10
ENDBRANCH   4   5
ENDBRANCH   1   4
BRANCH   1  13
ATOM     13  C   UNL d   1     -39.844  14.390  17.754  0.00  0.00     0.105 A 
ATOM     14  C   UNL d   1     -39.861  14.951  17.190  0.00  0.00     0.015 A 
ATOM     15  C   UNL d   1     -39.357  14.913  16.538  0.00  0.00     0.024 A 
ATOM     16  C   UNL d   1     -38.832  14.280  16.476  0.00  0.00     0.127 A 
ATOM     17  C   UNL d   1     -38.807  13.690  17.060  0.00  0.00     0.024 A 
ATOM     18  C   UNL d   1     -39.317  13.758  17.690  0.00  0.00     0.015 A 
BRANCH  16  19
ATOM     19  N   UNL d   1     -38.307  14.223  15.814  0.00  0.00    -0.114 N 
ATOM     20  O   UNL d   1     -37.965  14.895  15.503  0.00  0.00    -0.532 OA
ATOM     21  O   UNL d   1     -38.135  13.489  15.475  0.00  0.00    -0.532 OA
ENDBRANCH  16  19
ENDBRANCH   1  13
TORSDOF 6
ENDMDL
MODEL 6
REMARK VINA RESULT:      -4.8      8.593      9.490
REMARK  6 active torsions:
REMARK  status: ('A' for Active; 'I' for Inactive)
REMARK    1  A    between atoms: N_3  and  S_1 
REMARK    2  A    between atoms: C_9  and  S_1 
REMARK    3  A    between atoms: C_2  and  N_3 
REMARK    4  A    between atoms: N_5  and  C_10 
REMARK    5  A    between atoms: C_19  and  C_8 
REMARK    6  A    between atoms: O_20  and  C_19 
ROOT
ATOM      1  S   UNL d   1     -38.977  14.906  19.392  0.00  0.00     0.287 S 
ATOM      2  O   UNL d   1     -38.849  15.738  19.379  0.00  0.00    -0.198 OA
ATOM      3  O   UNL d   1     -39.105  14.074  19.397  0.00  0.00    -0.198 OA
ENDROOT
BRANCH   1   4
ATOM      4  N   UNL d   1     -38.976  14.908  18.541  0.00  0.00    -0.130 NA
BRANCH   4   5
ATOM      5  C   UNL d   1     -39.687  14.969  18.134  0.00  0.00     0.227 A 
ATOM      6  S   UNL d   1     -40.084  15.623  17.800  0.00  0.00    -0.023 SA
ATOM      7  C   UNL d   1     -40.794  15.332  17.454  0.00  0.00     0.159 A 
ATOM      8  N   UNL d   1     -40.821  14.528  17.576  0.00  0.00    -0.137 NA
ATOM      9  N   UNL d   1     -40.135  14.306  17.998  0.00  0.00    -0.120 NA
BRANCH   7  10
ATOM     10  C   UNL d   1     -41.363  15.794  17.057  0.00  0.00     0.144 C 
BRANCH  10  11
ATOM     11  O   UNL d   1     -41.531  15.623  16.238  0.00  0.00    -0.324 OA
ATOM     12  C   UNL d   1     -42.236  15.916  15.871  0.00  0.00     0.182 C 
ENDBRANCH  10  11
ENDBRANCH   7  10
ENDBRANCH   4   5
ENDBRANCH   1   4
BRANCH   1  13
ATOM     13  C   UNL d   1     -38.978  14.903  20.237  0.00  0.00     0.105 A 
ATOM     14  C   UNL d   1     -38.480  14.420  20.627  0.00  0.00     0.015 A 
ATOM     15  C   UNL d   1     -38.466  14.401  21.452  0.00  0.00     0.024 A 
ATOM     16  C   UNL d   1     -38.978  14.893  21.871  0.00  0.00     0.127 A 
ATOM     17  C   UNL d   1     -39.501  15.400  21.472  0.00  0.00     0.024 A 
ATOM     18  C   UNL d   1     -39.490  15.394  20.659  0.00  0.00     0.015 A 
BRANCH  16  19
ATOM     19  N   UNL d   1     -38.978  14.889  22.718  0.00  0.00    -0.114 N 
ATOM     20  O   UNL d   1     -39.056  14.184  23.124  0.00  0.00    -0.532 OA
ATOM     21  O   UNL d   1     -38.901  15.592  23.143  0.00  0.00    -0.532 OA
ENDBRANCH  16  19
ENDBRANCH   1  13
TORSDOF 6
ENDMDL
MODEL 7
REMARK VINA RESULT:      -4.5      8.701      9.332
REMARK  6 active torsions:
REMARK  status: ('A' for Active; 'I' for Inactive)
REMARK    1  A    between atoms: N_3  and  S_1 
REMARK    2  A    between atoms: C_9  and  S_1 
REMARK    3  A    between atoms: C_2  and  N_3 
REMARK    4  A    between atoms: N_5  and  C_10 
REMARK    5  A    between atoms: C_19  and  C_8 
REMARK    6  A    between atoms: O_20  and  C_19 
ROOT
ATOM      1  S   UNL d   1     -38.627  14.621  18.527  0.00  0.00     0.287 S 
ATOM      2  O   UNL d   1     -38.682  13.854  18.186  0.00  0.00    -0.198 OA
ATOM      3  O   UNL d   1     -38.564  15.387  18.874  0.00  0.00    -0.198 OA
ENDROOT
BRANCH   1   4
ATOM      4  N   UNL d   1     -37.941  14.363  18.960  0.00  0.00    -0.130 NA
BRANCH   4   5
ATOM      5  C   UNL d   1     -38.029  14.063  19.721  0.00  0.00     0.227 A 
ATOM      6  S   UNL d   1     -38.206  14.432  20.448  0.00  0.00    -0.023 SA
ATOM      7  C   UNL d   1     -38.221  13.829  21.035  0.00  0.00     0.159 A 
ATOM      8  N   UNL d   1     -38.058  13.120  20.670  0.00  0.00    -0.137 NA
ATOM      9  N   UNL d   1     -37.940  13.268  19.856  0.00  0.00    -0.120 NA
BRANCH   7  10
ATOM     10  C   UNL d   1     -38.376  13.947  21.845  0.00  0.00     0.144 C 
BRANCH  10  11
ATOM     11  O   UNL d   1     -38.727  13.310  22.292  0.00  0.00    -0.324 OA
ATOM     12  C   UNL d   1     -38.844  13.383  23.128  0.00  0.00     0.182 C 
ENDBRANCH  10  11
ENDBRANCH   7  10
ENDBRANCH   4   5
ENDBRANCH   1   4
BRANCH   1  13
ATOM     13  C   UNL d   1     -39.307  14.880  18.099  0.00  0.00     0.105 A 
ATOM     14  C   UNL d   1     -39.303  15.596  17.753  0.00  0.00     0.015 A 
ATOM     15  C   UNL d   1     -39.958  15.867  17.329  0.00  0.00     0.024 A 
ATOM     16  C   UNL d   1     -40.622  15.383  17.268  0.00  0.00     0.127 A 
ATOM     17  C   UNL d   1     -40.635  14.633  17.626  0.00  0.00     0.024 A 
ATOM     18  C   UNL d   1     -39.974  14.396  18.036  0.00  0.00     0.015 A 
BRANCH  16  19
ATOM     19  N   UNL d   1     -41.304  15.642  16.838  0.00  0.00    -0.114 N 
ATOM     20  O   UNL d   1     -41.993  15.823  17.236  0.00  0.00    -0.532 OA
ATOM     21  O   UNL d   1     -41.281  15.716  16.016  0.00  0.00    -0.532 OA
ENDBRANCH  16  19
ENDBRANCH   1  13
TORSDOF 6
ENDMDL
