MODEL 1
REMARK VINA RESULT:      83.3      0.000      0.000
REMARK  4 active torsions:
REMARK  status: ('A' for Active; 'I' for Inactive)
REMARK    1  A    between atoms: N_3  and  C_1 
REMARK    2  A    between atoms: C_6  and  C_2 
REMARK    3  A    between atoms: C_13  and  N_8 
REMARK    4  A    between atoms: C_16  and  C_13 
ROOT
ATOM      1  N   UNL d   1      61.264  48.276  50.300  0.00  0.00    -0.286 N 
ATOM      2  N   UNL d   1      62.031  46.977  49.599  0.00  0.00    -0.300 N 
ATOM      3  C   UNL d   1      60.870  47.557  50.225  0.00  0.00     0.101 A 
ATOM      4  C   UNL d   1      62.047  48.359  50.026  0.00  0.00     0.101 A 
ATOM      5  C   UNL d   1      62.425  47.714  49.679  0.00  0.00     0.100 A 
ATOM      6  C   UNL d   1      61.252  46.907  49.875  0.00  0.00     0.100 A 
ENDROOT
BRANCH   1   7
ATOM      7  C   UNL d   1      60.694  48.754  50.667  0.00  0.00     0.149 A 
ATOM      8  C   UNL d   1      60.810  48.988  51.461  0.00  0.00     0.056 A 
ATOM      9  C   UNL d   1      60.245  49.461  51.826  0.00  0.00     0.006 A 
ATOM     10  C   UNL d   1      60.343  49.704  52.616  0.00  0.00     0.000 C 
ATOM     11  C   UNL d   1      59.567  49.700  51.400  0.00  0.00     0.019 A 
ATOM     12  C   UNL d   1      59.461  49.462  50.611  0.00  0.00     0.083 A 
ATOM     13  N   UNL d   1      60.028  48.988  50.249  0.00  0.00    -0.228 NA
ATOM     14  C   UNL d   1      58.788  49.701  50.192  0.00  0.00     0.021 C 
BRANCH   8  15
ATOM     15  C   UNL d   1      61.479  48.749  51.873  0.00  0.00     0.125 C 
ATOM     16  N   UNL d   1      61.867  49.277  52.372  0.00  0.00    -0.146 N 
ENDBRANCH   8  15
ENDBRANCH   1   7
BRANCH   2  17
ATOM     17  C   UNL d   1      62.416  46.337  49.251  0.00  0.00     0.080 C 
BRANCH  17  18
ATOM     18  C   UNL d   1      62.039  45.605  49.192  0.00  0.00     0.018 A 
ATOM     19  C   UNL d   1      61.278  45.561  48.887  0.00  0.00     0.002 A 
ATOM     20  C   UNL d   1      60.902  44.830  48.829  0.00  0.00     0.000 A 
ATOM     21  C   UNL d   1      61.292  44.153  49.075  0.00  0.00     0.000 A 
ATOM     22  C   UNL d   1      62.058  44.193  49.381  0.00  0.00     0.000 A 
ATOM     23  C   UNL d   1      62.430  44.928  49.438  0.00  0.00     0.002 A 
ENDBRANCH  17  18
ENDBRANCH   2  17
TORSDOF 4
ENDMDL
MODEL 2
REMARK VINA RESULT:      84.1      1.388      4.390
REMARK  4 active torsions:
REMARK  status: ('A' for Active; 'I' for Inactive)
REMARK    1  A    between atoms: N_3  and  C_1 
REMARK    2  A    between atoms: C_6  and  C_2 
REMARK    3  A    between atoms: C_13  and  N_8 
REMARK    4  A    between atoms: C_16  and  C_13 
ROOT
ATOM      1  N   UNL d   1      60.042  48.259  50.763  0.00  0.00    -0.286 N 
ATOM      2  N   UNL d   1      58.692  49.230  50.808  0.00  0.00    -0.300 N 
ATOM      3  C   UNL d   1      59.948  48.860  50.207  0.00  0.00     0.101 A 
ATOM      4  C   UNL d   1      59.464  48.133  51.350  0.00  0.00     0.101 A 
ATOM      5  C   UNL d   1      58.796  48.615  51.370  0.00  0.00     0.100 A 
ATOM      6  C   UNL d   1      59.274  49.345  50.230  0.00  0.00     0.100 A 
ENDROOT
BRANCH   1   7
ATOM      7  C   UNL d   1      60.769  47.925  50.542  0.00  0.00     0.149 A 
ATOM      8  C   UNL d   1      61.474  48.348  50.691  0.00  0.00     0.056 A 
ATOM      9  C   UNL d   1      62.194  48.017  50.473  0.00  0.00     0.006 A 
ATOM     10  C   UNL d   1      62.906  48.424  50.613  0.00  0.00     0.000 C 
ATOM     11  C   UNL d   1      62.211  47.267  50.106  0.00  0.00     0.019 A 
ATOM     12  C   UNL d   1      61.503  46.854  49.963  0.00  0.00     0.083 A 
ATOM     13  N   UNL d   1      60.785  47.188  50.183  0.00  0.00    -0.228 NA
ATOM     14  C   UNL d   1      61.524  46.109  49.600  0.00  0.00     0.021 C 
BRANCH   8  15
ATOM     15  C   UNL d   1      61.449  49.086  51.052  0.00  0.00     0.125 C 
ATOM     16  N   UNL d   1      61.318  49.145  51.863  0.00  0.00    -0.146 N 
ENDBRANCH   8  15
ENDBRANCH   1   7
BRANCH   2  17
ATOM     17  C   UNL d   1      58.020  49.707  50.836  0.00  0.00     0.080 C 
BRANCH  17  18
ATOM     18  C   UNL d   1      57.410  49.600  50.291  0.00  0.00     0.018 A 
ATOM     19  C   UNL d   1      57.571  49.634  49.486  0.00  0.00     0.002 A 
ATOM     20  C   UNL d   1      56.960  49.526  48.942  0.00  0.00     0.000 A 
ATOM     21  C   UNL d   1      56.199  49.386  49.209  0.00  0.00     0.000 A 
ATOM     22  C   UNL d   1      56.034  49.352  50.018  0.00  0.00     0.000 A 
ATOM     23  C   UNL d   1      56.648  49.460  50.559  0.00  0.00     0.002 A 
ENDBRANCH  17  18
ENDBRANCH   2  17
TORSDOF 4
ENDMDL
