MODEL 1
REMARK VINA RESULT:      -3.4      0.000      0.000
REMARK  3 active torsions:
REMARK  status: ('A' for Active; 'I' for Inactive)
REMARK    1  A    between atoms: N_9  and  C_4 
REMARK       I    between atoms: C_7  and  N_10 
REMARK    2  A    between atoms: C_8  and  C_7 
REMARK    3  A    between atoms: N_10  and  N_9 
ROOT
ATOM      1  C   UNL d   1      32.887  18.410 -23.835  0.00  0.00     0.297 C 
ATOM      2  N   UNL d   1      32.988  18.911 -23.189  0.00  0.00    -0.104 NA
ATOM      3  O   UNL d   1      33.011  18.693 -24.600  0.00  0.00    -0.264 OA
ENDROOT
BRANCH   1   4
ATOM      4  C   UNL d   1      32.663  17.628 -23.716  0.00  0.00     0.059 A 
ATOM      5  C   UNL d   1      31.906  17.383 -23.955  0.00  0.00     0.005 A 
ATOM      6  C   UNL d   1      31.690  16.592 -23.831  0.00  0.00     0.000 A 
ATOM      7  C   UNL d   1      31.391  17.906 -24.302  0.00  0.00     0.000 A 
ATOM      8  C   UNL d   1      30.945  16.343 -24.064  0.00  0.00     0.000 A 
ATOM      9  C   UNL d   1      32.214  16.061 -23.478  0.00  0.00     0.000 A 
ATOM     10  C   UNL d   1      30.426  16.863 -24.412  0.00  0.00     0.000 A 
ATOM     11  C   UNL d   1      30.648  17.655 -24.534  0.00  0.00     0.000 A 
ATOM     12  C   UNL d   1      32.962  16.313 -23.244  0.00  0.00     0.000 A 
ATOM     13  C   UNL d   1      33.189  17.099 -23.363  0.00  0.00     0.005 A 
ENDBRANCH   1   4
BRANCH   2  14
ATOM     14  N   UNL d   1      33.213  19.693 -23.308  0.00  0.00    -0.127 NA
BRANCH  14  15
ATOM     15  C   UNL d   1      33.215  20.225 -22.674  0.00  0.00     0.178 A 
ATOM     16  N   UNL d   1      33.227  21.034 -22.811  0.00  0.00    -0.240 N 
ATOM     17  C   UNL d   1      33.228  21.558 -22.184  0.00  0.00     0.343 A 
ATOM     18  C   UNL d   1      33.237  21.318 -23.586  0.00  0.00     0.105 C 
ATOM     19  N   UNL d   1      33.218  21.274 -21.410  0.00  0.00    -0.224 N 
ATOM     20  O   UNL d   1      33.240  22.372 -22.324  0.00  0.00    -0.245 OA
ATOM     21  C   UNL d   1      33.206  20.463 -21.255  0.00  0.00     0.271 A 
ATOM     22  C   UNL d   1      33.220  21.804 -20.775  0.00  0.00     0.107 C 
ATOM     23  C   UNL d   1      33.204  19.940 -21.899  0.00  0.00     0.101 A 
ATOM     24  O   UNL d   1      33.196  20.182 -20.488  0.00  0.00    -0.266 OA
ENDBRANCH  14  15
ENDBRANCH   2  14
TORSDOF 3
ENDMDL
MODEL 2
REMARK VINA RESULT:      -2.9      1.207      1.886
REMARK  3 active torsions:
REMARK  status: ('A' for Active; 'I' for Inactive)
REMARK    1  A    between atoms: N_9  and  C_4 
REMARK       I    between atoms: C_7  and  N_10 
REMARK    2  A    between atoms: C_8  and  C_7 
REMARK    3  A    between atoms: N_10  and  N_9 
ROOT
ATOM      1  C   UNL d   1      31.642  17.135 -24.169  0.00  0.00     0.297 C 
ATOM      2  N   UNL d   1      31.918  17.745 -23.690  0.00  0.00    -0.104 NA
ATOM      3  O   UNL d   1      32.011  16.976 -24.890  0.00  0.00    -0.264 OA
ENDROOT
BRANCH   1   4
ATOM      4  C   UNL d   1      30.997  16.684 -23.928  0.00  0.00     0.059 A 
ATOM      5  C   UNL d   1      30.247  16.850 -24.243  0.00  0.00     0.005 A 
ATOM      6  C   UNL d   1      29.604  16.390 -23.993  0.00  0.00     0.000 A 
ATOM      7  C   UNL d   1      30.146  17.449 -24.782  0.00  0.00     0.000 A 
ATOM      8  C   UNL d   1      28.861  16.548 -24.300  0.00  0.00     0.000 A 
ATOM      9  C   UNL d   1      29.707  15.782 -23.446  0.00  0.00     0.000 A 
ATOM     10  C   UNL d   1      28.755  17.146 -24.840  0.00  0.00     0.000 A 
ATOM     11  C   UNL d   1      29.403  17.604 -25.086  0.00  0.00     0.000 A 
ATOM     12  C   UNL d   1      30.454  15.624 -23.139  0.00  0.00     0.000 A 
ATOM     13  C   UNL d   1      31.104  16.077 -23.380  0.00  0.00     0.005 A 
ENDBRANCH   1   4
BRANCH   2  14
ATOM     14  N   UNL d   1      32.563  18.195 -23.931  0.00  0.00    -0.127 NA
BRANCH  14  15
ATOM     15  C   UNL d   1      32.733  18.911 -23.553  0.00  0.00     0.178 A 
ATOM     16  N   UNL d   1      32.902  19.583 -23.994  0.00  0.00    -0.240 N 
ATOM     17  C   UNL d   1      33.070  20.290 -23.619  0.00  0.00     0.343 A 
ATOM     18  C   UNL d   1      32.903  19.544 -24.818  0.00  0.00     0.105 C 
ATOM     19  N   UNL d   1      33.070  20.329 -22.795  0.00  0.00    -0.224 N 
ATOM     20  O   UNL d   1      33.240  20.965 -24.064  0.00  0.00    -0.245 OA
ATOM     21  C   UNL d   1      32.901  19.663 -22.337  0.00  0.00     0.271 A 
ATOM     22  C   UNL d   1      33.239  21.044 -22.415  0.00  0.00     0.107 C 
ATOM     23  C   UNL d   1      32.732  18.950 -22.729  0.00  0.00     0.101 A 
ATOM     24  O   UNL d   1      32.901  19.702 -21.521  0.00  0.00    -0.266 OA
ENDBRANCH  14  15
ENDBRANCH   2  14
TORSDOF 3
ENDMDL
MODEL 3
REMARK VINA RESULT:      -1.9      1.196      4.886
REMARK  3 active torsions:
REMARK  status: ('A' for Active; 'I' for Inactive)
REMARK    1  A    between atoms: N_9  and  C_4 
REMARK       I    between atoms: C_7  and  N_10 
REMARK    2  A    between atoms: C_8  and  C_7 
REMARK    3  A    between atoms: N_10  and  N_9 
ROOT
ATOM      1  C   UNL d   1      33.095  20.258 -22.001  0.00  0.00     0.297 C 
ATOM      2  N   UNL d   1      33.033  19.701 -22.605  0.00  0.00    -0.104 NA
ATOM      3  O   UNL d   1      33.239  20.013 -21.227  0.00  0.00    -0.264 OA
ENDROOT
BRANCH   1   4
ATOM      4  C   UNL d   1      33.013  21.058 -22.171  0.00  0.00     0.059 A 
ATOM      5  C   UNL d   1      32.700  21.565 -21.593  0.00  0.00     0.005 A 
ATOM      6  C   UNL d   1      32.621  22.370 -21.774  0.00  0.00     0.000 A 
ATOM      7  C   UNL d   1      32.476  21.278 -20.866  0.00  0.00     0.000 A 
ATOM      8  C   UNL d   1      32.313  22.876 -21.209  0.00  0.00     0.000 A 
ATOM      9  C   UNL d   1      32.848  22.661 -22.512  0.00  0.00     0.000 A 
ATOM     10  C   UNL d   1      32.088  22.594 -20.480  0.00  0.00     0.000 A 
ATOM     11  C   UNL d   1      32.169  21.785 -20.303  0.00  0.00     0.000 A 
ATOM     12  C   UNL d   1      33.158  22.151 -23.080  0.00  0.00     0.000 A 
ATOM     13  C   UNL d   1      33.241  21.346 -22.910  0.00  0.00     0.005 A 
ENDBRANCH   1   4
BRANCH   2  14
ATOM     14  N   UNL d   1      33.115  18.900 -22.435  0.00  0.00    -0.127 NA
BRANCH  14  15
ATOM     15  C   UNL d   1      32.936  18.334 -23.010  0.00  0.00     0.178 A 
ATOM     16  N   UNL d   1      32.998  17.533 -22.837  0.00  0.00    -0.240 N 
ATOM     17  C   UNL d   1      32.821  16.975 -23.407  0.00  0.00     0.343 A 
ATOM     18  C   UNL d   1      33.239  17.294 -22.086  0.00  0.00     0.105 C 
ATOM     19  N   UNL d   1      32.579  17.214 -24.158  0.00  0.00    -0.224 N 
ATOM     20  O   UNL d   1      32.883  16.170 -23.231  0.00  0.00    -0.245 OA
ATOM     21  C   UNL d   1      32.512  18.015 -24.348  0.00  0.00     0.271 A 
ATOM     22  C   UNL d   1      32.400  16.649 -24.734  0.00  0.00     0.107 C 
ATOM     23  C   UNL d   1      32.695  18.574 -23.762  0.00  0.00     0.101 A 
ATOM     24  O   UNL d   1      32.273  18.253 -25.092  0.00  0.00    -0.266 OA
ENDBRANCH  14  15
ENDBRANCH   2  14
TORSDOF 3
ENDMDL
MODEL 4
REMARK VINA RESULT:      -1.8      1.136      2.021
REMARK  3 active torsions:
REMARK  status: ('A' for Active; 'I' for Inactive)
REMARK    1  A    between atoms: N_9  and  C_4 
REMARK       I    between atoms: C_7  and  N_10 
REMARK    2  A    between atoms: C_8  and  C_7 
REMARK    3  A    between atoms: N_10  and  N_9 
ROOT
ATOM      1  C   UNL d   1      33.064  19.099 -22.818  0.00  0.00     0.297 C 
ATOM      2  N   UNL d   1      33.142  19.911 -22.706  0.00  0.00    -0.104 NA
ATOM      3  O   UNL d   1      33.082  18.589 -22.170  0.00  0.00    -0.264 OA
ENDROOT
BRANCH   1   4
ATOM      4  C   UNL d   1      32.968  18.797 -23.577  0.00  0.00     0.059 A 
ATOM      5  C   UNL d   1      32.596  18.061 -23.676  0.00  0.00     0.005 A 
ATOM      6  C   UNL d   1      32.504  17.766 -24.445  0.00  0.00     0.000 A 
ATOM      7  C   UNL d   1      32.329  17.642 -23.034  0.00  0.00     0.000 A 
ATOM      8  C   UNL d   1      32.138  17.041 -24.550  0.00  0.00     0.000 A 
ATOM      9  C   UNL d   1      32.775  18.193 -25.097  0.00  0.00     0.000 A 
ATOM     10  C   UNL d   1      31.869  16.617 -23.911  0.00  0.00     0.000 A 
ATOM     11  C   UNL d   1      31.964  16.918 -23.142  0.00  0.00     0.000 A 
ATOM     12  C   UNL d   1      33.143  18.921 -24.990  0.00  0.00     0.000 A 
ATOM     13  C   UNL d   1      33.240  19.226 -24.227  0.00  0.00     0.005 A 
ENDBRANCH   1   4
BRANCH   2  14
ATOM     14  N   UNL d   1      33.238  20.213 -21.947  0.00  0.00    -0.127 NA
BRANCH  14  15
ATOM     15  C   UNL d   1      33.121  21.019 -21.804  0.00  0.00     0.178 A 
ATOM     16  N   UNL d   1      32.939  21.284 -21.048  0.00  0.00    -0.240 N 
ATOM     17  C   UNL d   1      32.824  22.081 -20.908  0.00  0.00     0.343 A 
ATOM     18  C   UNL d   1      32.874  20.743 -20.429  0.00  0.00     0.105 C 
ATOM     19  N   UNL d   1      32.889  22.622 -21.527  0.00  0.00    -0.224 N 
ATOM     20  O   UNL d   1      32.641  22.345 -20.147  0.00  0.00    -0.245 OA
ATOM     21  C   UNL d   1      33.071  22.372 -22.293  0.00  0.00     0.271 A 
ATOM     22  C   UNL d   1      32.772  23.428 -21.385  0.00  0.00     0.107 C 
ATOM     23  C   UNL d   1      33.186  21.560 -22.423  0.00  0.00     0.101 A 
ATOM     24  O   UNL d   1      33.135  22.908 -22.906  0.00  0.00    -0.266 OA
ENDBRANCH  14  15
ENDBRANCH   2  14
TORSDOF 3
ENDMDL
