MODEL 1
REMARK VINA RESULT:      59.4      0.000      0.000
REMARK  10 active torsions:
REMARK  status: ('A' for Active; 'I' for Inactive)
REMARK    1  A    between atoms: C_14  and  N_1 
REMARK    2  A    between atoms: N_9  and  C_2 
REMARK    3  A    between atoms: C_6  and  C_5 
REMARK    4  A    between atoms: C_7  and  C_6 
REMARK       I    between atoms: N_8  and  C_7 
REMARK    5  A    between atoms: C_10  and  N_8 
REMARK    6  A    between atoms: C_16  and  N_9 
REMARK    7  A    between atoms: O_15  and  C_13 
REMARK    8  A    between atoms: C_19  and  O_15 
REMARK    9  A    between atoms: C_21  and  C_19 
REMARK   10  A    between atoms: C_22  and  C_21 
ROOT
ATOM      1  C   UNL d   1      58.882  49.368  50.484  0.00  0.00     0.280 C 
ATOM      2  N   UNL d   1      58.110  49.161  50.681  0.00  0.00    -0.206 NA
ATOM      3  O   UNL d   1      59.044  49.705  49.752  0.00  0.00    -0.265 OA
ENDROOT
BRANCH   1   4
ATOM      4  C   UNL d   1      59.487  49.234  51.027  0.00  0.00     0.074 C 
BRANCH   4   5
ATOM      5  C   UNL d   1      60.049  48.648  50.892  0.00  0.00     0.093 A 
ATOM      6  C   UNL d   1      60.845  48.770  50.719  0.00  0.00     0.272 A 
ATOM      7  N   UNL d   1      61.201  48.035  50.626  0.00  0.00    -0.252 N 
ATOM      8  O   UNL d   1      61.219  49.499  50.650  0.00  0.00    -0.266 OA
ATOM      9  C   UNL d   1      60.627  47.458  50.742  0.00  0.00     0.182 A 
ATOM     10  S   UNL d   1      59.908  47.834  50.908  0.00  0.00    -0.045 SA
BRANCH   7  11
ATOM     11  C   UNL d   1      61.992  47.895  50.449  0.00  0.00     0.085 C 
ATOM     12  C   UNL d   1      62.243  47.121  50.286  0.00  0.00     0.021 C 
ENDBRANCH   7  11
BRANCH   9  13
ATOM     13  N   UNL d   1      60.742  46.640  50.701  0.00  0.00    -0.221 NA
BRANCH  13  14
ATOM     14  C   UNL d   1      60.437  46.156  51.288  0.00  0.00     0.101 C 
ATOM     15  C   UNL d   1      60.660  45.367  51.332  0.00  0.00     0.022 C 
ENDBRANCH  13  14
ENDBRANCH   9  13
ENDBRANCH   4   5
ENDBRANCH   1   4
BRANCH   2  16
ATOM     16  C   UNL d   1      57.499  49.291  50.147  0.00  0.00     0.107 A 
ATOM     17  C   UNL d   1      56.710  49.170  50.378  0.00  0.00     0.118 A 
ATOM     18  C   UNL d   1      56.097  49.302  49.839  0.00  0.00     0.026 A 
ATOM     19  C   UNL d   1      56.277  49.552  49.073  0.00  0.00     0.002 A 
ATOM     20  C   UNL d   1      57.059  49.672  48.844  0.00  0.00     0.002 A 
ATOM     21  C   UNL d   1      57.670  49.542  49.378  0.00  0.00     0.021 A 
BRANCH  17  22
ATOM     22  O   UNL d   1      56.538  48.921  51.142  0.00  0.00    -0.304 OA
BRANCH  22  23
ATOM     23  C   UNL d   1      56.644  49.437  51.775  0.00  0.00     0.123 C 
BRANCH  23  24
ATOM     24  C   UNL d   1      56.036  49.572  52.303  0.00  0.00     0.027 C 
BRANCH  24  25
ATOM     25  C   UNL d   1      56.195  49.680  53.113  0.00  0.00     0.002 C 
ATOM     26  C   UNL d   1      56.239  49.021  53.607  0.00  0.00     0.000 C 
ENDBRANCH  24  25
ENDBRANCH  23  24
ENDBRANCH  22  23
ENDBRANCH  17  22
ENDBRANCH   2  16
TORSDOF 10
ENDMDL
