MODEL 1
REMARK VINA RESULT:      49.0      0.000      0.000
REMARK  7 active torsions:
REMARK  status: ('A' for Active; 'I' for Inactive)
REMARK    1  A    between atoms: C_2  and  S_1 
REMARK    2  A    between atoms: N_7  and  S_1 
REMARK    3  A    between atoms: O_11  and  C_6 
REMARK    4  A    between atoms: C_12  and  N_7 
REMARK    5  A    between atoms: O_13  and  C_9 
REMARK    6  A    between atoms: C_15  and  C_12 
REMARK    7  A    between atoms: C_14  and  C_15 
ROOT
ATOM      1  S   UNL d   1     -50.112  27.197  33.733  0.00  0.00     0.287 S 
ATOM      2  O   UNL d   1     -49.463  26.903  34.163  0.00  0.00    -0.198 OA
ATOM      3  O   UNL d   1     -50.746  27.497  33.313  0.00  0.00    -0.198 OA
ENDROOT
BRANCH   1   4
ATOM      4  C   UNL d   1     -50.371  26.423  33.590  0.00  0.00     0.129 A 
ATOM      5  C   UNL d   1     -49.819  25.829  33.520  0.00  0.00     0.039 A 
ATOM      6  C   UNL d   1     -50.069  25.057  33.378  0.00  0.00     0.095 A 
ATOM      7  C   UNL d   1     -50.866  24.892  33.308  0.00  0.00     0.026 A 
ATOM      8  C   UNL d   1     -51.431  25.494  33.378  0.00  0.00     0.027 A 
ATOM      9  C   UNL d   1     -51.182  26.255  33.518  0.00  0.00     0.106 A 
BRANCH   6  10
ATOM     10  O   UNL d   1     -49.512  24.444  33.306  0.00  0.00    -0.328 OA
ATOM     11  C   UNL d   1     -49.182  24.123  33.969  0.00  0.00     0.181 C 
ENDBRANCH   6  10
BRANCH   9  12
ATOM     12  O   UNL d   1     -51.746  26.849  33.587  0.00  0.00    -0.327 OA
ATOM     13  C   UNL d   1     -52.533  26.676  33.430  0.00  0.00     0.181 C 
ENDBRANCH   9  12
ENDBRANCH   1   4
BRANCH   1  14
ATOM     14  N   UNL d   1     -49.844  27.966  33.882  0.00  0.00    -0.157 NA
BRANCH  14  15
ATOM     15  C   UNL d   1     -49.182  28.104  34.376  0.00  0.00     0.112 C 
BRANCH  15  16
ATOM     16  C   UNL d   1     -48.821  28.848  34.408  0.00  0.00     0.021 C 
BRANCH  16  17
ATOM     17  C   UNL d   1     -48.292  29.029  35.011  0.00  0.00     0.002 A 
ATOM     18  C   UNL d   1     -47.613  29.465  34.851  0.00  0.00     0.000 A 
ATOM     19  C   UNL d   1     -47.082  29.648  35.455  0.00  0.00     0.000 A 
ATOM     20  C   UNL d   1     -47.234  29.390  36.230  0.00  0.00     0.000 A 
ATOM     21  C   UNL d   1     -47.927  28.947  36.383  0.00  0.00     0.000 A 
ATOM     22  C   UNL d   1     -48.445  28.771  35.787  0.00  0.00     0.000 A 
ENDBRANCH  16  17
ENDBRANCH  15  16
ENDBRANCH  14  15
ENDBRANCH   1  14
TORSDOF 7
ENDMDL
