MODEL 1
REMARK VINA RESULT:      30.5      0.000      0.000
REMARK  9 active torsions:
REMARK  status: ('A' for Active; 'I' for Inactive)
REMARK    1  A    between atoms: C_9  and  C_1 
REMARK    2  A    between atoms: N_8  and  C_2 
REMARK    3  A    between atoms: C_10  and  C_4 
REMARK    4  A    between atoms: C_6  and  N_7 
REMARK    5  A    between atoms: N_7  and  N_8 
REMARK    6  A    between atoms: O_18  and  C_9 
REMARK    7  A    between atoms: O_19  and  C_10 
REMARK    8  A    between atoms: C_23  and  O_18 
REMARK    9  A    between atoms: C_24  and  O_19 
ROOT
ATOM      1  C   UNL d   1      13.559  13.135  -3.882  0.00  0.00     0.090 A 
ATOM      2  C   UNL d   1      13.982  13.058  -3.206  0.00  0.00     0.138 A 
ATOM      3  C   UNL d   1      13.462  13.917  -4.019  0.00  0.00     0.018 A 
ATOM      4  C   UNL d   1      13.799  14.353  -3.471  0.00  0.00     0.095 A 
ATOM      5  S   UNL d   1      14.144  13.843  -2.930  0.00  0.00    -0.061 SA
ATOM      6  C   UNL d   1      13.035  14.273  -4.694  0.00  0.00     0.001 C 
ENDROOT
BRANCH   2   7
ATOM      7  N   UNL d   1      14.181  12.317  -2.905  0.00  0.00    -0.141 NA
BRANCH   7   8
ATOM      8  N   UNL d   1      13.767  11.967  -2.257  0.00  0.00    -0.141 NA
BRANCH   8   9
ATOM      9  C   UNL d   1      14.133  11.930  -1.484  0.00  0.00     0.180 A 
ATOM     10  C   UNL d   1      14.978  11.852  -1.462  0.00  0.00     0.218 A 
ATOM     11  O   UNL d   1      15.389  11.816  -2.176  0.00  0.00    -0.285 OA
ATOM     12  C   UNL d   1      15.359  11.814  -0.731  0.00  0.00     0.044 A 
ATOM     13  C   UNL d   1      14.947  11.849  -0.018  0.00  0.00     0.007 A 
ATOM     14  C   UNL d   1      14.107  11.927  -0.021  0.00  0.00     0.044 A 
ATOM     15  C   UNL d   1      13.698  11.968  -0.764  0.00  0.00     0.218 A 
ATOM     16  O   UNL d   1      12.897  12.042  -0.760  0.00  0.00    -0.285 OA
ENDBRANCH   8   9
ENDBRANCH   7   8
ENDBRANCH   2   7
BRANCH   1  17
ATOM     17  C   UNL d   1      13.274  12.497  -4.352  0.00  0.00     0.302 C 
ATOM     18  O   UNL d   1      12.794  11.900  -4.018  0.00  0.00    -0.259 OA
BRANCH  17  19
ATOM     19  O   UNL d   1      13.482  12.464  -5.178  0.00  0.00    -0.271 OA
BRANCH  19  20
ATOM     20  C   UNL d   1      13.336  11.779  -5.615  0.00  0.00     0.126 C 
ATOM     21  C   UNL d   1      12.896  11.840  -6.308  0.00  0.00     0.029 C 
ENDBRANCH  19  20
ENDBRANCH  17  19
ENDBRANCH   1  17
BRANCH   4  22
ATOM     22  C   UNL d   1      13.800  15.194  -3.450  0.00  0.00     0.306 C 
ATOM     23  O   UNL d   1      13.507  15.620  -4.065  0.00  0.00    -0.258 OA
BRANCH  22  24
ATOM     24  O   UNL d   1      14.113  15.542  -2.776  0.00  0.00    -0.271 OA
BRANCH  24  25
ATOM     25  C   UNL d   1      14.348  16.357  -2.815  0.00  0.00     0.126 C 
ATOM     26  C   UNL d   1      15.062  16.573  -2.513  0.00  0.00     0.029 C 
ENDBRANCH  24  25
ENDBRANCH  22  24
ENDBRANCH   4  22
TORSDOF 9
ENDMDL
