MODEL 1
REMARK VINA RESULT:      -5.7      0.000      0.000
REMARK  3 active torsions:
REMARK  status: ('A' for Active; 'I' for Inactive)
REMARK    1  A    between atoms: N_2  and  C_1 
REMARK    2  A    between atoms: N_3  and  C_1 
REMARK       I    between atoms: C_4  and  N_3 
REMARK    3  A    between atoms: C_9  and  C_4 
ROOT
ATOM      1  C   UNL d   1     -41.490-122.312 -52.426  0.00  0.00     0.209 C 
ATOM      2  S   UNL d   1     -41.156-121.570 -52.357  0.00  0.00    -0.038 SA
ENDROOT
BRANCH   1   3
ATOM      3  N   UNL d   1     -41.493-122.690 -53.152  0.00  0.00    -0.282 N 
ATOM      4  C   UNL d   1     -41.861-122.334 -53.802  0.00  0.00     0.066 A 
ATOM      5  C   UNL d   1     -41.859-122.721 -54.529  0.00  0.00     0.016 A 
ATOM      6  C   UNL d   1     -42.227-121.597 -53.721  0.00  0.00     0.018 A 
ATOM      7  C   UNL d   1     -42.222-122.375 -55.180  0.00  0.00     0.001 A 
ATOM      8  C   UNL d   1     -41.489-123.468 -54.611  0.00  0.00     0.003 A 
ATOM      9  C   UNL d   1     -42.584-121.647 -55.100  0.00  0.00     0.000 A 
ATOM     10  C   UNL d   1     -42.586-121.257 -54.369  0.00  0.00     0.002 A 
ATOM     11  C   UNL d   1     -41.125-123.817 -53.963  0.00  0.00     0.019 A 
ATOM     12  C   UNL d   1     -41.123-123.436 -53.234  0.00  0.00     0.082 A 
ENDBRANCH   1   3
BRANCH   1  13
ATOM     13  N   UNL d   1     -41.820-122.673 -51.761  0.00  0.00    -0.180 NA
ATOM     14  C   UNL d   1     -41.631-122.391 -51.002  0.00  0.00     0.281 C 
ATOM     15  O   UNL d   1     -41.124-121.767 -50.918  0.00  0.00    -0.265 OA
BRANCH  14  16
ATOM     16  C   UNL d   1     -41.969-122.763 -50.346  0.00  0.00     0.058 A 
ATOM     17  C   UNL d   1     -41.541-123.289 -49.873  0.00  0.00     0.005 A 
ATOM     18  C   UNL d   1     -41.881-123.655 -49.224  0.00  0.00     0.000 A 
ATOM     19  C   UNL d   1     -42.681-123.493 -49.034  0.00  0.00     0.000 A 
ATOM     20  C   UNL d   1     -43.108-122.974 -49.497  0.00  0.00     0.000 A 
ATOM     21  C   UNL d   1     -42.767-122.594 -50.166  0.00  0.00     0.005 A 
ENDBRANCH  14  16
ENDBRANCH   1  13
TORSDOF 3
ENDMDL
MODEL 2
REMARK VINA RESULT:      -5.0      0.779      4.073
REMARK  3 active torsions:
REMARK  status: ('A' for Active; 'I' for Inactive)
REMARK    1  A    between atoms: N_2  and  C_1 
REMARK    2  A    between atoms: N_3  and  C_1 
REMARK       I    between atoms: C_4  and  N_3 
REMARK    3  A    between atoms: C_9  and  C_4 
ROOT
ATOM      1  C   UNL d   1     -41.715-122.129 -51.580  0.00  0.00     0.209 C 
ATOM      2  S   UNL d   1     -41.540-121.349 -51.408  0.00  0.00    -0.038 SA
ENDROOT
BRANCH   1   3
ATOM      3  N   UNL d   1     -41.734-122.683 -50.978  0.00  0.00    -0.282 N 
ATOM      4  C   UNL d   1     -42.356-122.680 -50.433  0.00  0.00     0.066 A 
ATOM      5  C   UNL d   1     -42.367-123.242 -49.830  0.00  0.00     0.016 A 
ATOM      6  C   UNL d   1     -42.961-122.119 -50.493  0.00  0.00     0.018 A 
ATOM      7  C   UNL d   1     -42.981-123.247 -49.284  0.00  0.00     0.001 A 
ATOM      8  C   UNL d   1     -41.755-123.811 -49.770  0.00  0.00     0.003 A 
ATOM      9  C   UNL d   1     -43.578-122.693 -49.343  0.00  0.00     0.000 A 
ATOM     10  C   UNL d   1     -43.568-122.127 -49.949  0.00  0.00     0.002 A 
ATOM     11  C   UNL d   1     -41.140-123.810 -50.313  0.00  0.00     0.019 A 
ATOM     12  C   UNL d   1     -41.123-123.251 -50.918  0.00  0.00     0.082 A 
ENDBRANCH   1   3
BRANCH   1  13
ATOM     13  N   UNL d   1     -41.871-122.347 -52.360  0.00  0.00    -0.180 NA
ATOM     14  C   UNL d   1     -41.577-121.884 -52.985  0.00  0.00     0.281 C 
ATOM     15  O   UNL d   1     -41.140-121.223 -52.827  0.00  0.00    -0.265 OA
BRANCH  14  16
ATOM     16  C   UNL d   1     -41.741-122.116 -53.761  0.00  0.00     0.058 A 
ATOM     17  C   UNL d   1     -41.354-122.754 -54.118  0.00  0.00     0.005 A 
ATOM     18  C   UNL d   1     -41.521-122.980 -54.887  0.00  0.00     0.000 A 
ATOM     19  C   UNL d   1     -42.096-122.555 -55.323  0.00  0.00     0.000 A 
ATOM     20  C   UNL d   1     -42.481-121.925 -54.977  0.00  0.00     0.000 A 
ATOM     21  C   UNL d   1     -42.316-121.686 -54.187  0.00  0.00     0.005 A 
ENDBRANCH  14  16
ENDBRANCH   1  13
TORSDOF 3
ENDMDL
