MODEL 1
REMARK VINA RESULT:      40.5      0.000      0.000
REMARK  3 active torsions:
REMARK  status: ('A' for Active; 'I' for Inactive)
REMARK    1  A    between atoms: N_4  and  C_1 
REMARK    2  A    between atoms: C_9  and  C_3 
REMARK    3  A    between atoms: C_7  and  N_4 
ROOT
ATOM      1  C   UNL d   1     -55.127-102.677 -39.009  0.00  0.00     0.196 A 
ATOM      2  N   UNL d   1     -54.712-102.547 -39.737  0.00  0.00    -0.221 NA
ATOM      3  C   UNL d   1     -55.271-102.378 -40.280  0.00  0.00     0.090 A 
ATOM      4  S   UNL d   1     -55.917-102.586 -39.117  0.00  0.00    -0.046 SA
ATOM      5  C   UNL d   1     -56.025-102.395 -39.924  0.00  0.00     0.058 A 
ENDROOT
BRANCH   1   6
ATOM      6  N   UNL d   1     -54.796-102.879 -38.235  0.00  0.00    -0.202 NA
BRANCH   6   7
ATOM      7  C   UNL d   1     -54.821-102.319 -37.616  0.00  0.00     0.165 A 
ATOM      8  N   UNL d   1     -54.964-102.703 -36.888  0.00  0.00    -0.225 NA
ATOM      9  C   UNL d   1     -55.029-102.337 -36.130  0.00  0.00     0.101 A 
ATOM     10  C   UNL d   1     -54.973-101.557 -35.925  0.00  0.00     0.021 A 
ATOM     11  C   UNL d   1     -54.831-100.903 -36.429  0.00  0.00     0.002 A 
ATOM     12  C   UNL d   1     -54.716-100.881 -37.237  0.00  0.00     0.003 A 
ATOM     13  C   UNL d   1     -54.712-101.528 -37.777  0.00  0.00     0.039 A 
ENDBRANCH   6   7
ENDBRANCH   1   6
BRANCH   3  14
ATOM     14  C   UNL d   1     -55.161-102.207 -41.075  0.00  0.00     0.018 A 
ATOM     15  C   UNL d   1     -55.031-101.433 -41.306  0.00  0.00     0.002 A 
ATOM     16  C   UNL d   1     -54.922-101.255 -42.096  0.00  0.00     0.007 A 
ATOM     17  C   UNL d   1     -54.940-101.861 -42.680  0.00  0.00     0.035 A 
ATOM     18  C   UNL d   1     -55.073-102.647 -42.441  0.00  0.00     0.007 A 
ATOM     19 BR   UNL d   1     -54.835-101.731 -43.488  0.00  0.00    -0.049 Br
ATOM     20  C   UNL d   1     -55.182-102.817 -41.647  0.00  0.00     0.002 A 
ENDBRANCH   3  14
TORSDOF 3
ENDMDL
