MODEL 1
REMARK VINA RESULT:      18.8      0.000      0.000
REMARK  5 active torsions:
REMARK  status: ('A' for Active; 'I' for Inactive)
REMARK    1  A    between atoms: C_8  and  C_1 
REMARK    2  A    between atoms: N_4  and  C_2 
REMARK       I    between atoms: C_6  and  N_4 
REMARK    3  A    between atoms: C_9  and  C_6 
REMARK    4  A    between atoms: O_20  and  C_15 
REMARK    5  A    between atoms: C_21  and  O_20 
ROOT
ATOM      1  C   UNL d   1      46.222 -18.527  42.435  0.00  0.00     0.177 A 
ATOM      2  C   UNL d   1      46.334 -18.228  43.196  0.00  0.00     0.114 A 
ATOM      3  O   UNL d   1      46.252 -19.360  42.472  0.00  0.00    -0.301 OA
ATOM      4  C   UNL d   1      46.435 -18.863  43.710  0.00  0.00     0.043 A 
ATOM      5  C   UNL d   1      46.382 -19.575  43.253  0.00  0.00     0.102 A 
ATOM      6  C   UNL d   1      46.565 -18.904  44.519  0.00  0.00     0.004 A 
ATOM      7  C   UNL d   1      46.463 -20.299  43.628  0.00  0.00     0.025 A 
ATOM      8  C   UNL d   1      46.647 -19.638  44.900  0.00  0.00     0.000 A 
ATOM      9  C   UNL d   1      46.597 -20.329  44.464  0.00  0.00     0.002 A 
ENDROOT
BRANCH   2  10
ATOM     10  N   UNL d   1      46.341 -17.402  43.390  0.00  0.00    -0.206 NA
ATOM     11  C   UNL d   1      45.742 -17.090  43.867  0.00  0.00     0.279 C 
ATOM     12  O   UNL d   1      45.137 -17.564  44.157  0.00  0.00    -0.265 OA
BRANCH  11  13
ATOM     13  C   UNL d   1      45.749 -16.285  44.056  0.00  0.00     0.058 A 
ATOM     14  C   UNL d   1      46.332 -15.813  43.755  0.00  0.00     0.007 A 
ATOM     15  C   UNL d   1      46.339 -14.991  43.949  0.00  0.00     0.025 A 
ATOM     16  C   UNL d   1      45.755 -14.687  44.438  0.00  0.00     0.100 A 
ATOM     17  C   UNL d   1      45.151 -15.170  44.751  0.00  0.00     0.025 A 
ATOM     18  C   UNL d   1      45.144 -15.992  44.557  0.00  0.00     0.007 A 
BRANCH  16  19
ATOM     19  O   UNL d   1      45.762 -13.866  44.631  0.00  0.00    -0.305 OA
BRANCH  19  20
ATOM     20  C   UNL d   1      45.678 -13.301  44.037  0.00  0.00     0.123 C 
ATOM     21  C   UNL d   1      45.391 -12.556  44.217  0.00  0.00     0.029 C 
ENDBRANCH  19  20
ENDBRANCH  16  19
ENDBRANCH  11  13
ENDBRANCH   2  10
BRANCH   1  22
ATOM     22  C   UNL d   1      46.102 -18.054  41.771  0.00  0.00     0.321 C 
ATOM     23  O   UNL d   1      45.432 -18.184  41.280  0.00  0.00    -0.261 OA
ATOM     24  N   UNL d   1      46.643 -17.444  41.581  0.00  0.00    -0.101 N 
ENDBRANCH   1  22
TORSDOF 5
ENDMDL
MODEL 2
REMARK VINA RESULT:      19.9      1.235      2.096
REMARK  5 active torsions:
REMARK  status: ('A' for Active; 'I' for Inactive)
REMARK    1  A    between atoms: C_8  and  C_1 
REMARK    2  A    between atoms: N_4  and  C_2 
REMARK       I    between atoms: C_6  and  N_4 
REMARK    3  A    between atoms: C_9  and  C_6 
REMARK    4  A    between atoms: O_20  and  C_15 
REMARK    5  A    between atoms: C_21  and  O_20 
ROOT
ATOM      1  C   UNL d   1      46.150 -19.733  43.481  0.00  0.00     0.177 A 
ATOM      2  C   UNL d   1      46.258 -18.988  43.141  0.00  0.00     0.114 A 
ATOM      3  O   UNL d   1      46.215 -20.308  42.880  0.00  0.00    -0.301 OA
ATOM      4  C   UNL d   1      46.390 -19.090  42.334  0.00  0.00     0.043 A 
ATOM      5  C   UNL d   1      46.362 -19.922  42.173  0.00  0.00     0.102 A 
ATOM      6  C   UNL d   1      46.531 -18.558  41.726  0.00  0.00     0.004 A 
ATOM      7  C   UNL d   1      46.477 -20.184  41.405  0.00  0.00     0.025 A 
ATOM      8  C   UNL d   1      46.647 -18.823  40.948  0.00  0.00     0.000 A 
ATOM      9  C   UNL d   1      46.621 -19.625  40.784  0.00  0.00     0.002 A 
ENDROOT
BRANCH   2  10
ATOM     10  N   UNL d   1      46.233 -18.257  43.570  0.00  0.00    -0.206 NA
ATOM     11  C   UNL d   1      45.787 -17.626  43.276  0.00  0.00     0.279 C 
ATOM     12  O   UNL d   1      45.365 -17.692  42.575  0.00  0.00    -0.265 OA
BRANCH  11  13
ATOM     13  C   UNL d   1      45.763 -16.913  43.694  0.00  0.00     0.058 A 
ATOM     14  C   UNL d   1      46.453 -16.516  43.839  0.00  0.00     0.007 A 
ATOM     15  C   UNL d   1      46.428 -15.788  44.266  0.00  0.00     0.025 A 
ATOM     16  C   UNL d   1      45.707 -15.497  44.526  0.00  0.00     0.100 A 
ATOM     17  C   UNL d   1      44.992 -15.903  44.380  0.00  0.00     0.025 A 
ATOM     18  C   UNL d   1      45.017 -16.632  43.952  0.00  0.00     0.007 A 
BRANCH  16  19
ATOM     19  O   UNL d   1      45.682 -14.770  44.953  0.00  0.00    -0.305 OA
BRANCH  19  20
ATOM     20  C   UNL d   1      45.289 -14.119  44.636  0.00  0.00     0.123 C 
ATOM     21  C   UNL d   1      45.677 -13.402  44.560  0.00  0.00     0.029 C 
ENDBRANCH  19  20
ENDBRANCH  16  19
ENDBRANCH  11  13
ENDBRANCH   2  10
BRANCH   1  22
ATOM     22  C   UNL d   1      46.004 -19.852  44.283  0.00  0.00     0.321 C 
ATOM     23  O   UNL d   1      46.581 -19.625  44.851  0.00  0.00    -0.261 OA
ATOM     24  N   UNL d   1      45.285 -20.197  44.538  0.00  0.00    -0.101 N 
ENDBRANCH   1  22
TORSDOF 5
ENDMDL
