MODEL 1
REMARK VINA RESULT:      -9.4      0.000      0.000
REMARK  4 active torsions:
REMARK  status: ('A' for Active; 'I' for Inactive)
REMARK    1  A    between atoms: N_4  and  S_1 
REMARK    2  A    between atoms: C_6  and  S_1 
REMARK    3  A    between atoms: N_3  and  C_2 
REMARK    4  A    between atoms: C_7  and  N_4 
ROOT
ATOM      1  S   UNL d   1      52.820  32.354  52.922  0.00  0.00     0.285 S 
ATOM      2  O   UNL d   1      52.019  32.240  53.184  0.00  0.00    -0.198 OA
ATOM      3  O   UNL d   1      53.607  32.429  52.646  0.00  0.00    -0.198 OA
ENDROOT
BRANCH   1   4
ATOM      4  N   UNL d   1      52.799  31.581  52.564  0.00  0.00    -0.158 NA
BRANCH   4   5
ATOM      5  C   UNL d   1      52.929  30.895  53.030  0.00  0.00     0.094 A 
ATOM      6  C   UNL d   1      52.264  30.466  53.296  0.00  0.00     0.023 A 
ATOM      7  C   UNL d   1      52.394  29.779  53.763  0.00  0.00     0.044 A 
ATOM      8  C   UNL d   1      53.183  29.563  53.936  0.00  0.00     0.196 A 
ATOM      9  C   UNL d   1      53.826  29.989  53.672  0.00  0.00     0.044 A 
ATOM     10  O   UNL d   1      53.314  28.872  54.406  0.00  0.00    -0.287 OA
ATOM     11  C   UNL d   1      53.696  30.676  53.204  0.00  0.00     0.023 A 
ENDBRANCH   4   5
ENDBRANCH   1   4
BRANCH   1  12
ATOM     12  C   UNL d   1      52.846  33.107  53.268  0.00  0.00     0.107 A 
ATOM     13  C   UNL d   1      53.351  33.229  53.909  0.00  0.00     0.037 A 
ATOM     14  C   UNL d   1      53.374  33.978  54.252  0.00  0.00     0.138 A 
ATOM     15  C   UNL d   1      52.911  34.582  53.965  0.00  0.00     0.080 A 
ATOM     16  C   UNL d   1      52.407  34.460  53.324  0.00  0.00     0.014 A 
ATOM     17 CL   UNL d   1      52.939  35.339  54.316  0.00  0.00    -0.081 Cl
ATOM     18  C   UNL d   1      52.383  33.710  52.982  0.00  0.00     0.014 A 
BRANCH  14  19
ATOM     19  N   UNL d   1      53.883  34.108  54.900  0.00  0.00    -0.113 N 
ATOM     20  O   UNL d   1      54.620  34.459  54.788  0.00  0.00    -0.532 OA
ATOM     21  O   UNL d   1      53.659  33.891  55.648  0.00  0.00    -0.532 OA
ENDBRANCH  14  19
ENDBRANCH   1  12
TORSDOF 4
ENDMDL
MODEL 2
REMARK VINA RESULT:      -8.9      1.830      4.130
REMARK  4 active torsions:
REMARK  status: ('A' for Active; 'I' for Inactive)
REMARK    1  A    between atoms: N_4  and  S_1 
REMARK    2  A    between atoms: C_6  and  S_1 
REMARK    3  A    between atoms: N_3  and  C_2 
REMARK    4  A    between atoms: C_7  and  N_4 
ROOT
ATOM      1  S   UNL d   1      53.923  32.373  53.862  0.00  0.00     0.285 S 
ATOM      2  O   UNL d   1      53.695  32.251  54.673  0.00  0.00    -0.198 OA
ATOM      3  O   UNL d   1      54.167  32.527  53.077  0.00  0.00    -0.198 OA
ENDROOT
BRANCH   1   4
ATOM      4  N   UNL d   1      54.335  33.080  54.098  0.00  0.00    -0.158 NA
BRANCH   4   5
ATOM      5  C   UNL d   1      53.910  33.792  54.232  0.00  0.00     0.094 A 
ATOM      6  C   UNL d   1      53.760  34.020  55.022  0.00  0.00     0.023 A 
ATOM      7  C   UNL d   1      53.334  34.733  55.156  0.00  0.00     0.044 A 
ATOM      8  C   UNL d   1      53.085  35.175  54.493  0.00  0.00     0.196 A 
ATOM      9  C   UNL d   1      53.238  34.944  53.725  0.00  0.00     0.044 A 
ATOM     10  O   UNL d   1      52.658  35.892  54.628  0.00  0.00    -0.287 OA
ATOM     11  C   UNL d   1      53.663  34.231  53.591  0.00  0.00     0.023 A 
ENDBRANCH   4   5
ENDBRANCH   1   4
BRANCH   1  12
ATOM     12  C   UNL d   1      53.524  31.685  53.627  0.00  0.00     0.107 A 
ATOM     13  C   UNL d   1      53.709  30.974  54.000  0.00  0.00     0.037 A 
ATOM     14  C   UNL d   1      53.310  30.292  53.765  0.00  0.00     0.138 A 
ATOM     15  C   UNL d   1      52.748  30.320  53.179  0.00  0.00     0.080 A 
ATOM     16  C   UNL d   1      52.561  31.032  52.805  0.00  0.00     0.014 A 
ATOM     17 CL   UNL d   1      52.346  29.627  52.944  0.00  0.00    -0.081 Cl
ATOM     18  C   UNL d   1      52.961  31.713  53.041  0.00  0.00     0.014 A 
BRANCH  14  19
ATOM     19  N   UNL d   1      53.494  29.569  54.138  0.00  0.00    -0.113 N 
ATOM     20  O   UNL d   1      52.999  29.264  54.722  0.00  0.00    -0.532 OA
ATOM     21  O   UNL d   1      54.162  29.157  53.932  0.00  0.00    -0.532 OA
ENDBRANCH  14  19
ENDBRANCH   1  12
TORSDOF 4
ENDMDL
