MODEL 1
REMARK VINA RESULT:      82.4      0.000      0.000
REMARK  5 active torsions:
REMARK  status: ('A' for Active; 'I' for Inactive)
REMARK    1  A    between atoms: C_2  and  S_1 
REMARK    2  A    between atoms: N_3  and  S_1 
REMARK    3  A    between atoms: C_5  and  C_6 
REMARK       I    between atoms: N_10  and  C_5 
REMARK    4  A    between atoms: C_25  and  N_10 
REMARK    5  A    between atoms: C_24  and  C_25 
ROOT
ATOM      1  C   UNL d   1     -51.412  24.782  33.616  0.00  0.00     0.104 A 
ATOM      2  C   UNL d   1     -52.196  24.627  33.808  0.00  0.00     0.018 A 
ATOM      3  C   UNL d   1     -52.455  23.848  33.887  0.00  0.00     0.059 A 
ATOM      4  C   UNL d   1     -50.879  24.159  33.501  0.00  0.00     0.012 A 
ATOM      5  C   UNL d   1     -51.929  23.220  33.774  0.00  0.00     0.005 A 
ATOM      6  C   UNL d   1     -51.139  23.379  33.581  0.00  0.00     0.001 A 
ATOM      7  C   UNL d   1     -50.079  24.319  33.306  0.00  0.00     0.001 C 
ENDROOT
BRANCH   3   8
ATOM      8  C   UNL d   1     -53.237  23.689  34.078  0.00  0.00     0.279 C 
ATOM      9  N   UNL d   1     -53.462  23.629  34.873  0.00  0.00    -0.206 NA
ATOM     10  O   UNL d   1     -53.792  23.592  33.484  0.00  0.00    -0.265 OA
BRANCH   9  11
ATOM     11  C   UNL d   1     -52.908  23.726  35.467  0.00  0.00     0.102 C 
BRANCH  11  12
ATOM     12  C   UNL d   1     -53.113  24.140  36.166  0.00  0.00     0.021 A 
ATOM     13  C   UNL d   1     -52.647  24.083  36.846  0.00  0.00     0.028 A 
ATOM     14  C   UNL d   1     -52.861  24.494  37.523  0.00  0.00     0.119 A 
ATOM     15  O   UNL d   1     -52.515  24.547  38.276  0.00  0.00    -0.300 OA
ATOM     16  C   UNL d   1     -53.543  24.968  37.529  0.00  0.00     0.119 A 
ATOM     17  C   UNL d   1     -52.975  25.043  38.733  0.00  0.00     0.304 A 
ATOM     18  O   UNL d   1     -53.613  25.304  38.270  0.00  0.00    -0.300 OA
ATOM     19  C   UNL d   1     -54.001  25.019  36.847  0.00  0.00     0.026 A 
ATOM     20  C   UNL d   1     -53.787  24.608  36.171  0.00  0.00     0.004 A 
ENDBRANCH  11  12
ENDBRANCH   9  11
ENDBRANCH   3   8
BRANCH   1  21
ATOM     21  S   UNL d   1     -51.160  25.566  33.539  0.00  0.00     0.272 S 
ATOM     22  O   UNL d   1     -51.931  25.825  33.678  0.00  0.00    -0.200 OA
ATOM     23  O   UNL d   1     -50.391  25.303  33.401  0.00  0.00    -0.200 OA
BRANCH  21  24
ATOM     24  N   UNL d   1     -50.910  26.345  33.462  0.00  0.00    -0.225 N 
ATOM     25  C   UNL d   1     -50.112  26.513  33.394  0.00  0.00     0.118 A 
ATOM     26  C   UNL d   1     -49.852  27.293  33.317  0.00  0.00     0.142 A 
ATOM     27  O   UNL d   1     -50.408  27.908  33.308  0.00  0.00    -0.300 OA
ATOM     28  C   UNL d   1     -51.206  27.740  33.376  0.00  0.00     0.142 A 
ATOM     29  C   UNL d   1     -51.466  26.960  33.454  0.00  0.00     0.118 A 
ENDBRANCH  21  24
ENDBRANCH   1  21
TORSDOF 5
ENDMDL
MODEL 2
REMARK VINA RESULT:      84.2      1.845      3.438
REMARK  5 active torsions:
REMARK  status: ('A' for Active; 'I' for Inactive)
REMARK    1  A    between atoms: C_2  and  S_1 
REMARK    2  A    between atoms: N_3  and  S_1 
REMARK    3  A    between atoms: C_5  and  C_6 
REMARK       I    between atoms: N_10  and  C_5 
REMARK    4  A    between atoms: C_25  and  N_10 
REMARK    5  A    between atoms: C_24  and  C_25 
ROOT
ATOM      1  C   UNL d   1     -50.868  25.675  33.832  0.00  0.00     0.104 A 
ATOM      2  C   UNL d   1     -51.058  26.406  34.155  0.00  0.00     0.018 A 
ATOM      3  C   UNL d   1     -50.466  26.965  34.290  0.00  0.00     0.059 A 
ATOM      4  C   UNL d   1     -50.083  25.494  33.639  0.00  0.00     0.012 A 
ATOM      5  C   UNL d   1     -49.680  26.792  34.100  0.00  0.00     0.005 A 
ATOM      6  C   UNL d   1     -49.491  26.053  33.773  0.00  0.00     0.001 A 
ATOM      7  C   UNL d   1     -49.891  24.748  33.309  0.00  0.00     0.001 C 
ENDROOT
BRANCH   3   8
ATOM      8  C   UNL d   1     -50.652  27.695  34.612  0.00  0.00     0.279 C 
ATOM      9  N   UNL d   1     -50.573  27.816  35.427  0.00  0.00    -0.206 NA
ATOM     10  O   UNL d   1     -50.914  28.301  34.128  0.00  0.00    -0.265 OA
BRANCH   9  11
ATOM     11  C   UNL d   1     -50.311  27.211  35.912  0.00  0.00     0.102 C 
BRANCH  11  12
ATOM     12  C   UNL d   1     -50.641  27.114  36.676  0.00  0.00     0.021 A 
ATOM     13  C   UNL d   1     -51.310  26.643  36.794  0.00  0.00     0.028 A 
ATOM     14  C   UNL d   1     -51.620  26.559  37.548  0.00  0.00     0.119 A 
ATOM     15  O   UNL d   1     -52.272  26.133  37.838  0.00  0.00    -0.300 OA
ATOM     16  C   UNL d   1     -51.268  26.944  38.194  0.00  0.00     0.119 A 
ATOM     17  C   UNL d   1     -52.318  26.254  38.644  0.00  0.00     0.304 A 
ATOM     18  O   UNL d   1     -51.696  26.757  38.865  0.00  0.00    -0.300 OA
ATOM     19  C   UNL d   1     -50.603  27.411  38.067  0.00  0.00     0.026 A 
ATOM     20  C   UNL d   1     -50.292  27.495  37.313  0.00  0.00     0.004 A 
ENDBRANCH  11  12
ENDBRANCH   9  11
ENDBRANCH   3   8
BRANCH   1  21
ATOM     21  S   UNL d   1     -51.468  25.120  33.700  0.00  0.00     0.272 S 
ATOM     22  O   UNL d   1     -50.928  24.635  33.307  0.00  0.00    -0.200 OA
ATOM     23  O   UNL d   1     -52.003  25.608  34.094  0.00  0.00    -0.200 OA
BRANCH  21  24
ATOM     24  N   UNL d   1     -52.063  24.568  33.569  0.00  0.00    -0.225 N 
ATOM     25  C   UNL d   1     -52.842  24.812  33.521  0.00  0.00     0.118 A 
ATOM     26  C   UNL d   1     -53.446  24.265  33.390  0.00  0.00     0.142 A 
ATOM     27  O   UNL d   1     -53.256  23.463  33.306  0.00  0.00    -0.300 OA
ATOM     28  C   UNL d   1     -52.477  23.218  33.354  0.00  0.00     0.142 A 
ATOM     29  C   UNL d   1     -51.873  23.766  33.486  0.00  0.00     0.118 A 
ENDBRANCH  21  24
ENDBRANCH   1  21
TORSDOF 5
ENDMDL
