MODEL 1
REMARK VINA RESULT:      41.1      0.000      0.000
REMARK  12 active torsions:
REMARK  status: ('A' for Active; 'I' for Inactive)
REMARK    1  A    between atoms: C_18  and  N_1 
REMARK    2  A    between atoms: C_9  and  N_3 
REMARK    3  A    between atoms: C_12  and  C_9 
REMARK       I    between atoms: N_19  and  C_12 
REMARK    4  A    between atoms: C_14  and  C_22 
REMARK       I    between atoms: N_15  and  C_14 
REMARK    5  A    between atoms: C_20  and  N_15 
REMARK    6  A    between atoms: C_27  and  C_18 
REMARK    7  A    between atoms: C_23  and  N_19 
REMARK    8  A    between atoms: O_21  and  C_24 
REMARK    9  A    between atoms: C_22  and  C_29 
REMARK   10  A    between atoms: C_24  and  C_23 
REMARK   11  A    between atoms: C_30  and  C_27 
REMARK   12  A    between atoms: C_29  and  C_30 
ROOT
ATOM      1  N   UNL d   1      14.391  13.003  -0.102  0.00  0.00    -0.225 N 
ATOM      2  C   UNL d   1      14.155  13.791  -0.067  0.00  0.00     0.342 A 
ATOM      3  N   UNL d   1      14.720  14.404  -0.057  0.00  0.00    -0.253 N 
ATOM      4  C   UNL d   1      15.756  13.411  -0.117  0.00  0.00     0.102 A 
ATOM      5  C   UNL d   1      15.190  12.819  -0.127  0.00  0.00     0.276 A 
ATOM      6  C   UNL d   1      15.528  14.216  -0.082  0.00  0.00     0.080 A 
ATOM      7  S   UNL d   1      16.598  13.385  -0.137  0.00  0.00    -0.080 SA
ATOM      8  C   UNL d   1      16.220  14.692  -0.080  0.00  0.00     0.025 A 
ATOM      9  O   UNL d   1      13.356  13.991  -0.042  0.00  0.00    -0.245 OA
ATOM     10  C   UNL d   1      16.883  14.179  -0.114  0.00  0.00     0.037 A 
ATOM     11  O   UNL d   1      15.416  12.032  -0.162  0.00  0.00    -0.266 OA
ENDROOT
BRANCH   1  12
ATOM     12  C   UNL d   1      13.827  12.417  -0.112  0.00  0.00     0.087 C 
BRANCH  12  13
ATOM     13  C   UNL d   1      13.796  11.886  -0.748  0.00  0.00     0.019 C 
BRANCH  13  14
ATOM     14  C   UNL d   1      13.967  12.151  -1.509  0.00  0.00     0.002 C 
BRANCH  14  15
ATOM     15  C   UNL d   1      13.545  11.860  -2.151  0.00  0.00     0.005 C 
BRANCH  15  16
ATOM     16  C   UNL d   1      13.040  12.350  -2.573  0.00  0.00     0.062 C 
BRANCH  16  17
ATOM     17  C   UNL d   1      13.169  12.488  -3.378  0.00  0.00     0.279 C 
ATOM     18  N   UNL d   1      13.247  11.849  -3.899  0.00  0.00    -0.208 NA
ATOM     19  O   UNL d   1      13.219  13.263  -3.658  0.00  0.00    -0.265 OA
BRANCH  18  20
ATOM     20  C   UNL d   1      13.374  11.988  -4.697  0.00  0.00     0.085 A 
ATOM     21  C   UNL d   1      14.089  12.311  -4.940  0.00  0.00     0.019 A 
ATOM     22  C   UNL d   1      14.221  12.453  -5.744  0.00  0.00     0.002 A 
ATOM     23  C   UNL d   1      13.631  12.268  -6.297  0.00  0.00     0.000 A 
ATOM     24  C   UNL d   1      12.919  11.946  -6.045  0.00  0.00     0.002 A 
ATOM     25  C   UNL d   1      12.787  11.804  -5.246  0.00  0.00     0.019 A 
ENDBRANCH  18  20
ENDBRANCH  16  17
ENDBRANCH  15  16
ENDBRANCH  14  15
ENDBRANCH  13  14
ENDBRANCH  12  13
ENDBRANCH   1  12
BRANCH   3  26
ATOM     26  C   UNL d   1      14.472  15.190  -0.022  0.00  0.00     0.147 C 
BRANCH  26  27
ATOM     27  C   UNL d   1      14.871  15.770  -0.461  0.00  0.00     0.297 C 
ATOM     28  O   UNL d   1      15.491  16.192  -0.134  0.00  0.00    -0.264 OA
ATOM     29  N   UNL d   1      14.638  15.927  -1.249  0.00  0.00    -0.203 NA
BRANCH  29  30
ATOM     30  C   UNL d   1      15.038  16.511  -1.697  0.00  0.00     0.129 C 
BRANCH  30  31
ATOM     31  C   UNL d   1      15.206  16.379  -2.494  0.00  0.00     0.137 C 
BRANCH  31  32
ATOM     32  O   UNL d   1      14.898  16.876  -3.071  0.00  0.00    -0.325 OA
ATOM     33  C   UNL d   1      14.384  16.573  -3.639  0.00  0.00     0.182 C 
ENDBRANCH  31  32
ENDBRANCH  30  31
ENDBRANCH  29  30
ENDBRANCH  26  27
ENDBRANCH   3  26
TORSDOF 12
ENDMDL
MODEL 2
REMARK VINA RESULT:      41.9      2.919      6.186
REMARK  12 active torsions:
REMARK  status: ('A' for Active; 'I' for Inactive)
REMARK    1  A    between atoms: C_18  and  N_1 
REMARK    2  A    between atoms: C_9  and  N_3 
REMARK    3  A    between atoms: C_12  and  C_9 
REMARK       I    between atoms: N_19  and  C_12 
REMARK    4  A    between atoms: C_14  and  C_22 
REMARK       I    between atoms: N_15  and  C_14 
REMARK    5  A    between atoms: C_20  and  N_15 
REMARK    6  A    between atoms: C_27  and  C_18 
REMARK    7  A    between atoms: C_23  and  N_19 
REMARK    8  A    between atoms: O_21  and  C_24 
REMARK    9  A    between atoms: C_22  and  C_29 
REMARK   10  A    between atoms: C_24  and  C_23 
REMARK   11  A    between atoms: C_30  and  C_27 
REMARK   12  A    between atoms: C_29  and  C_30 
ROOT
ATOM      1  N   UNL d   1      13.146  14.384  -4.814  0.00  0.00    -0.225 N 
ATOM      2  C   UNL d   1      12.962  13.989  -4.114  0.00  0.00     0.342 A 
ATOM      3  N   UNL d   1      12.966  13.156  -4.083  0.00  0.00    -0.253 N 
ATOM      4  C   UNL d   1      13.344  13.133  -5.468  0.00  0.00     0.102 A 
ATOM      5  C   UNL d   1      13.336  13.952  -5.485  0.00  0.00     0.276 A 
ATOM      6  C   UNL d   1      13.158  12.722  -4.763  0.00  0.00     0.080 A 
ATOM      7  S   UNL d   1      13.514  12.559  -6.061  0.00  0.00    -0.080 SA
ATOM      8  C   UNL d   1      13.211  11.896  -4.911  0.00  0.00     0.025 A 
ATOM      9  O   UNL d   1      12.770  14.409  -3.432  0.00  0.00    -0.245 OA
ATOM     10  C   UNL d   1      13.432  11.795  -5.714  0.00  0.00     0.037 A 
ATOM     11  O   UNL d   1      13.518  14.353  -6.177  0.00  0.00    -0.266 OA
ENDROOT
BRANCH   1  12
ATOM     12  C   UNL d   1      13.138  15.197  -4.829  0.00  0.00     0.087 C 
BRANCH  12  13
ATOM     13  C   UNL d   1      13.788  15.609  -5.136  0.00  0.00     0.019 C 
BRANCH  13  14
ATOM     14  C   UNL d   1      13.666  16.283  -5.593  0.00  0.00     0.002 C 
BRANCH  14  15
ATOM     15  C   UNL d   1      14.234  16.875  -5.614  0.00  0.00     0.005 C 
BRANCH  15  16
ATOM     16  C   UNL d   1      14.197  17.467  -6.183  0.00  0.00     0.062 C 
BRANCH  16  17
ATOM     17  C   UNL d   1      14.353  18.252  -5.977  0.00  0.00     0.279 C 
ATOM     18  N   UNL d   1      13.944  18.867  -6.354  0.00  0.00    -0.208 NA
ATOM     19  O   UNL d   1      14.917  18.419  -5.398  0.00  0.00    -0.265 OA
BRANCH  18  20
ATOM     20  C   UNL d   1      14.102  19.645  -6.148  0.00  0.00     0.085 A 
ATOM     21  C   UNL d   1      13.480  20.175  -6.075  0.00  0.00     0.019 A 
ATOM     22  C   UNL d   1      13.635  20.961  -5.867  0.00  0.00     0.002 A 
ATOM     23  C   UNL d   1      14.417  21.204  -5.735  0.00  0.00     0.000 A 
ATOM     24  C   UNL d   1      15.033  20.667  -5.811  0.00  0.00     0.002 A 
ATOM     25  C   UNL d   1      14.880  19.886  -6.017  0.00  0.00     0.019 A 
ENDBRANCH  18  20
ENDBRANCH  16  17
ENDBRANCH  15  16
ENDBRANCH  14  15
ENDBRANCH  13  14
ENDBRANCH  12  13
ENDBRANCH   1  12
BRANCH   3  26
ATOM     26  C   UNL d   1      12.780  12.773  -3.376  0.00  0.00     0.147 C 
BRANCH  26  27
ATOM     27  C   UNL d   1      13.374  12.381  -2.949  0.00  0.00     0.297 C 
ATOM     28  O   UNL d   1      13.826  11.796  -3.298  0.00  0.00    -0.264 OA
ATOM     29  N   UNL d   1      13.513  12.586  -2.149  0.00  0.00    -0.203 NA
BRANCH  29  30
ATOM     30  C   UNL d   1      14.110  12.194  -1.714  0.00  0.00     0.129 C 
BRANCH  30  31
ATOM     31  C   UNL d   1      14.647  12.630  -1.263  0.00  0.00     0.137 C 
BRANCH  31  32
ATOM     32  O   UNL d   1      15.387  12.322  -1.086  0.00  0.00    -0.325 OA
ATOM     33  C   UNL d   1      15.743  12.499  -0.364  0.00  0.00     0.182 C 
ENDBRANCH  31  32
ENDBRANCH  30  31
ENDBRANCH  29  30
ENDBRANCH  26  27
ENDBRANCH   3  26
TORSDOF 12
ENDMDL
