MODEL 1
REMARK VINA RESULT:      -3.3      0.000      0.000
REMARK  2 active torsions:
REMARK  status: ('A' for Active; 'I' for Inactive)
REMARK    1  A    between atoms: C_6  and  C_4 
REMARK    2  A    between atoms: C_7  and  C_5 
ROOT
ATOM      1  O   UNL d   1      32.685  19.981 -22.708  0.00  0.00    -0.268 OA
ATOM      2  N   UNL d   1      33.241  19.573 -21.558  0.00  0.00    -0.121 NA
ATOM      3  N   UNL d   1      33.241  18.929 -22.082  0.00  0.00    -0.121 NA
ATOM      4  C   UNL d   1      32.898  19.184 -22.789  0.00  0.00     0.204 A 
ATOM      5  C   UNL d   1      32.902  20.210 -21.942  0.00  0.00     0.204 A 
ENDROOT
BRANCH   4   6
ATOM      6  C   UNL d   1      32.783  18.723 -23.471  0.00  0.00     0.046 A 
ATOM      7  C   UNL d   1      33.191  18.897 -24.163  0.00  0.00     0.024 A 
ATOM      8  C   UNL d   1      33.075  18.442 -24.830  0.00  0.00     0.099 A 
ATOM      9  N   UNL d   1      32.548  17.807 -24.812  0.00  0.00    -0.242 NA
ATOM     10  C   UNL d   1      32.137  17.626 -24.127  0.00  0.00     0.099 A 
ATOM     11  C   UNL d   1      32.256  18.088 -23.453  0.00  0.00     0.024 A 
ENDBRANCH   4   6
BRANCH   5  12
ATOM     12  C   UNL d   1      32.790  20.971 -21.622  0.00  0.00     0.043 A 
ATOM     13  C   UNL d   1      32.289  21.079 -20.979  0.00  0.00     0.004 A 
ATOM     14  C   UNL d   1      32.179  21.827 -20.666  0.00  0.00     0.000 A 
ATOM     15  C   UNL d   1      32.573  22.473 -20.997  0.00  0.00     0.000 A 
ATOM     16  C   UNL d   1      33.075  22.366 -21.641  0.00  0.00     0.000 A 
ATOM     17  C   UNL d   1      33.184  21.611 -21.956  0.00  0.00     0.004 A 
ENDBRANCH   5  12
TORSDOF 2
ENDMDL
MODEL 2
REMARK VINA RESULT:      -3.2      0.852      4.029
REMARK  2 active torsions:
REMARK  status: ('A' for Active; 'I' for Inactive)
REMARK    1  A    between atoms: C_6  and  C_4 
REMARK    2  A    between atoms: C_7  and  C_5 
ROOT
ATOM      1  O   UNL d   1      32.748  20.126 -22.542  0.00  0.00    -0.268 OA
ATOM      2  N   UNL d   1      33.240  19.081 -21.862  0.00  0.00    -0.121 NA
ATOM      3  N   UNL d   1      33.221  19.732 -21.347  0.00  0.00    -0.121 NA
ATOM      4  C   UNL d   1      32.917  20.374 -21.769  0.00  0.00     0.204 A 
ATOM      5  C   UNL d   1      32.952  19.324 -22.587  0.00  0.00     0.204 A 
ENDROOT
BRANCH   4   6
ATOM      6  C   UNL d   1      32.799  21.142 -21.474  0.00  0.00     0.046 A 
ATOM      7  C   UNL d   1      32.245  21.278 -20.883  0.00  0.00     0.024 A 
ATOM      8  C   UNL d   1      32.131  22.033 -20.596  0.00  0.00     0.099 A 
ATOM      9  N   UNL d   1      32.572  22.661 -20.899  0.00  0.00    -0.242 NA
ATOM     10  C   UNL d   1      33.127  22.535 -21.489  0.00  0.00     0.099 A 
ATOM     11  C   UNL d   1      33.239  21.770 -21.777  0.00  0.00     0.024 A 
ENDBRANCH   4   6
BRANCH   5  12
ATOM     12  C   UNL d   1      32.873  18.850 -23.267  0.00  0.00     0.043 A 
ATOM     13  C   UNL d   1      33.211  19.088 -23.978  0.00  0.00     0.004 A 
ATOM     14  C   UNL d   1      33.132  18.621 -24.646  0.00  0.00     0.000 A 
ATOM     15  C   UNL d   1      32.714  17.910 -24.602  0.00  0.00     0.000 A 
ATOM     16  C   UNL d   1      32.376  17.671 -23.891  0.00  0.00     0.000 A 
ATOM     17  C   UNL d   1      32.456  18.143 -23.219  0.00  0.00     0.004 A 
ENDBRANCH   5  12
TORSDOF 2
ENDMDL
MODEL 3
REMARK VINA RESULT:      -3.1      2.766      4.271
REMARK  2 active torsions:
REMARK  status: ('A' for Active; 'I' for Inactive)
REMARK    1  A    between atoms: C_6  and  C_4 
REMARK    2  A    between atoms: C_7  and  C_5 
ROOT
ATOM      1  O   UNL d   1      30.923  17.058 -23.939  0.00  0.00    -0.268 OA
ATOM      2  N   UNL d   1      32.026  16.299 -23.882  0.00  0.00    -0.121 NA
ATOM      3  N   UNL d   1      31.370  15.791 -23.882  0.00  0.00    -0.121 NA
ATOM      4  C   UNL d   1      30.692  16.263 -23.918  0.00  0.00     0.204 A 
ATOM      5  C   UNL d   1      31.752  17.068 -23.916  0.00  0.00     0.204 A 
ENDROOT
BRANCH   4   6
ATOM      6  C   UNL d   1      29.907  15.991 -23.930  0.00  0.00     0.046 A 
ATOM      7  C   UNL d   1      29.515  15.885 -24.645  0.00  0.00     0.024 A 
ATOM      8  C   UNL d   1      28.745  15.617 -24.652  0.00  0.00     0.099 A 
ATOM      9  N   UNL d   1      28.357  15.453 -23.943  0.00  0.00    -0.242 NA
ATOM     10  C   UNL d   1      28.739  15.555 -23.226  0.00  0.00     0.099 A 
ATOM     11  C   UNL d   1      29.519  15.826 -23.221  0.00  0.00     0.024 A 
ENDBRANCH   4   6
BRANCH   5  12
ATOM     12  C   UNL d   1      32.221  17.756 -23.927  0.00  0.00     0.043 A 
ATOM     13  C   UNL d   1      32.405  18.118 -24.642  0.00  0.00     0.004 A 
ATOM     14  C   UNL d   1      32.867  18.795 -24.651  0.00  0.00     0.000 A 
ATOM     15  C   UNL d   1      33.145  19.111 -23.941  0.00  0.00     0.000 A 
ATOM     16  C   UNL d   1      32.961  18.749 -23.225  0.00  0.00     0.000 A 
ATOM     17  C   UNL d   1      32.496  18.068 -23.218  0.00  0.00     0.004 A 
ENDBRANCH   5  12
TORSDOF 2
ENDMDL
MODEL 4
REMARK VINA RESULT:      -3.1      2.554      5.031
REMARK  2 active torsions:
REMARK  status: ('A' for Active; 'I' for Inactive)
REMARK    1  A    between atoms: C_6  and  C_4 
REMARK    2  A    between atoms: C_7  and  C_5 
ROOT
ATOM      1  O   UNL d   1      30.923  17.067 -23.930  0.00  0.00    -0.268 OA
ATOM      2  N   UNL d   1      31.371  15.804 -23.908  0.00  0.00    -0.121 NA
ATOM      3  N   UNL d   1      32.031  16.307 -23.908  0.00  0.00    -0.121 NA
ATOM      4  C   UNL d   1      31.751  17.084 -23.922  0.00  0.00     0.204 A 
ATOM      5  C   UNL d   1      30.699  16.269 -23.921  0.00  0.00     0.204 A 
ENDROOT
BRANCH   4   6
ATOM      6  C   UNL d   1      32.217  17.772 -23.927  0.00  0.00     0.046 A 
ATOM      7  C   UNL d   1      32.491  18.093 -23.222  0.00  0.00     0.024 A 
ATOM      8  C   UNL d   1      32.948  18.768 -23.232  0.00  0.00     0.099 A 
ATOM      9  N   UNL d   1      33.136  19.131 -23.948  0.00  0.00    -0.242 NA
ATOM     10  C   UNL d   1      32.868  18.818 -24.657  0.00  0.00     0.099 A 
ATOM     11  C   UNL d   1      32.406  18.134 -24.644  0.00  0.00     0.024 A 
ENDBRANCH   4   6
BRANCH   5  12
ATOM     12  C   UNL d   1      29.913  15.994 -23.925  0.00  0.00     0.043 A 
ATOM     13  C   UNL d   1      29.531  15.825 -23.216  0.00  0.00     0.004 A 
ATOM     14  C   UNL d   1      28.758  15.555 -23.222  0.00  0.00     0.000 A 
ATOM     15  C   UNL d   1      28.364  15.453 -23.940  0.00  0.00     0.000 A 
ATOM     16  C   UNL d   1      28.746  15.621 -24.650  0.00  0.00     0.000 A 
ATOM     17  C   UNL d   1      29.525  15.894 -24.643  0.00  0.00     0.004 A 
ENDBRANCH   5  12
TORSDOF 2
ENDMDL
MODEL 5
REMARK VINA RESULT:      -3.0      2.978      4.402
REMARK  2 active torsions:
REMARK  status: ('A' for Active; 'I' for Inactive)
REMARK    1  A    between atoms: C_6  and  C_4 
REMARK    2  A    between atoms: C_7  and  C_5 
ROOT
ATOM      1  O   UNL d   1      32.649  22.485 -19.408  0.00  0.00    -0.268 OA
ATOM      2  N   UNL d   1      33.239  23.689 -19.401  0.00  0.00    -0.121 NA
ATOM      3  N   UNL d   1      33.240  23.411 -20.183  0.00  0.00    -0.121 NA
ATOM      4  C   UNL d   1      32.876  22.670 -20.183  0.00  0.00     0.204 A 
ATOM      5  C   UNL d   1      32.879  23.125 -18.932  0.00  0.00     0.204 A 
ENDROOT
BRANCH   4   6
ATOM      6  C   UNL d   1      32.755  22.184 -20.847  0.00  0.00     0.046 A 
ATOM      7  C   UNL d   1      32.760  22.506 -21.603  0.00  0.00     0.024 A 
ATOM      8  C   UNL d   1      32.641  22.026 -22.251  0.00  0.00     0.099 A 
ATOM      9  N   UNL d   1      32.515  21.217 -22.150  0.00  0.00    -0.242 NA
ATOM     10  C   UNL d   1      32.508  20.887 -21.400  0.00  0.00     0.099 A 
ATOM     11  C   UNL d   1      32.629  21.375 -20.745  0.00  0.00     0.024 A 
ENDBRANCH   4   6
BRANCH   5  12
ATOM     12  C   UNL d   1      32.759  23.175 -18.110  0.00  0.00     0.043 A 
ATOM     13  C   UNL d   1      33.241  22.751 -17.596  0.00  0.00     0.004 A 
ATOM     14  C   UNL d   1      33.121  22.801 -16.787  0.00  0.00     0.000 A 
ATOM     15  C   UNL d   1      32.516  23.278 -16.491  0.00  0.00     0.000 A 
ATOM     16  C   UNL d   1      32.033  23.702 -17.005  0.00  0.00     0.000 A 
ATOM     17  C   UNL d   1      32.154  23.651 -17.819  0.00  0.00     0.004 A 
ENDBRANCH   5  12
TORSDOF 2
ENDMDL
MODEL 6
REMARK VINA RESULT:      -2.8      1.099      4.123
REMARK  2 active torsions:
REMARK  status: ('A' for Active; 'I' for Inactive)
REMARK    1  A    between atoms: C_6  and  C_4 
REMARK    2  A    between atoms: C_7  and  C_5 
ROOT
ATOM      1  O   UNL d   1      32.597  18.764 -22.717  0.00  0.00    -0.268 OA
ATOM      2  N   UNL d   1      33.012  18.854 -23.989  0.00  0.00    -0.121 NA
ATOM      3  N   UNL d   1      33.221  19.559 -23.604  0.00  0.00    -0.121 NA
ATOM      4  C   UNL d   1      32.964  19.500 -22.821  0.00  0.00     0.204 A 
ATOM      5  C   UNL d   1      32.634  18.373 -23.448  0.00  0.00     0.204 A 
ENDROOT
BRANCH   4   6
ATOM      6  C   UNL d   1      33.054  20.079 -22.232  0.00  0.00     0.046 A 
ATOM      7  C   UNL d   1      33.060  20.876 -22.430  0.00  0.00     0.024 A 
ATOM      8  C   UNL d   1      33.149  21.441 -21.849  0.00  0.00     0.099 A 
ATOM      9  N   UNL d   1      33.233  21.213 -21.060  0.00  0.00    -0.242 NA
ATOM     10  C   UNL d   1      33.229  20.421 -20.852  0.00  0.00     0.099 A 
ATOM     11  C   UNL d   1      33.139  19.851 -21.443  0.00  0.00     0.024 A 
ENDBRANCH   4   6
BRANCH   5  12
ATOM     12  C   UNL d   1      32.330  17.612 -23.596  0.00  0.00     0.043 A 
ATOM     13  C   UNL d   1      31.560  17.521 -23.872  0.00  0.00     0.004 A 
ATOM     14  C   UNL d   1      31.263  16.772 -24.018  0.00  0.00     0.000 A 
ATOM     15  C   UNL d   1      31.738  16.110 -23.887  0.00  0.00     0.000 A 
ATOM     16  C   UNL d   1      32.509  16.200 -23.611  0.00  0.00     0.000 A 
ATOM     17  C   UNL d   1      32.807  16.955 -23.465  0.00  0.00     0.004 A 
ENDBRANCH   5  12
TORSDOF 2
ENDMDL
MODEL 7
REMARK VINA RESULT:      -2.1      1.265      1.939
REMARK  2 active torsions:
REMARK  status: ('A' for Active; 'I' for Inactive)
REMARK    1  A    between atoms: C_6  and  C_4 
REMARK    2  A    between atoms: C_7  and  C_5 
ROOT
ATOM      1  O   UNL d   1      32.195  18.526 -23.371  0.00  0.00    -0.268 OA
ATOM      2  N   UNL d   1      33.233  18.076 -22.652  0.00  0.00    -0.121 NA
ATOM      3  N   UNL d   1      32.925  17.435 -23.080  0.00  0.00    -0.121 NA
ATOM      4  C   UNL d   1      32.285  17.716 -23.521  0.00  0.00     0.204 A 
ATOM      5  C   UNL d   1      32.787  18.737 -22.832  0.00  0.00     0.204 A 
ENDROOT
BRANCH   4   6
ATOM      6  C   UNL d   1      31.809  17.266 -24.033  0.00  0.00     0.046 A 
ATOM      7  C   UNL d   1      32.070  16.538 -24.310  0.00  0.00     0.024 A 
ATOM      8  C   UNL d   1      31.599  16.100 -24.811  0.00  0.00     0.099 A 
ATOM      9  N   UNL d   1      30.861  16.386 -25.042  0.00  0.00    -0.242 NA
ATOM     10  C   UNL d   1      30.592  17.111 -24.771  0.00  0.00     0.099 A 
ATOM     11  C   UNL d   1      31.070  17.553 -24.263  0.00  0.00     0.024 A 
ENDBRANCH   4   6
BRANCH   5  12
ATOM     12  C   UNL d   1      32.902  19.503 -22.526  0.00  0.00     0.043 A 
ATOM     13  C   UNL d   1      33.079  19.608 -21.730  0.00  0.00     0.004 A 
ATOM     14  C   UNL d   1      33.192  20.362 -21.431  0.00  0.00     0.000 A 
ATOM     15  C   UNL d   1      33.128  21.016 -21.932  0.00  0.00     0.000 A 
ATOM     16  C   UNL d   1      32.952  20.912 -22.729  0.00  0.00     0.000 A 
ATOM     17  C   UNL d   1      32.838  20.151 -23.029  0.00  0.00     0.004 A 
ENDBRANCH   5  12
TORSDOF 2
ENDMDL
