MODEL 1
REMARK VINA RESULT:      -7.1      0.000      0.000
REMARK  3 active torsions:
REMARK  status: ('A' for Active; 'I' for Inactive)
REMARK    1  A    between atoms: C_9  and  N_1 
REMARK    2  A    between atoms: C_7  and  C_9 
REMARK    3  A    between atoms: C_8  and  C_7 
ROOT
ATOM      1  N   UNL d   1      53.434  31.715  53.616  0.00  0.00    -0.190 N 
ATOM      2  N   UNL d   1      53.650  31.022  54.009  0.00  0.00    -0.120 NA
ATOM      3  C   UNL d   1      52.928  31.681  52.966  0.00  0.00     0.281 A 
ATOM      4  C   UNL d   1      53.360  30.294  53.753  0.00  0.00     0.296 A 
ATOM      5  C   UNL d   1      52.640  30.956  52.713  0.00  0.00     0.068 A 
ATOM      6  C   UNL d   1      52.856  30.263  53.106  0.00  0.00     0.069 A 
ATOM      7  O   UNL d   1      52.712  32.374  52.573  0.00  0.00    -0.265 OA
ATOM      8  O   UNL d   1      53.576  29.602  54.146  0.00  0.00    -0.264 OA
ENDROOT
BRANCH   1   9
ATOM      9  C   UNL d   1      53.727  32.445  53.874  0.00  0.00     0.110 C 
BRANCH   9  10
ATOM     10  C   UNL d   1      54.016  32.518  54.646  0.00  0.00     0.091 C 
BRANCH  10  11
ATOM     11  C   UNL d   1      54.304  33.246  54.904  0.00  0.00     0.213 C 
ATOM     12  O   UNL d   1      53.794  33.810  55.227  0.00  0.00    -0.644 OA
ATOM     13  O   UNL d   1      55.111  33.413  54.838  0.00  0.00    -0.644 OA
ENDBRANCH  10  11
ENDBRANCH   9  10
ENDBRANCH   1   9
TORSDOF 3
ENDMDL
MODEL 2
REMARK VINA RESULT:      -6.9      1.574      2.480
REMARK  3 active torsions:
REMARK  status: ('A' for Active; 'I' for Inactive)
REMARK    1  A    between atoms: C_9  and  N_1 
REMARK    2  A    between atoms: C_7  and  C_9 
REMARK    3  A    between atoms: C_8  and  C_7 
ROOT
ATOM      1  N   UNL d   1      53.404  33.293  54.196  0.00  0.00    -0.190 N 
ATOM      2  N   UNL d   1      53.033  33.091  53.488  0.00  0.00    -0.120 NA
ATOM      3  C   UNL d   1      53.854  32.735  54.601  0.00  0.00     0.281 A 
ATOM      4  C   UNL d   1      53.111  32.329  53.182  0.00  0.00     0.296 A 
ATOM      5  C   UNL d   1      53.931  31.977  54.296  0.00  0.00     0.068 A 
ATOM      6  C   UNL d   1      53.560  31.774  53.588  0.00  0.00     0.069 A 
ATOM      7  O   UNL d   1      54.225  32.937  55.311  0.00  0.00    -0.265 OA
ATOM      8  O   UNL d   1      52.740  32.127  52.474  0.00  0.00    -0.264 OA
ENDROOT
BRANCH   1   9
ATOM      9  C   UNL d   1      53.323  34.059  54.501  0.00  0.00     0.110 C 
BRANCH   9  10
ATOM     10  C   UNL d   1      53.071  34.671  54.004  0.00  0.00     0.091 C 
BRANCH  10  11
ATOM     11  C   UNL d   1      52.976  35.430  54.312  0.00  0.00     0.213 C 
ATOM     12  O   UNL d   1      53.627  35.929  54.408  0.00  0.00    -0.644 OA
ATOM     13  O   UNL d   1      52.223  35.692  54.527  0.00  0.00    -0.644 OA
ENDBRANCH  10  11
ENDBRANCH   9  10
ENDBRANCH   1   9
TORSDOF 3
ENDMDL
MODEL 3
REMARK VINA RESULT:      -6.9      1.790      3.331
REMARK  3 active torsions:
REMARK  status: ('A' for Active; 'I' for Inactive)
REMARK    1  A    between atoms: C_9  and  N_1 
REMARK    2  A    between atoms: C_7  and  C_9 
REMARK    3  A    between atoms: C_8  and  C_7 
ROOT
ATOM      1  N   UNL d   1      52.998  33.297  53.784  0.00  0.00    -0.190 N 
ATOM      2  N   UNL d   1      53.166  33.935  54.279  0.00  0.00    -0.120 NA
ATOM      3  C   UNL d   1      53.470  32.622  53.806  0.00  0.00     0.281 A 
ATOM      4  C   UNL d   1      53.806  33.901  54.797  0.00  0.00     0.296 A 
ATOM      5  C   UNL d   1      54.107  32.588  54.322  0.00  0.00     0.068 A 
ATOM      6  C   UNL d   1      54.275  33.227  54.817  0.00  0.00     0.069 A 
ATOM      7  O   UNL d   1      53.302  31.983  53.311  0.00  0.00    -0.265 OA
ATOM      8  O   UNL d   1      53.974  34.539  55.292  0.00  0.00    -0.264 OA
ENDROOT
BRANCH   1   9
ATOM      9  C   UNL d   1      52.355  33.335  53.265  0.00  0.00     0.110 C 
BRANCH   9  10
ATOM     10  C   UNL d   1      51.926  34.040  53.198  0.00  0.00     0.091 C 
BRANCH  10  11
ATOM     11  C   UNL d   1      51.276  34.071  52.691  0.00  0.00     0.213 C 
ATOM     12  O   UNL d   1      51.374  34.260  51.893  0.00  0.00    -0.644 OA
ATOM     13  O   UNL d   1      50.520  33.913  52.985  0.00  0.00    -0.644 OA
ENDBRANCH  10  11
ENDBRANCH   9  10
ENDBRANCH   1   9
TORSDOF 3
ENDMDL
MODEL 4
REMARK VINA RESULT:      -6.9      1.959      2.562
REMARK  3 active torsions:
REMARK  status: ('A' for Active; 'I' for Inactive)
REMARK    1  A    between atoms: C_9  and  N_1 
REMARK    2  A    between atoms: C_7  and  C_9 
REMARK    3  A    between atoms: C_8  and  C_7 
ROOT
ATOM      1  N   UNL d   1      53.047  33.912  53.858  0.00  0.00    -0.190 N 
ATOM      2  N   UNL d   1      52.974  33.190  53.465  0.00  0.00    -0.120 NA
ATOM      3  C   UNL d   1      52.567  34.547  53.645  0.00  0.00     0.281 A 
ATOM      4  C   UNL d   1      52.422  33.101  52.859  0.00  0.00     0.296 A 
ATOM      5  C   UNL d   1      52.018  34.458  53.041  0.00  0.00     0.068 A 
ATOM      6  C   UNL d   1      51.946  33.736  52.649  0.00  0.00     0.069 A 
ATOM      7  O   UNL d   1      52.640  35.270  54.037  0.00  0.00    -0.265 OA
ATOM      8  O   UNL d   1      52.350  32.379  52.467  0.00  0.00    -0.264 OA
ENDROOT
BRANCH   1   9
ATOM      9  C   UNL d   1      53.601  33.998  54.466  0.00  0.00     0.110 C 
BRANCH   9  10
ATOM     10  C   UNL d   1      54.231  33.464  54.521  0.00  0.00     0.091 C 
BRANCH  10  11
ATOM     11  C   UNL d   1      54.729  33.491  55.179  0.00  0.00     0.213 C 
ATOM     12  O   UNL d   1      55.377  34.002  55.194  0.00  0.00    -0.644 OA
ATOM     13  O   UNL d   1      54.576  33.003  55.827  0.00  0.00    -0.644 OA
ENDBRANCH  10  11
ENDBRANCH   9  10
ENDBRANCH   1   9
TORSDOF 3
ENDMDL
MODEL 5
REMARK VINA RESULT:      -6.7      1.074      2.987
REMARK  3 active torsions:
REMARK  status: ('A' for Active; 'I' for Inactive)
REMARK    1  A    between atoms: C_9  and  N_1 
REMARK    2  A    between atoms: C_7  and  C_9 
REMARK    3  A    between atoms: C_8  and  C_7 
ROOT
ATOM      1  N   UNL d   1      53.165  32.416  53.691  0.00  0.00    -0.190 N 
ATOM      2  N   UNL d   1      53.740  32.329  54.277  0.00  0.00    -0.120 NA
ATOM      3  C   UNL d   1      52.816  33.150  53.561  0.00  0.00     0.281 A 
ATOM      4  C   UNL d   1      53.966  32.977  54.734  0.00  0.00     0.296 A 
ATOM      5  C   UNL d   1      53.041  33.794  54.017  0.00  0.00     0.068 A 
ATOM      6  C   UNL d   1      53.616  33.708  54.602  0.00  0.00     0.069 A 
ATOM      7  O   UNL d   1      52.241  33.237  52.975  0.00  0.00    -0.265 OA
ATOM      8  O   UNL d   1      54.540  32.890  55.320  0.00  0.00    -0.264 OA
ENDROOT
BRANCH   1   9
ATOM      9  C   UNL d   1      52.940  31.764  53.234  0.00  0.00     0.110 C 
BRANCH   9  10
ATOM     10  C   UNL d   1      53.215  31.010  53.436  0.00  0.00     0.091 C 
BRANCH  10  11
ATOM     11  C   UNL d   1      52.929  30.352  53.029  0.00  0.00     0.213 C 
ATOM     12  O   UNL d   1      53.028  30.288  52.211  0.00  0.00    -0.644 OA
ATOM     13  O   UNL d   1      52.540  29.752  53.443  0.00  0.00    -0.644 OA
ENDBRANCH  10  11
ENDBRANCH   9  10
ENDBRANCH   1   9
TORSDOF 3
ENDMDL
