MODEL 1
REMARK VINA RESULT:      31.1      0.000      0.000
REMARK  9 active torsions:
REMARK  status: ('A' for Active; 'I' for Inactive)
REMARK    1  A    between atoms: C_9  and  S_1 
REMARK    2  A    between atoms: N_12  and  S_1 
REMARK    3  A    between atoms: S_2  and  C_8 
REMARK    4  A    between atoms: N_13  and  S_2 
REMARK    5  A    between atoms: N_20  and  C_5 
REMARK    6  A    between atoms: C_23  and  N_12 
REMARK    7  A    between atoms: C_24  and  N_13 
REMARK    8  A    between atoms: C_31  and  C_23 
REMARK    9  A    between atoms: C_30  and  C_24 
ROOT
ATOM      1  C   UNL d   1      45.458 -15.495  44.042  0.00  0.00     0.021 A 
ATOM      2  C   UNL d   1      45.594 -16.824  44.042  0.00  0.00     0.021 A 
ATOM      3  C   UNL d   1      45.163 -16.194  43.718  0.00  0.00     0.111 A 
ATOM      4  C   UNL d   1      46.151 -16.509  44.563  0.00  0.00     0.002 A 
ATOM      5  C   UNL d   1      46.059 -15.688  44.556  0.00  0.00     0.002 A 
ATOM      6  C   UNL d   1      46.051 -18.133  44.328  0.00  0.00     0.104 A 
ATOM      7  C   UNL d   1      45.615 -14.121  44.305  0.00  0.00     0.104 A 
ATOM      8  C   UNL d   1      45.539 -17.638  43.920  0.00  0.00     0.015 A 
ATOM      9  C   UNL d   1      45.225 -14.745  43.904  0.00  0.00     0.015 A 
ATOM     10  C   UNL d   1      46.448 -15.076  44.955  0.00  0.00     0.001 A 
ATOM     11  C   UNL d   1      46.645 -17.010  44.954  0.00  0.00     0.001 A 
ATOM     12  C   UNL d   1      46.217 -14.314  44.819  0.00  0.00     0.013 A 
ATOM     13  C   UNL d   1      46.607 -17.792  44.849  0.00  0.00     0.013 A 
ENDROOT
BRANCH   6  14
ATOM     14  S   UNL d   1      46.028 -18.968  44.232  0.00  0.00     0.272 S 
ATOM     15  O   UNL d   1      45.606 -18.878  43.508  0.00  0.00    -0.200 OA
ATOM     16  O   UNL d   1      46.447 -19.079  44.951  0.00  0.00    -0.200 OA
BRANCH  14  17
ATOM     17  N   UNL d   1      45.992 -19.797  44.115  0.00  0.00    -0.225 N 
ATOM     18  C   UNL d   1      45.934 -20.320  44.775  0.00  0.00     0.111 C 
BRANCH  17  19
ATOM     19  C   UNL d   1      46.012 -20.137  43.350  0.00  0.00     0.137 C 
BRANCH  19  20
ATOM     20  C   UNL d   1      46.276 -19.715  42.696  0.00  0.00     0.254 C 
ATOM     21  O   UNL d   1      46.582 -20.096  42.035  0.00  0.00    -0.281 OA
ENDBRANCH  19  20
ENDBRANCH  17  19
ENDBRANCH  14  17
ENDBRANCH   6  14
BRANCH   3  22
ATOM     22  N   UNL d   1      44.548 -16.267  43.169  0.00  0.00    -0.096 NA
ATOM     23  O   UNL d   1      44.605 -16.820  42.556  0.00  0.00    -0.061 OA
ENDBRANCH   3  22
BRANCH   7  24
ATOM     24  S   UNL d   1      45.407 -13.312  44.195  0.00  0.00     0.272 S 
ATOM     25  O   UNL d   1      46.014 -13.101  44.735  0.00  0.00    -0.200 OA
ATOM     26  O   UNL d   1      44.802 -13.528  43.655  0.00  0.00    -0.200 OA
BRANCH  24  27
ATOM     27  N   UNL d   1      45.225 -12.492  44.107  0.00  0.00    -0.225 N 
ATOM     28  C   UNL d   1      44.841 -12.080  44.699  0.00  0.00     0.111 C 
BRANCH  27  29
ATOM     29  C   UNL d   1      45.451 -12.112  43.394  0.00  0.00     0.137 C 
BRANCH  29  30
ATOM     30  C   UNL d   1      44.996 -12.224  42.726  0.00  0.00     0.254 C 
ATOM     31  O   UNL d   1      45.346 -12.471  42.010  0.00  0.00    -0.281 OA
ENDBRANCH  29  30
ENDBRANCH  27  29
ENDBRANCH  24  27
ENDBRANCH   7  24
TORSDOF 9
ENDMDL
