MODEL 1
REMARK VINA RESULT:      -6.1      0.000      0.000
REMARK  4 active torsions:
REMARK  status: ('A' for Active; 'I' for Inactive)
REMARK    1  A    between atoms: C_2  and  C_1 
REMARK       I    between atoms: N_7  and  C_2 
REMARK    2  A    between atoms: N_6  and  C_5 
REMARK    3  A    between atoms: C_10  and  N_7 
REMARK    4  A    between atoms: C_8  and  C_9 
ROOT
ATOM      1  C   UNL d   1      58.357  -0.950  29.752  0.00  0.00     0.021 A 
ATOM      2  C   UNL d   1      59.098  -1.894  28.977  0.00  0.00     0.085 A 
ATOM      3  C   UNL d   1      58.603  -1.726  29.616  0.00  0.00     0.021 A 
ATOM      4  C   UNL d   1      58.606  -0.343  29.251  0.00  0.00     0.002 A 
ATOM      5  C   UNL d   1      59.097  -0.516  28.620  0.00  0.00     0.002 A 
ATOM      6  C   UNL d   1      59.343  -1.291  28.483  0.00  0.00     0.019 A 
ENDROOT
BRANCH   1   7
ATOM      7  C   UNL d   1      57.857  -0.783  30.398  0.00  0.00     0.103 A 
ATOM      8  N   UNL d   1      57.394  -1.376  30.720  0.00  0.00    -0.147 NA
ATOM      9  N   UNL d   1      56.900  -1.206  31.360  0.00  0.00    -0.130 NA
ATOM     10  C   UNL d   1      56.875  -0.443  31.671  0.00  0.00     0.169 A 
ATOM     11  C   UNL d   1      57.346   0.153  31.339  0.00  0.00     0.041 A 
ATOM     12  C   UNL d   1      57.832  -0.020  30.709  0.00  0.00     0.024 A 
BRANCH  10  13
ATOM     13  N   UNL d   1      56.387  -0.271  32.304  0.00  0.00    -0.288 N 
ATOM     14  C   UNL d   1      56.108   0.498  32.410  0.00  0.00     0.082 A 
ATOM     15  C   UNL d   1      55.615   0.675  33.048  0.00  0.00     0.019 A 
ATOM     16  C   UNL d   1      55.401   0.082  33.580  0.00  0.00     0.003 A 
ATOM     17  C   UNL d   1      55.679  -0.688  33.474  0.00  0.00     0.019 A 
ATOM     18  C   UNL d   1      56.172  -0.864  32.836  0.00  0.00     0.082 A 
ENDBRANCH  10  13
ENDBRANCH   1   7
BRANCH   2  19
ATOM     19  N   UNL d   1      59.344  -2.670  28.840  0.00  0.00    -0.205 NA
ATOM     20  C   UNL d   1      60.113  -2.894  29.004  0.00  0.00     0.351 C 
ATOM     21  O   UNL d   1      60.644  -2.340  29.308  0.00  0.00    -0.261 OA
BRANCH  20  22
ATOM     22  C   UNL d   1      60.357  -3.665  28.868  0.00  0.00     0.474 C 
ATOM     23  F   UNL d   1      60.603  -4.441  28.731  0.00  0.00    -0.162 F 
ATOM     24  F   UNL d   1      61.131  -3.454  29.061  0.00  0.00    -0.162 F 
ATOM     25  F   UNL d   1      59.584  -3.876  28.675  0.00  0.00    -0.162 F 
ENDBRANCH  20  22
ENDBRANCH   2  19
TORSDOF 4
ENDMDL
