MODEL 1
REMARK VINA RESULT:      93.0      0.000      0.000
REMARK  4 active torsions:
REMARK  status: ('A' for Active; 'I' for Inactive)
REMARK    1  A    between atoms: S_2  and  N_1 
REMARK    2  A    between atoms: C_10  and  S_2 
REMARK    3  A    between atoms: C_7  and  C_4 
REMARK    4  A    between atoms: C_12  and  C_5 
ROOT
ATOM      1  N   UNL d   1     -51.235  26.032  34.017  0.00  0.00    -0.152 N 
ATOM      2  N   UNL d   1     -51.594  25.498  33.520  0.00  0.00    -0.155 NA
ATOM      3  C   UNL d   1     -52.038  24.979  33.983  0.00  0.00     0.110 A 
ATOM      4  C   UNL d   1     -51.448  25.855  34.796  0.00  0.00     0.096 A 
ATOM      5  C   UNL d   1     -51.960  25.183  34.773  0.00  0.00     0.041 A 
ENDROOT
BRANCH   1   6
ATOM      6  S   UNL d   1     -50.753  26.633  33.792  0.00  0.00     0.286 S 
ATOM      7  O   UNL d   1     -50.548  25.880  33.503  0.00  0.00    -0.198 OA
ATOM      8  O   UNL d   1     -50.075  26.591  33.307  0.00  0.00    -0.198 OA
BRANCH   6   9
ATOM      9  C   UNL d   1     -50.365  27.348  33.656  0.00  0.00     0.105 A 
ATOM     10  C   UNL d   1     -50.798  28.018  33.445  0.00  0.00     0.013 A 
ATOM     11  C   UNL d   1     -50.411  28.738  33.307  0.00  0.00     0.001 A 
ATOM     12  C   UNL d   1     -49.590  28.784  33.382  0.00  0.00     0.000 A 
ATOM     13  C   UNL d   1     -49.158  28.110  33.594  0.00  0.00     0.001 A 
ATOM     14  C   UNL d   1     -49.545  27.394  33.731  0.00  0.00     0.013 A 
ENDBRANCH   6   9
ENDBRANCH   1   6
BRANCH   4  15
ATOM     15  C   UNL d   1     -51.209  26.257  35.475  0.00  0.00     0.019 A 
ATOM     16  C   UNL d   1     -51.777  26.619  35.962  0.00  0.00     0.002 A 
ATOM     17  C   UNL d   1     -51.546  27.006  36.618  0.00  0.00     0.007 A 
ATOM     18  C   UNL d   1     -50.729  27.060  36.834  0.00  0.00     0.035 A 
ATOM     19  C   UNL d   1     -50.177  26.685  36.325  0.00  0.00     0.007 A 
ATOM     20 BR   UNL d   1     -50.490  27.462  37.514  0.00  0.00    -0.049 Br
ATOM     21  C   UNL d   1     -50.408  26.297  35.669  0.00  0.00     0.002 A 
ENDBRANCH   4  15
BRANCH   3  22
ATOM     22  C   UNL d   1     -52.494  24.348  33.719  0.00  0.00     0.049 A 
ATOM     23  S   UNL d   1     -52.209  23.586  33.532  0.00  0.00    -0.085 SA
ATOM     24  C   UNL d   1     -52.870  23.190  33.307  0.00  0.00     0.035 A 
ATOM     25  C   UNL d   1     -53.516  23.583  33.323  0.00  0.00     0.007 A 
ATOM     26  C   UNL d   1     -53.308  24.320  33.581  0.00  0.00     0.009 A 
ENDBRANCH   3  22
TORSDOF 4
ENDMDL
MODEL 2
REMARK VINA RESULT:      94.2      3.419      4.759
REMARK  4 active torsions:
REMARK  status: ('A' for Active; 'I' for Inactive)
REMARK    1  A    between atoms: S_2  and  N_1 
REMARK    2  A    between atoms: C_10  and  S_2 
REMARK    3  A    between atoms: C_7  and  C_4 
REMARK    4  A    between atoms: C_12  and  C_5 
ROOT
ATOM      1  N   UNL d   1     -48.685  29.877  34.268  0.00  0.00    -0.152 N 
ATOM      2  N   UNL d   1     -49.212  29.468  33.804  0.00  0.00    -0.155 NA
ATOM      3  C   UNL d   1     -49.240  28.690  34.077  0.00  0.00     0.110 A 
ATOM      4  C   UNL d   1     -48.376  29.362  34.837  0.00  0.00     0.096 A 
ATOM      5  C   UNL d   1     -48.730  28.605  34.714  0.00  0.00     0.041 A 
ENDROOT
BRANCH   1   6
ATOM      6  S   UNL d   1     -48.493  30.653  34.191  0.00  0.00     0.286 S 
ATOM      7  O   UNL d   1     -49.296  30.468  34.077  0.00  0.00    -0.198 OA
ATOM      8  O   UNL d   1     -49.000  31.290  34.012  0.00  0.00    -0.198 OA
BRANCH   6   9
ATOM      9  C   UNL d   1     -48.135  31.395  34.148  0.00  0.00     0.105 A 
ATOM     10  C   UNL d   1     -47.441  31.493  33.712  0.00  0.00     0.013 A 
ATOM     11  C   UNL d   1     -47.079  32.238  33.667  0.00  0.00     0.001 A 
ATOM     12  C   UNL d   1     -47.414  32.882  34.059  0.00  0.00     0.000 A 
ATOM     13  C   UNL d   1     -48.111  32.780  34.496  0.00  0.00     0.001 A 
ATOM     14  C   UNL d   1     -48.470  32.039  34.540  0.00  0.00     0.013 A 
ENDBRANCH   6   9
ENDBRANCH   1   6
BRANCH   4  15
ATOM     15  C   UNL d   1     -47.823  29.547  35.420  0.00  0.00     0.019 A 
ATOM     16  C   UNL d   1     -48.082  29.754  36.182  0.00  0.00     0.002 A 
ATOM     17  C   UNL d   1     -47.548  29.932  36.746  0.00  0.00     0.007 A 
ATOM     18  C   UNL d   1     -46.716  29.916  36.587  0.00  0.00     0.035 A 
ATOM     19  C   UNL d   1     -46.484  29.703  35.809  0.00  0.00     0.007 A 
ATOM     20 BR   UNL d   1     -46.163  30.100  37.171  0.00  0.00    -0.049 Br
ATOM     21  C   UNL d   1     -47.017  29.525  35.246  0.00  0.00     0.002 A 
ENDBRANCH   4  15
BRANCH   3  22
ATOM     22  C   UNL d   1     -49.698  28.077  33.774  0.00  0.00     0.049 A 
ATOM     23  S   UNL d   1     -49.421  27.314  33.580  0.00  0.00    -0.085 SA
ATOM     24  C   UNL d   1     -50.080  26.939  33.314  0.00  0.00     0.035 A 
ATOM     25  C   UNL d   1     -50.717  27.347  33.313  0.00  0.00     0.007 A 
ATOM     26  C   UNL d   1     -50.504  28.072  33.599  0.00  0.00     0.009 A 
ENDBRANCH   3  22
TORSDOF 4
ENDMDL
