MODEL 1
REMARK VINA RESULT:      -8.2      0.000      0.000
REMARK  0 active torsions:
REMARK  status: ('A' for Active; 'I' for Inactive)
ROOT
ATOM      1  C   UNL d   1     -46.786  13.851  22.951  0.00  0.00     0.110 A 
ATOM      2  C   UNL d   1     -47.575  14.056  22.824  0.00  0.00     0.110 A 
ATOM      3  C   UNL d   1     -46.585  13.086  23.202  0.00  0.00     0.207 A 
ATOM      4  C   UNL d   1     -48.163  13.497  22.949  0.00  0.00     0.207 A 
ATOM      5  C   UNL d   1     -47.186  12.544  23.321  0.00  0.00     0.043 A 
ATOM      6  C   UNL d   1     -47.975  12.750  23.194  0.00  0.00     0.043 A 
ATOM      7  O   UNL d   1     -45.805  12.882  23.328  0.00  0.00    -0.286 OA
ATOM      8  O   UNL d   1     -48.953  13.698  22.823  0.00  0.00    -0.286 OA
ATOM      9 CL   UNL d   1     -47.760  14.812  22.576  0.00  0.00    -0.078 Cl
ATOM     10 CL   UNL d   1     -46.190  14.408  22.827  0.00  0.00    -0.078 Cl
ATOM     11  C   UNL d   1     -46.986  11.779  23.572  0.00  0.00     0.003 A 
ATOM     12  C   UNL d   1     -48.554  12.174  23.324  0.00  0.00     0.003 A 
ATOM     13  C   UNL d   1     -47.578  11.221  23.696  0.00  0.00     0.000 A 
ATOM     14  C   UNL d   1     -48.383  11.417  23.571  0.00  0.00     0.000 A 
ENDROOT
TORSDOF 0
ENDMDL
MODEL 2
REMARK VINA RESULT:      -8.1      1.407      2.835
REMARK  0 active torsions:
REMARK  status: ('A' for Active; 'I' for Inactive)
ROOT
ATOM      1  C   UNL d   1     -47.907  12.072  23.412  0.00  0.00     0.110 A 
ATOM      2  C   UNL d   1     -47.085  12.031  23.464  0.00  0.00     0.110 A 
ATOM      3  C   UNL d   1     -48.280  12.774  23.176  0.00  0.00     0.207 A 
ATOM      4  C   UNL d   1     -46.635  12.693  23.279  0.00  0.00     0.207 A 
ATOM      5  C   UNL d   1     -47.814  13.422  22.996  0.00  0.00     0.043 A 
ATOM      6  C   UNL d   1     -46.992  13.381  23.048  0.00  0.00     0.043 A 
ATOM      7  O   UNL d   1     -49.093  12.814  23.125  0.00  0.00    -0.286 OA
ATOM      8  O   UNL d   1     -45.812  12.657  23.329  0.00  0.00    -0.286 OA
ATOM      9 CL   UNL d   1     -46.728  11.334  23.698  0.00  0.00    -0.078 Cl
ATOM     10 CL   UNL d   1     -48.364  11.410  23.597  0.00  0.00    -0.078 Cl
ATOM     11  C   UNL d   1     -48.187  14.124  22.760  0.00  0.00     0.003 A 
ATOM     12  C   UNL d   1     -46.555  14.057  22.858  0.00  0.00     0.003 A 
ATOM     13  C   UNL d   1     -47.733  14.786  22.575  0.00  0.00     0.000 A 
ATOM     14  C   UNL d   1     -46.897  14.758  22.623  0.00  0.00     0.000 A 
ENDROOT
TORSDOF 0
ENDMDL
MODEL 3
REMARK VINA RESULT:      -8.1      1.403      2.261
REMARK  0 active torsions:
REMARK  status: ('A' for Active; 'I' for Inactive)
ROOT
ATOM      1  C   UNL d   1     -47.091  12.043  23.460  0.00  0.00     0.110 A 
ATOM      2  C   UNL d   1     -47.914  12.072  23.405  0.00  0.00     0.110 A 
ATOM      3  C   UNL d   1     -46.634  12.711  23.278  0.00  0.00     0.207 A 
ATOM      4  C   UNL d   1     -48.279  12.768  23.167  0.00  0.00     0.207 A 
ATOM      5  C   UNL d   1     -47.016  13.395  23.043  0.00  0.00     0.043 A 
ATOM      6  C   UNL d   1     -47.839  13.423  22.988  0.00  0.00     0.043 A 
ATOM      7  O   UNL d   1     -45.820  12.683  23.333  0.00  0.00    -0.286 OA
ATOM      8  O   UNL d   1     -49.101  12.801  23.110  0.00  0.00    -0.286 OA
ATOM      9 CL   UNL d   1     -48.354  11.408  23.586  0.00  0.00    -0.078 Cl
ATOM     10 CL   UNL d   1     -46.718  11.347  23.698  0.00  0.00    -0.078 Cl
ATOM     11  C   UNL d   1     -46.559  14.062  22.861  0.00  0.00     0.003 A 
ATOM     12  C   UNL d   1     -48.189  14.132  22.748  0.00  0.00     0.003 A 
ATOM     13  C   UNL d   1     -46.928  14.759  22.624  0.00  0.00     0.000 A 
ATOM     14  C   UNL d   1     -47.763  14.801  22.563  0.00  0.00     0.000 A 
ENDROOT
TORSDOF 0
ENDMDL
MODEL 4
REMARK VINA RESULT:      -7.8      1.631      2.305
REMARK  0 active torsions:
REMARK  status: ('A' for Active; 'I' for Inactive)
ROOT
ATOM      1  C   UNL d   1     -47.499  12.075  23.225  0.00  0.00     0.110 A 
ATOM      2  C   UNL d   1     -47.252  12.852  23.101  0.00  0.00     0.110 A 
ATOM      3  C   UNL d   1     -48.199  11.795  22.879  0.00  0.00     0.207 A 
ATOM      4  C   UNL d   1     -47.705  13.349  22.629  0.00  0.00     0.207 A 
ATOM      5  C   UNL d   1     -48.636  12.306  22.413  0.00  0.00     0.043 A 
ATOM      6  C   UNL d   1     -48.389  13.083  22.289  0.00  0.00     0.043 A 
ATOM      7  O   UNL d   1     -48.443  11.026  23.003  0.00  0.00    -0.286 OA
ATOM      8  O   UNL d   1     -47.462  14.127  22.502  0.00  0.00    -0.286 OA
ATOM      9 CL   UNL d   1     -46.561  13.117  23.446  0.00  0.00    -0.078 Cl
ATOM     10 CL   UNL d   1     -47.048  11.570  23.698  0.00  0.00    -0.078 Cl
ATOM     11  C   UNL d   1     -49.336  12.026  22.067  0.00  0.00     0.003 A 
ATOM     12  C   UNL d   1     -48.857  13.570  21.812  0.00  0.00     0.003 A 
ATOM     13  C   UNL d   1     -49.788  12.527  21.596  0.00  0.00     0.000 A 
ATOM     14  C   UNL d   1     -49.548  13.319  21.461  0.00  0.00     0.000 A 
ENDROOT
TORSDOF 0
ENDMDL
MODEL 5
REMARK VINA RESULT:      -7.6      1.576      2.373
REMARK  0 active torsions:
REMARK  status: ('A' for Active; 'I' for Inactive)
ROOT
ATOM      1  C   UNL d   1     -49.266  12.891  22.631  0.00  0.00     0.110 A 
ATOM      2  C   UNL d   1     -49.448  12.169  22.988  0.00  0.00     0.110 A 
ATOM      3  C   UNL d   1     -48.485  13.172  22.627  0.00  0.00     0.207 A 
ATOM      4  C   UNL d   1     -48.850  11.730  23.340  0.00  0.00     0.207 A 
ATOM      5  C   UNL d   1     -47.905  12.720  22.983  0.00  0.00     0.043 A 
ATOM      6  C   UNL d   1     -48.087  11.998  23.339  0.00  0.00     0.043 A 
ATOM      7  O   UNL d   1     -48.305  13.886  22.274  0.00  0.00    -0.286 OA
ATOM      8  O   UNL d   1     -49.028  11.008  23.697  0.00  0.00    -0.286 OA
ATOM      9 CL   UNL d   1     -50.220  11.902  22.986  0.00  0.00    -0.078 Cl
ATOM     10 CL   UNL d   1     -49.862  13.337  22.276  0.00  0.00    -0.078 Cl
ATOM     11  C   UNL d   1     -47.124  13.002  22.978  0.00  0.00     0.003 A 
ATOM     12  C   UNL d   1     -47.473  11.569  23.688  0.00  0.00     0.003 A 
ATOM     13  C   UNL d   1     -46.527  12.559  23.332  0.00  0.00     0.000 A 
ATOM     14  C   UNL d   1     -46.699  11.824  23.697  0.00  0.00     0.000 A 
ENDROOT
TORSDOF 0
ENDMDL
MODEL 6
REMARK VINA RESULT:      -5.8      9.257     10.143
REMARK  0 active torsions:
REMARK  status: ('A' for Active; 'I' for Inactive)
ROOT
ATOM      1  C   UNL d   1     -40.037  15.205  16.933  0.00  0.00     0.110 A 
ATOM      2  C   UNL d   1     -40.411  14.806  17.551  0.00  0.00     0.110 A 
ATOM      3  C   UNL d   1     -39.353  14.893  16.584  0.00  0.00     0.207 A 
ATOM      4  C   UNL d   1     -40.100  14.095  17.819  0.00  0.00     0.207 A 
ATOM      5  C   UNL d   1     -39.059  14.183  16.865  0.00  0.00     0.043 A 
ATOM      6  C   UNL d   1     -39.433  13.785  17.483  0.00  0.00     0.043 A 
ATOM      7  O   UNL d   1     -38.983  15.287  15.972  0.00  0.00    -0.286 OA
ATOM      8  O   UNL d   1     -40.470  13.693  18.437  0.00  0.00    -0.286 OA
ATOM      9 CL   UNL d   1     -41.084  15.123  17.888  0.00  0.00    -0.078 Cl
ATOM     10 CL   UNL d   1     -40.344  15.920  16.659  0.00  0.00    -0.078 Cl
ATOM     11  C   UNL d   1     -38.374  13.871  16.516  0.00  0.00     0.003 A 
ATOM     12  C   UNL d   1     -39.106  13.070  17.740  0.00  0.00     0.003 A 
ATOM     13  C   UNL d   1     -38.065  13.158  16.787  0.00  0.00     0.000 A 
ATOM     14  C   UNL d   1     -38.435  12.743  17.414  0.00  0.00     0.000 A 
ENDROOT
TORSDOF 0
ENDMDL
MODEL 7
REMARK VINA RESULT:      -5.6      9.493     10.473
REMARK  0 active torsions:
REMARK  status: ('A' for Active; 'I' for Inactive)
ROOT
ATOM      1  C   UNL d   1     -38.507  14.396  16.320  0.00  0.00     0.110 A 
ATOM      2  C   UNL d   1     -38.504  13.661  16.695  0.00  0.00     0.110 A 
ATOM      3  C   UNL d   1     -39.053  14.979  16.542  0.00  0.00     0.207 A 
ATOM      4  C   UNL d   1     -39.047  13.510  17.292  0.00  0.00     0.207 A 
ATOM      5  C   UNL d   1     -39.586  14.809  17.138  0.00  0.00     0.043 A 
ATOM      6  C   UNL d   1     -39.583  14.075  17.514  0.00  0.00     0.043 A 
ATOM      7  O   UNL d   1     -39.056  15.706  16.170  0.00  0.00    -0.286 OA
ATOM      8  O   UNL d   1     -39.048  12.777  17.670  0.00  0.00    -0.286 OA
ATOM      9 CL   UNL d   1     -37.962  13.094  16.468  0.00  0.00    -0.078 Cl
ATOM     10 CL   UNL d   1     -37.964  14.554  15.719  0.00  0.00    -0.078 Cl
ATOM     11  C   UNL d   1     -40.132  15.393  17.360  0.00  0.00     0.003 A 
ATOM     12  C   UNL d   1     -40.137  13.940  18.113  0.00  0.00     0.003 A 
ATOM     13  C   UNL d   1     -40.675  15.239  17.959  0.00  0.00     0.000 A 
ATOM     14  C   UNL d   1     -40.683  14.497  18.348  0.00  0.00     0.000 A 
ENDROOT
TORSDOF 0
ENDMDL
MODEL 8
REMARK VINA RESULT:      -5.4      8.656      9.502
REMARK  0 active torsions:
REMARK  status: ('A' for Active; 'I' for Inactive)
ROOT
ATOM      1  C   UNL d   1     -40.356  15.052  18.734  0.00  0.00     0.110 A 
ATOM      2  C   UNL d   1     -40.483  15.284  17.953  0.00  0.00     0.110 A 
ATOM      3  C   UNL d   1     -39.826  14.439  18.911  0.00  0.00     0.207 A 
ATOM      4  C   UNL d   1     -40.080  14.902  17.348  0.00  0.00     0.207 A 
ATOM      5  C   UNL d   1     -39.435  14.072  18.294  0.00  0.00     0.043 A 
ATOM      6  C   UNL d   1     -39.562  14.303  17.512  0.00  0.00     0.043 A 
ATOM      7  O   UNL d   1     -39.701  14.210  19.684  0.00  0.00    -0.286 OA
ATOM      8  O   UNL d   1     -40.204  15.130  16.564  0.00  0.00    -0.286 OA
ATOM      9 CL   UNL d   1     -41.007  15.889  17.791  0.00  0.00    -0.078 Cl
ATOM     10 CL   UNL d   1     -40.758  15.432  19.347  0.00  0.00    -0.078 Cl
ATOM     11  C   UNL d   1     -38.905  13.458  18.470  0.00  0.00     0.003 A 
ATOM     12  C   UNL d   1     -39.148  13.908  16.916  0.00  0.00     0.003 A 
ATOM     13  C   UNL d   1     -38.502  13.077  17.861  0.00  0.00     0.000 A 
ATOM     14  C   UNL d   1     -38.622  13.303  17.063  0.00  0.00     0.000 A 
ENDROOT
TORSDOF 0
ENDMDL
MODEL 9
REMARK VINA RESULT:      -5.2      8.790      9.419
REMARK  0 active torsions:
REMARK  status: ('A' for Active; 'I' for Inactive)
ROOT
ATOM      1  C   UNL d   1     -39.228  13.889  18.443  0.00  0.00     0.110 A 
ATOM      2  C   UNL d   1     -39.486  14.299  19.111  0.00  0.00     0.110 A 
ATOM      3  C   UNL d   1     -39.518  14.085  17.690  0.00  0.00     0.207 A 
ATOM      4  C   UNL d   1     -40.034  14.905  19.026  0.00  0.00     0.207 A 
ATOM      5  C   UNL d   1     -40.062  14.691  17.627  0.00  0.00     0.043 A 
ATOM      6  C   UNL d   1     -40.321  15.102  18.295  0.00  0.00     0.043 A 
ATOM      7  O   UNL d   1     -39.262  13.679  17.030  0.00  0.00    -0.286 OA
ATOM      8  O   UNL d   1     -40.295  15.319  19.690  0.00  0.00    -0.286 OA
ATOM      9 CL   UNL d   1     -39.194  14.098  19.846  0.00  0.00    -0.078 Cl
ATOM     10 CL   UNL d   1     -38.678  13.279  18.521  0.00  0.00    -0.078 Cl
ATOM     11  C   UNL d   1     -40.352  14.887  16.875  0.00  0.00     0.003 A 
ATOM     12  C   UNL d   1     -40.872  15.709  18.191  0.00  0.00     0.003 A 
ATOM     13  C   UNL d   1     -40.901  15.495  16.793  0.00  0.00     0.000 A 
ATOM     14  C   UNL d   1     -41.171  15.920  17.463  0.00  0.00     0.000 A 
ENDROOT
TORSDOF 0
ENDMDL
