MODEL 1
REMARK VINA RESULT:      -8.3      0.000      0.000
REMARK  1 active torsions:
REMARK  status: ('A' for Active; 'I' for Inactive)
REMARK    1  A    between atoms: C_7  and  C_2 
ROOT
ATOM      1  C   UNL d   1     -47.098  12.933  22.827  0.00  0.00     0.070 A 
ATOM      2  C   UNL d   1     -46.304  12.974  22.951  0.00  0.00     0.170 A 
ATOM      3  C   UNL d   1     -47.420  12.320  23.281  0.00  0.00     0.108 A 
ATOM      4  N   UNL d   1     -46.098  12.370  23.503  0.00  0.00    -0.142 NA
ATOM      5  N   UNL d   1     -46.799  11.973  23.698  0.00  0.00    -0.148 NA
ATOM      6  C   UNL d   1     -48.234  12.171  23.244  0.00  0.00     0.042 A 
ATOM      7  C   UNL d   1     -47.583  13.392  22.343  0.00  0.00     0.126 A 
ATOM      8  O   UNL d   1     -48.397  13.244  22.306  0.00  0.00    -0.305 OA
ATOM      9  C   UNL d   1     -48.719  12.630  22.760  0.00  0.00     0.102 A 
ATOM     10  C   UNL d   1     -48.556  11.558  23.698  0.00  0.00     0.004 A 
ATOM     11  C   UNL d   1     -49.533  12.481  22.723  0.00  0.00     0.025 A 
ATOM     12  C   UNL d   1     -49.361  11.415  23.658  0.00  0.00     0.000 A 
ATOM     13  C   UNL d   1     -49.846  11.874  23.174  0.00  0.00     0.002 A 
ENDROOT
BRANCH   2  14
ATOM     14  C   UNL d   1     -45.820  13.519  22.588  0.00  0.00     0.231 C 
ATOM     15  O   UNL d   1     -45.360  13.298  21.950  0.00  0.00    -0.643 OA
ATOM     16  O   UNL d   1     -45.792  14.297  22.864  0.00  0.00    -0.643 OA
ENDBRANCH   2  14
TORSDOF 1
ENDMDL
MODEL 2
REMARK VINA RESULT:      -8.1      1.227      1.583
REMARK  1 active torsions:
REMARK  status: ('A' for Active; 'I' for Inactive)
REMARK    1  A    between atoms: C_7  and  C_2 
ROOT
ATOM      1  C   UNL d   1     -47.644  13.017  23.165  0.00  0.00     0.070 A 
ATOM      2  C   UNL d   1     -47.130  13.604  22.969  0.00  0.00     0.170 A 
ATOM      3  C   UNL d   1     -48.422  13.287  23.081  0.00  0.00     0.108 A 
ATOM      4  N   UNL d   1     -47.584  14.281  22.750  0.00  0.00    -0.142 NA
ATOM      5  N   UNL d   1     -48.382  14.069  22.824  0.00  0.00    -0.148 NA
ATOM      6  C   UNL d   1     -49.050  12.775  23.252  0.00  0.00     0.042 A 
ATOM      7  C   UNL d   1     -47.496  12.245  23.417  0.00  0.00     0.126 A 
ATOM      8  O   UNL d   1     -48.124  11.734  23.588  0.00  0.00    -0.305 OA
ATOM      9  C   UNL d   1     -48.902  12.004  23.504  0.00  0.00     0.102 A 
ATOM     10  C   UNL d   1     -49.829  13.045  23.168  0.00  0.00     0.004 A 
ATOM     11  C   UNL d   1     -49.531  11.492  23.676  0.00  0.00     0.025 A 
ATOM     12  C   UNL d   1     -50.446  12.536  23.339  0.00  0.00     0.000 A 
ATOM     13  C   UNL d   1     -50.298  11.764  23.591  0.00  0.00     0.002 A 
ENDROOT
BRANCH   2  14
ATOM     14  C   UNL d   1     -46.321  13.520  22.992  0.00  0.00     0.231 C 
ATOM     15  O   UNL d   1     -45.917  13.622  23.695  0.00  0.00    -0.643 OA
ATOM     16  O   UNL d   1     -45.905  13.331  22.304  0.00  0.00    -0.643 OA
ENDBRANCH   2  14
TORSDOF 1
ENDMDL
MODEL 3
REMARK VINA RESULT:      -8.0      1.438      1.897
REMARK  1 active torsions:
REMARK  status: ('A' for Active; 'I' for Inactive)
REMARK    1  A    between atoms: C_7  and  C_2 
ROOT
ATOM      1  C   UNL d   1     -47.555  13.311  22.505  0.00  0.00     0.070 A 
ATOM      2  C   UNL d   1     -46.926  13.722  22.793  0.00  0.00     0.170 A 
ATOM      3  C   UNL d   1     -48.193  13.826  22.385  0.00  0.00     0.108 A 
ATOM      4  N   UNL d   1     -47.157  14.530  22.864  0.00  0.00    -0.142 NA
ATOM      5  N   UNL d   1     -47.943  14.579  22.608  0.00  0.00    -0.148 NA
ATOM      6  C   UNL d   1     -48.907  13.527  22.090  0.00  0.00     0.042 A 
ATOM      7  C   UNL d   1     -47.630  12.508  22.332  0.00  0.00     0.126 A 
ATOM      8  O   UNL d   1     -48.344  12.209  22.037  0.00  0.00    -0.305 OA
ATOM      9  C   UNL d   1     -48.981  12.724  21.917  0.00  0.00     0.102 A 
ATOM     10  C   UNL d   1     -49.544  14.041  21.970  0.00  0.00     0.004 A 
ATOM     11  C   UNL d   1     -49.695  12.424  21.622  0.00  0.00     0.025 A 
ATOM     12  C   UNL d   1     -50.247  13.741  21.678  0.00  0.00     0.000 A 
ATOM     13  C   UNL d   1     -50.322  12.937  21.505  0.00  0.00     0.002 A 
ENDROOT
BRANCH   2  14
ATOM     14  C   UNL d   1     -46.209  13.379  22.971  0.00  0.00     0.231 C 
ATOM     15  O   UNL d   1     -46.093  13.025  23.698  0.00  0.00    -0.643 OA
ATOM     16  O   UNL d   1     -45.597  13.389  22.417  0.00  0.00    -0.643 OA
ENDBRANCH   2  14
TORSDOF 1
ENDMDL
MODEL 4
REMARK VINA RESULT:      -8.0      1.422      3.176
REMARK  1 active torsions:
REMARK  status: ('A' for Active; 'I' for Inactive)
REMARK    1  A    between atoms: C_7  and  C_2 
ROOT
ATOM      1  C   UNL d   1     -48.982  12.557  22.967  0.00  0.00     0.070 A 
ATOM      2  C   UNL d   1     -49.494  11.937  22.982  0.00  0.00     0.170 A 
ATOM      3  C   UNL d   1     -48.203  12.275  22.968  0.00  0.00     0.108 A 
ATOM      4  N   UNL d   1     -49.039  11.227  22.992  0.00  0.00    -0.142 NA
ATOM      5  N   UNL d   1     -48.241  11.452  22.984  0.00  0.00    -0.148 NA
ATOM      6  C   UNL d   1     -47.575  12.815  22.955  0.00  0.00     0.042 A 
ATOM      7  C   UNL d   1     -49.131  13.368  22.953  0.00  0.00     0.126 A 
ATOM      8  O   UNL d   1     -48.504  13.908  22.940  0.00  0.00    -0.305 OA
ATOM      9  C   UNL d   1     -47.725  13.627  22.940  0.00  0.00     0.102 A 
ATOM     10  C   UNL d   1     -46.796  12.534  22.955  0.00  0.00     0.004 A 
ATOM     11  C   UNL d   1     -47.097  14.167  22.927  0.00  0.00     0.025 A 
ATOM     12  C   UNL d   1     -46.180  13.072  22.942  0.00  0.00     0.000 A 
ATOM     13  C   UNL d   1     -46.329  13.883  22.928  0.00  0.00     0.002 A 
ENDROOT
BRANCH   2  14
ATOM     14  C   UNL d   1     -50.304  12.023  22.985  0.00  0.00     0.231 C 
ATOM     15  O   UNL d   1     -50.707  12.139  22.284  0.00  0.00    -0.643 OA
ATOM     16  O   UNL d   1     -50.720  11.992  23.697  0.00  0.00    -0.643 OA
ENDBRANCH   2  14
TORSDOF 1
ENDMDL
MODEL 5
REMARK VINA RESULT:      -7.9      2.033      3.235
REMARK  1 active torsions:
REMARK  status: ('A' for Active; 'I' for Inactive)
REMARK    1  A    between atoms: C_7  and  C_2 
ROOT
ATOM      1  C   UNL d   1     -48.672  14.570  22.941  0.00  0.00     0.070 A 
ATOM      2  C   UNL d   1     -49.461  14.663  23.066  0.00  0.00     0.170 A 
ATOM      3  C   UNL d   1     -48.456  13.786  23.099  0.00  0.00     0.108 A 
ATOM      4  N   UNL d   1     -49.773  13.920  23.314  0.00  0.00    -0.142 NA
ATOM      5  N   UNL d   1     -49.139  13.386  23.329  0.00  0.00    -0.148 NA
ATOM      6  C   UNL d   1     -47.665  13.556  23.007  0.00  0.00     0.042 A 
ATOM      7  C   UNL d   1     -48.105  15.117  22.696  0.00  0.00     0.126 A 
ATOM      8  O   UNL d   1     -47.314  14.887  22.604  0.00  0.00    -0.305 OA
ATOM      9  C   UNL d   1     -47.098  14.103  22.762  0.00  0.00     0.102 A 
ATOM     10  C   UNL d   1     -47.449  12.772  23.165  0.00  0.00     0.004 A 
ATOM     11  C   UNL d   1     -46.308  13.873  22.670  0.00  0.00     0.025 A 
ATOM     12  C   UNL d   1     -46.666  12.550  23.073  0.00  0.00     0.000 A 
ATOM     13  C   UNL d   1     -46.099  13.097  22.827  0.00  0.00     0.002 A 
ENDROOT
BRANCH   2  14
ATOM     14  C   UNL d   1     -49.852  15.370  22.961  0.00  0.00     0.231 C 
ATOM     15  O   UNL d   1     -50.205  15.541  22.245  0.00  0.00    -0.643 OA
ATOM     16  O   UNL d   1     -49.892  15.917  23.580  0.00  0.00    -0.643 OA
ENDBRANCH   2  14
TORSDOF 1
ENDMDL
MODEL 6
REMARK VINA RESULT:      -7.8      2.003      3.105
REMARK  1 active torsions:
REMARK  status: ('A' for Active; 'I' for Inactive)
REMARK    1  A    between atoms: C_7  and  C_2 
ROOT
ATOM      1  C   UNL d   1     -48.696  14.333  22.933  0.00  0.00     0.070 A 
ATOM      2  C   UNL d   1     -48.940  15.067  22.713  0.00  0.00     0.170 A 
ATOM      3  C   UNL d   1     -47.880  14.262  22.811  0.00  0.00     0.108 A 
ATOM      4  N   UNL d   1     -48.265  15.491  22.439  0.00  0.00    -0.142 NA
ATOM      5  N   UNL d   1     -47.616  14.980  22.505  0.00  0.00    -0.148 NA
ATOM      6  C   UNL d   1     -47.502  13.549  22.999  0.00  0.00     0.042 A 
ATOM      7  C   UNL d   1     -49.128  13.700  23.238  0.00  0.00     0.126 A 
ATOM      8  O   UNL d   1     -48.750  12.987  23.426  0.00  0.00    -0.305 OA
ATOM      9  C   UNL d   1     -47.934  12.916  23.304  0.00  0.00     0.102 A 
ATOM     10  C   UNL d   1     -46.686  13.478  22.877  0.00  0.00     0.004 A 
ATOM     11  C   UNL d   1     -47.555  12.204  23.492  0.00  0.00     0.025 A 
ATOM     12  C   UNL d   1     -46.316  12.772  23.064  0.00  0.00     0.000 A 
ATOM     13  C   UNL d   1     -46.748  12.139  23.370  0.00  0.00     0.002 A 
ENDROOT
BRANCH   2  14
ATOM     14  C   UNL d   1     -49.714  15.317  22.762  0.00  0.00     0.231 C 
ATOM     15  O   UNL d   1     -50.230  15.179  22.145  0.00  0.00    -0.643 OA
ATOM     16  O   UNL d   1     -49.978  15.712  23.438  0.00  0.00    -0.643 OA
ENDBRANCH   2  14
TORSDOF 1
ENDMDL
MODEL 7
REMARK VINA RESULT:      -7.2      1.946      2.857
REMARK  1 active torsions:
REMARK  status: ('A' for Active; 'I' for Inactive)
REMARK    1  A    between atoms: C_7  and  C_2 
ROOT
ATOM      1  C   UNL d   1     -48.883  12.810  23.075  0.00  0.00     0.070 A 
ATOM      2  C   UNL d   1     -48.259  12.328  22.916  0.00  0.00     0.170 A 
ATOM      3  C   UNL d   1     -48.667  13.598  22.943  0.00  0.00     0.108 A 
ATOM      4  N   UNL d   1     -47.613  12.814  22.673  0.00  0.00    -0.142 NA
ATOM      5  N   UNL d   1     -47.881  13.598  22.694  0.00  0.00    -0.148 NA
ATOM      6  C   UNL d   1     -49.224  14.198  23.071  0.00  0.00     0.042 A 
ATOM      7  C   UNL d   1     -49.645  12.623  23.331  0.00  0.00     0.126 A 
ATOM      8  O   UNL d   1     -50.201  13.223  23.459  0.00  0.00    -0.305 OA
ATOM      9  C   UNL d   1     -49.985  14.012  23.327  0.00  0.00     0.102 A 
ATOM     10  C   UNL d   1     -49.008  14.987  22.939  0.00  0.00     0.004 A 
ATOM     11  C   UNL d   1     -50.542  14.612  23.454  0.00  0.00     0.025 A 
ATOM     12  C   UNL d   1     -49.562  15.576  23.066  0.00  0.00     0.000 A 
ATOM     13  C   UNL d   1     -50.323  15.390  23.323  0.00  0.00     0.002 A 
ENDROOT
BRANCH   2  14
ATOM     14  C   UNL d   1     -48.286  11.517  22.990  0.00  0.00     0.231 C 
ATOM     15  O   UNL d   1     -48.083  11.163  23.698  0.00  0.00    -0.643 OA
ATOM     16  O   UNL d   1     -48.518  11.051  22.349  0.00  0.00    -0.643 OA
ENDBRANCH   2  14
TORSDOF 1
ENDMDL
MODEL 8
REMARK VINA RESULT:      -6.5      8.094      8.689
REMARK  1 active torsions:
REMARK  status: ('A' for Active; 'I' for Inactive)
REMARK    1  A    between atoms: C_7  and  C_2 
ROOT
ATOM      1  C   UNL d   1     -40.610  15.013  18.359  0.00  0.00     0.070 A 
ATOM      2  C   UNL d   1     -40.567  14.729  17.608  0.00  0.00     0.170 A 
ATOM      3  C   UNL d   1     -40.382  14.422  18.893  0.00  0.00     0.108 A 
ATOM      4  N   UNL d   1     -40.302  13.929  17.649  0.00  0.00    -0.142 NA
ATOM      5  N   UNL d   1     -40.192  13.753  18.451  0.00  0.00    -0.148 NA
ATOM      6  C   UNL d   1     -40.383  14.587  19.705  0.00  0.00     0.042 A 
ATOM      7  C   UNL d   1     -40.836  15.758  18.633  0.00  0.00     0.126 A 
ATOM      8  O   UNL d   1     -40.837  15.922  19.445  0.00  0.00    -0.305 OA
ATOM      9  C   UNL d   1     -40.609  15.332  19.979  0.00  0.00     0.102 A 
ATOM     10  C   UNL d   1     -40.155  13.997  20.240  0.00  0.00     0.004 A 
ATOM     11  C   UNL d   1     -40.610  15.496  20.791  0.00  0.00     0.025 A 
ATOM     12  C   UNL d   1     -40.158  14.164  21.041  0.00  0.00     0.000 A 
ATOM     13  C   UNL d   1     -40.384  14.909  21.315  0.00  0.00     0.002 A 
ENDROOT
BRANCH   2  14
ATOM     14  C   UNL d   1     -40.754  15.171  16.949  0.00  0.00     0.231 C 
ATOM     15  O   UNL d   1     -40.178  15.612  16.573  0.00  0.00    -0.643 OA
ATOM     16  O   UNL d   1     -41.527  15.173  16.659  0.00  0.00    -0.643 OA
ENDBRANCH   2  14
TORSDOF 1
ENDMDL
