MODEL 1
REMARK VINA RESULT:     121.9      0.000      0.000
REMARK  6 active torsions:
REMARK  status: ('A' for Active; 'I' for Inactive)
REMARK    1  A    between atoms: N_3  and  S_1 
REMARK    2  A    between atoms: C_5  and  S_1 
REMARK    3  A    between atoms: S_2  and  N_4 
REMARK    4  A    between atoms: C_6  and  S_2 
REMARK    5  A    between atoms: O_25  and  C_15 
REMARK    6  A    between atoms: O_26  and  C_16 
ROOT
ATOM      1  N   UNL d   1      61.684  44.982  50.750  0.00  0.00    -0.228 N 
ATOM      2  N   UNL d   1      61.223  46.567  50.701  0.00  0.00    -0.226 N 
ATOM      3  C   UNL d   1      61.765  45.421  50.050  0.00  0.00     0.093 A 
ATOM      4  C   UNL d   1      61.538  46.206  50.024  0.00  0.00     0.110 A 
ATOM      5  C   UNL d   1      61.371  45.339  51.423  0.00  0.00     0.111 A 
ATOM      6  C   UNL d   1      61.138  46.137  51.400  0.00  0.00     0.111 A 
ATOM      7  C   UNL d   1      62.081  45.060  49.373  0.00  0.00     0.021 C 
ENDROOT
BRANCH   1   8
ATOM      8  S   UNL d   1      61.914  44.198  50.768  0.00  0.00     0.273 S 
ATOM      9  O   UNL d   1      62.524  43.932  50.288  0.00  0.00    -0.200 OA
ATOM     10  O   UNL d   1      61.528  43.666  51.274  0.00  0.00    -0.200 OA
BRANCH   8  11
ATOM     11  C   UNL d   1      62.128  43.402  50.803  0.00  0.00     0.126 A 
ATOM     12  C   UNL d   1      61.928  42.957  51.470  0.00  0.00     0.106 A 
ATOM     13  C   UNL d   1      62.134  42.168  51.517  0.00  0.00     0.025 A 
ATOM     14  C   UNL d   1      62.552  41.800  50.888  0.00  0.00     0.002 A 
ATOM     15  C   UNL d   1      62.751  42.249  50.221  0.00  0.00     0.001 A 
ATOM     16  C   UNL d   1      62.539  43.046  50.181  0.00  0.00     0.015 A 
ATOM     17  C   UNL d   1      63.158  41.901  49.602  0.00  0.00     0.000 C 
BRANCH  12  18
ATOM     18  O   UNL d   1      61.521  43.306  52.089  0.00  0.00    -0.327 OA
ATOM     19  C   UNL d   1      61.353  42.864  52.766  0.00  0.00     0.181 C 
ENDBRANCH  12  18
ENDBRANCH   8  11
ENDBRANCH   1   8
BRANCH   2  20
ATOM     20  S   UNL d   1      60.993  47.359  50.674  0.00  0.00     0.273 S 
ATOM     21  O   UNL d   1      60.415  47.639  51.193  0.00  0.00    -0.200 OA
ATOM     22  O   UNL d   1      61.339  47.872  50.131  0.00  0.00    -0.200 OA
BRANCH  20  23
ATOM     23  C   UNL d   1      60.744  48.146  50.669  0.00  0.00     0.126 A 
ATOM     24  C   UNL d   1      60.853  48.612  51.340  0.00  0.00     0.106 A 
ATOM     25  C   UNL d   1      60.605  49.391  51.331  0.00  0.00     0.025 A 
ATOM     26  C   UNL d   1      60.251  49.708  50.659  0.00  0.00     0.002 A 
ATOM     27  C   UNL d   1      60.145  49.237  49.991  0.00  0.00     0.001 A 
ATOM     28  C   UNL d   1      60.395  48.451  50.000  0.00  0.00     0.015 A 
ATOM     29  C   UNL d   1      59.789  49.549  49.311  0.00  0.00     0.000 C 
BRANCH  24  30
ATOM     30  O   UNL d   1      61.205  48.300  52.009  0.00  0.00    -0.327 OA
ATOM     31  C   UNL d   1      61.534  48.796  52.573  0.00  0.00     0.181 C 
ENDBRANCH  24  30
ENDBRANCH  20  23
ENDBRANCH   2  20
TORSDOF 6
ENDMDL
MODEL 2
REMARK VINA RESULT:     124.4      0.357      5.405
REMARK  6 active torsions:
REMARK  status: ('A' for Active; 'I' for Inactive)
REMARK    1  A    between atoms: N_3  and  S_1 
REMARK    2  A    between atoms: C_5  and  S_1 
REMARK    3  A    between atoms: S_2  and  N_4 
REMARK    4  A    between atoms: C_6  and  S_2 
REMARK    5  A    between atoms: O_25  and  C_15 
REMARK    6  A    between atoms: O_26  and  C_16 
ROOT
ATOM      1  N   UNL d   1      61.114  46.522  50.788  0.00  0.00    -0.228 N 
ATOM      2  N   UNL d   1      61.586  44.940  50.852  0.00  0.00    -0.226 N 
ATOM      3  C   UNL d   1      61.614  46.209  50.204  0.00  0.00     0.093 A 
ATOM      4  C   UNL d   1      61.848  45.427  50.234  0.00  0.00     0.110 A 
ATOM      5  C   UNL d   1      60.852  46.040  51.403  0.00  0.00     0.111 A 
ATOM      6  C   UNL d   1      61.089  45.244  51.436  0.00  0.00     0.111 A 
ATOM      7  C   UNL d   1      61.877  46.695  49.585  0.00  0.00     0.021 C 
ENDROOT
BRANCH   1   8
ATOM      8  S   UNL d   1      60.884  47.306  50.751  0.00  0.00     0.273 S 
ATOM      9  O   UNL d   1      60.215  47.523  50.330  0.00  0.00    -0.200 OA
ATOM     10  O   UNL d   1      61.332  47.885  51.141  0.00  0.00    -0.200 OA
BRANCH   8  11
ATOM     11  C   UNL d   1      60.674  48.102  50.728  0.00  0.00     0.126 A 
ATOM     12  C   UNL d   1      60.924  48.606  51.332  0.00  0.00     0.106 A 
ATOM     13  C   UNL d   1      60.722  49.398  51.320  0.00  0.00     0.025 A 
ATOM     14  C   UNL d   1      60.256  49.708  50.693  0.00  0.00     0.002 A 
ATOM     15  C   UNL d   1      60.006  49.199  50.089  0.00  0.00     0.001 A 
ATOM     16  C   UNL d   1      60.215  48.401  50.108  0.00  0.00     0.015 A 
ATOM     17  C   UNL d   1      59.551  49.490  49.474  0.00  0.00     0.000 C 
BRANCH  12  18
ATOM     18  O   UNL d   1      61.379  48.315  51.948  0.00  0.00    -0.327 OA
ATOM     19  C   UNL d   1      61.544  48.799  52.596  0.00  0.00     0.181 C 
ENDBRANCH  12  18
ENDBRANCH   8  11
ENDBRANCH   1   8
BRANCH   2  20
ATOM     20  S   UNL d   1      61.823  44.150  50.882  0.00  0.00     0.273 S 
ATOM     21  O   UNL d   1      61.779  43.733  51.593  0.00  0.00    -0.200 OA
ATOM     22  O   UNL d   1      62.102  43.777  50.204  0.00  0.00    -0.200 OA
BRANCH  20  23
ATOM     23  C   UNL d   1      62.053  43.360  50.941  0.00  0.00     0.126 A 
ATOM     24  C   UNL d   1      61.843  42.922  51.606  0.00  0.00     0.106 A 
ATOM     25  C   UNL d   1      62.072  42.140  51.660  0.00  0.00     0.025 A 
ATOM     26  C   UNL d   1      62.509  41.791  51.056  0.00  0.00     0.002 A 
ATOM     27  C   UNL d   1      62.717  42.234  50.393  0.00  0.00     0.001 A 
ATOM     28  C   UNL d   1      62.485  43.024  50.338  0.00  0.00     0.015 A 
ATOM     29  C   UNL d   1      63.157  41.890  49.781  0.00  0.00     0.000 C 
BRANCH  24  30
ATOM     30  O   UNL d   1      61.408  43.266  52.208  0.00  0.00    -0.327 OA
ATOM     31  C   UNL d   1      61.269  42.855  52.904  0.00  0.00     0.181 C 
ENDBRANCH  24  30
ENDBRANCH  20  23
ENDBRANCH   2  20
TORSDOF 6
ENDMDL
