MODEL 1
REMARK VINA RESULT:      52.2      0.000      0.000
REMARK  6 active torsions:
REMARK  status: ('A' for Active; 'I' for Inactive)
REMARK    1  A    between atoms: C_7  and  N_1 
REMARK    2  A    between atoms: C_6  and  C_3 
REMARK       I    between atoms: N_9  and  C_6 
REMARK    3  A    between atoms: C_19  and  N_9 
REMARK    4  A    between atoms: C_10  and  C_19 
REMARK    5  A    between atoms: O_23  and  C_20 
REMARK    6  A    between atoms: C_24  and  O_23 
ROOT
ATOM      1  N   UNL d   1     -54.847-100.991 -41.006  0.00  0.00    -0.276 N 
ATOM      2  C   UNL d   1     -54.924-101.712 -40.637  0.00  0.00     0.181 A 
ATOM      3  C   UNL d   1     -54.930-101.564 -39.827  0.00  0.00     0.126 A 
ATOM      4  C   UNL d   1     -54.803-100.380 -40.415  0.00  0.00     0.152 A 
ATOM      5  S   UNL d   1     -54.857-100.755 -39.679  0.00  0.00    -0.051 SA
ATOM      6  S   UNL d   1     -54.723 -99.560 -40.546  0.00  0.00    -0.052 SA
ATOM      7  N   UNL d   1     -54.984-102.439 -41.006  0.00  0.00    -0.128 N 
ENDROOT
BRANCH   1   8
ATOM      8  C   UNL d   1     -54.818-100.895 -41.827  0.00  0.00     0.067 A 
ATOM      9  C   UNL d   1     -54.742-100.151 -42.140  0.00  0.00     0.020 A 
ATOM     10  C   UNL d   1     -54.712-100.042 -42.952  0.00  0.00     0.026 A 
ATOM     11  C   UNL d   1     -54.759-100.687 -43.467  0.00  0.00     0.100 A 
ATOM     12  C   UNL d   1     -54.835-101.438 -43.158  0.00  0.00     0.026 A 
ATOM     13  C   UNL d   1     -54.865-101.544 -42.330  0.00  0.00     0.020 A 
BRANCH  11  14
ATOM     14  O   UNL d   1     -54.732-100.614 -44.294  0.00  0.00    -0.305 OA
BRANCH  14  15
ATOM     15  C   UNL d   1     -55.300-100.141 -44.682  0.00  0.00     0.123 C 
ATOM     16  C   UNL d   1     -55.041 -99.506 -45.160  0.00  0.00     0.029 C 
ENDBRANCH  14  15
ENDBRANCH  11  14
ENDBRANCH   1   8
BRANCH   3  17
ATOM     17  C   UNL d   1     -54.999-102.138 -39.196  0.00  0.00     0.288 C 
ATOM     18  N   UNL d   1     -54.712-101.969 -38.451  0.00  0.00    -0.204 NA
ATOM     19  O   UNL d   1     -55.370-102.880 -39.360  0.00  0.00    -0.265 OA
BRANCH  18  20
ATOM     20  C   UNL d   1     -54.799-102.556 -37.859  0.00  0.00     0.127 C 
BRANCH  20  21
ATOM     21  C   UNL d   1     -54.904-102.312 -37.049  0.00  0.00     0.119 A 
ATOM     22  O   UNL d   1     -54.958-101.512 -36.864  0.00  0.00    -0.304 OA
ATOM     23  C   UNL d   1     -55.055-101.458 -36.057  0.00  0.00     0.123 A 
ATOM     24  C   UNL d   1     -55.064-102.187 -35.738  0.00  0.00     0.029 A 
ATOM     25  C   UNL d   1     -54.972-102.743 -36.332  0.00  0.00     0.028 A 
ENDBRANCH  20  21
ENDBRANCH  18  20
ENDBRANCH   3  17
TORSDOF 6
ENDMDL
