MODEL 1
REMARK VINA RESULT:      -1.9      0.000      0.000
REMARK  5 active torsions:
REMARK  status: ('A' for Active; 'I' for Inactive)
REMARK       I    between atoms: N_3  and  C_1 
REMARK    1  A    between atoms: C_4  and  C_1 
REMARK    2  A    between atoms: C_2  and  C_6 
REMARK    3  A    between atoms: O_5  and  C_2 
REMARK    4  A    between atoms: C_11  and  N_3 
REMARK    5  A    between atoms: C_14  and  O_5 
ROOT
ATOM      1  C   UNL d   1      32.518  18.834 -23.436  0.00  0.00     0.064 A 
ATOM      2  C   UNL d   1      31.879  18.947 -23.949  0.00  0.00     0.008 A 
ATOM      3  C   UNL d   1      32.731  18.066 -23.203  0.00  0.00     0.008 A 
ATOM      4  C   UNL d   1      31.667  17.532 -23.994  0.00  0.00     0.135 A 
ATOM      5  C   UNL d   1      31.455  18.300 -24.227  0.00  0.00     0.032 A 
ATOM      6  C   UNL d   1      32.302  17.417 -23.484  0.00  0.00     0.032 A 
ENDROOT
BRANCH   1   7
ATOM      7  C   UNL d   1      32.942  19.489 -23.160  0.00  0.00     0.300 C 
ATOM      8  O   UNL d   1      33.238  20.036 -23.698  0.00  0.00    -0.259 OA
BRANCH   7   9
ATOM      9  O   UNL d   1      33.065  19.591 -22.351  0.00  0.00    -0.273 OA
BRANCH   9  10
ATOM     10  C   UNL d   1      32.939  20.330 -22.008  0.00  0.00     0.103 A 
ATOM     11  C   UNL d   1      32.540  20.386 -21.289  0.00  0.00     0.025 A 
ATOM     12  C   UNL d   1      32.417  21.119 -20.953  0.00  0.00     0.002 A 
ATOM     13  C   UNL d   1      32.687  21.806 -21.323  0.00  0.00     0.000 A 
ATOM     14  C   UNL d   1      33.088  21.745 -22.047  0.00  0.00     0.002 A 
ATOM     15  C   UNL d   1      33.214  21.008 -22.390  0.00  0.00     0.025 A 
ENDBRANCH   9  10
ENDBRANCH   7   9
ENDBRANCH   1   7
BRANCH   4  16
ATOM     16  N   UNL d   1      31.236  16.882 -24.277  0.00  0.00    -0.368 NA
ATOM     17  C   UNL d   1      30.808  16.239 -24.556  0.00  0.00     0.303 C 
ATOM     18  O   UNL d   1      31.179  15.663 -25.014  0.00  0.00    -0.256 OA
BRANCH  17  19
ATOM     19  C   UNL d   1      30.006  16.170 -24.377  0.00  0.00     0.085 C 
ATOM     20  C   UNL d   1      29.454  16.661 -24.744  0.00  0.00     0.011 C 
ATOM     21  C   UNL d   1      30.378  15.598 -23.909  0.00  0.00     0.011 C 
ATOM     22  C   UNL d   1      29.752  15.610 -23.830  0.00  0.00     0.011 C 
ENDBRANCH  17  19
ENDBRANCH   4  16
TORSDOF 5
ENDMDL
MODEL 2
REMARK VINA RESULT:      -0.2      0.967      5.036
REMARK  5 active torsions:
REMARK  status: ('A' for Active; 'I' for Inactive)
REMARK       I    between atoms: N_3  and  C_1 
REMARK    1  A    between atoms: C_4  and  C_1 
REMARK    2  A    between atoms: C_2  and  C_6 
REMARK    3  A    between atoms: O_5  and  C_2 
REMARK    4  A    between atoms: C_11  and  N_3 
REMARK    5  A    between atoms: C_14  and  O_5 
ROOT
ATOM      1  C   UNL d   1      31.456  17.083 -24.063  0.00  0.00     0.064 A 
ATOM      2  C   UNL d   1      32.103  17.062 -23.549  0.00  0.00     0.008 A 
ATOM      3  C   UNL d   1      31.176  17.811 -24.347  0.00  0.00     0.008 A 
ATOM      4  C   UNL d   1      32.190  18.490 -23.603  0.00  0.00     0.135 A 
ATOM      5  C   UNL d   1      32.469  17.762 -23.319  0.00  0.00     0.032 A 
ATOM      6  C   UNL d   1      31.546  18.514 -24.114  0.00  0.00     0.032 A 
ENDROOT
BRANCH   1   7
ATOM      7  C   UNL d   1      31.091  16.376 -24.291  0.00  0.00     0.300 C 
ATOM      8  O   UNL d   1      31.156  16.120 -25.070  0.00  0.00    -0.259 OA
BRANCH   7   9
ATOM      9  O   UNL d   1      30.667  15.932 -23.740  0.00  0.00    -0.273 OA
BRANCH   9  10
ATOM     10  C   UNL d   1      29.849  15.864 -23.812  0.00  0.00     0.103 A 
ATOM     11  C   UNL d   1      29.525  15.518 -24.486  0.00  0.00     0.025 A 
ATOM     12  C   UNL d   1      28.714  15.453 -24.555  0.00  0.00     0.002 A 
ATOM     13  C   UNL d   1      28.215  15.728 -23.958  0.00  0.00     0.000 A 
ATOM     14  C   UNL d   1      28.546  16.076 -23.281  0.00  0.00     0.002 A 
ATOM     15  C   UNL d   1      29.362  16.144 -23.208  0.00  0.00     0.025 A 
ENDBRANCH   9  10
ENDBRANCH   7   9
ENDBRANCH   1   7
BRANCH   4  16
ATOM     16  N   UNL d   1      32.563  19.194 -23.369  0.00  0.00    -0.368 NA
ATOM     17  C   UNL d   1      32.931  19.890 -23.135  0.00  0.00     0.303 C 
ATOM     18  O   UNL d   1      33.241  20.403 -23.701  0.00  0.00    -0.256 OA
BRANCH  17  19
ATOM     19  C   UNL d   1      32.990  20.075 -22.334  0.00  0.00     0.085 C 
ATOM     20  C   UNL d   1      32.875  19.491 -21.762  0.00  0.00     0.011 C 
ATOM     21  C   UNL d   1      33.137  20.788 -22.727  0.00  0.00     0.011 C 
ATOM     22  C   UNL d   1      33.164  20.845 -22.099  0.00  0.00     0.011 C 
ENDBRANCH  17  19
ENDBRANCH   4  16
TORSDOF 5
ENDMDL
MODEL 3
REMARK VINA RESULT:       0.8      3.083      6.373
REMARK  5 active torsions:
REMARK  status: ('A' for Active; 'I' for Inactive)
REMARK       I    between atoms: N_3  and  C_1 
REMARK    1  A    between atoms: C_4  and  C_1 
REMARK    2  A    between atoms: C_2  and  C_6 
REMARK    3  A    between atoms: O_5  and  C_2 
REMARK    4  A    between atoms: C_11  and  N_3 
REMARK    5  A    between atoms: C_14  and  O_5 
ROOT
ATOM      1  C   UNL d   1      32.467  21.275 -20.965  0.00  0.00     0.064 A 
ATOM      2  C   UNL d   1      32.591  22.084 -21.088  0.00  0.00     0.008 A 
ATOM      3  C   UNL d   1      32.359  20.987 -20.194  0.00  0.00     0.008 A 
ATOM      4  C   UNL d   1      32.498  22.312 -19.678  0.00  0.00     0.135 A 
ATOM      5  C   UNL d   1      32.606  22.601 -20.449  0.00  0.00     0.032 A 
ATOM      6  C   UNL d   1      32.375  21.508 -19.553  0.00  0.00     0.032 A 
ENDROOT
BRANCH   1   7
ATOM      7  C   UNL d   1      32.453  20.760 -21.612  0.00  0.00     0.300 C 
ATOM      8  O   UNL d   1      31.784  20.301 -21.749  0.00  0.00    -0.259 OA
BRANCH   7   9
ATOM      9  O   UNL d   1      33.104  20.709 -22.116  0.00  0.00    -0.273 OA
BRANCH   9  10
ATOM     10  C   UNL d   1      33.036  20.309 -22.833  0.00  0.00     0.103 A 
ATOM     11  C   UNL d   1      33.020  20.733 -23.539  0.00  0.00     0.025 A 
ATOM     12  C   UNL d   1      32.953  20.332 -24.247  0.00  0.00     0.002 A 
ATOM     13  C   UNL d   1      32.900  19.509 -24.266  0.00  0.00     0.000 A 
ATOM     14  C   UNL d   1      32.916  19.086 -23.551  0.00  0.00     0.002 A 
ATOM     15  C   UNL d   1      32.984  19.485 -22.835  0.00  0.00     0.025 A 
ENDBRANCH   9  10
ENDBRANCH   7   9
ENDBRANCH   1   7
BRANCH   4  16
ATOM     16  N   UNL d   1      32.514  22.837 -19.035  0.00  0.00    -0.368 NA
ATOM     17  C   UNL d   1      32.528  23.356 -18.399  0.00  0.00     0.303 C 
ATOM     18  O   UNL d   1      33.240  23.698 -18.161  0.00  0.00    -0.256 OA
BRANCH  17  19
ATOM     19  C   UNL d   1      31.830  23.535 -18.000  0.00  0.00     0.085 C 
ATOM     20  C   UNL d   1      31.140  23.702 -18.420  0.00  0.00     0.011 C 
ATOM     21  C   UNL d   1      32.389  23.404 -17.403  0.00  0.00     0.011 C 
ATOM     22  C   UNL d   1      31.818  23.549 -17.176  0.00  0.00     0.011 C 
ENDBRANCH  17  19
ENDBRANCH   4  16
TORSDOF 5
ENDMDL
MODEL 4
REMARK VINA RESULT:       1.0      2.099      5.180
REMARK  5 active torsions:
REMARK  status: ('A' for Active; 'I' for Inactive)
REMARK       I    between atoms: N_3  and  C_1 
REMARK    1  A    between atoms: C_4  and  C_1 
REMARK    2  A    between atoms: C_2  and  C_6 
REMARK    3  A    between atoms: O_5  and  C_2 
REMARK    4  A    between atoms: C_11  and  N_3 
REMARK    5  A    between atoms: C_14  and  O_5 
ROOT
ATOM      1  C   UNL d   1      29.746  16.489 -24.166  0.00  0.00     0.064 A 
ATOM      2  C   UNL d   1      29.827  17.299 -24.311  0.00  0.00     0.008 A 
ATOM      3  C   UNL d   1      30.421  16.012 -24.095  0.00  0.00     0.008 A 
ATOM      4  C   UNL d   1      31.252  17.153 -24.314  0.00  0.00     0.135 A 
ATOM      5  C   UNL d   1      30.576  17.631 -24.385  0.00  0.00     0.032 A 
ATOM      6  C   UNL d   1      31.173  16.347 -24.170  0.00  0.00     0.032 A 
ENDROOT
BRANCH   1   7
ATOM      7  C   UNL d   1      28.990  16.161 -24.092  0.00  0.00     0.300 C 
ATOM      8  O   UNL d   1      28.541  16.025 -24.768  0.00  0.00    -0.259 OA
BRANCH   7   9
ATOM      9  O   UNL d   1      28.690  15.973 -23.347  0.00  0.00    -0.273 OA
BRANCH   9  10
ATOM     10  C   UNL d   1      27.881  16.034 -23.205  0.00  0.00     0.103 A 
ATOM     11  C   UNL d   1      27.587  16.673 -22.775  0.00  0.00     0.025 A 
ATOM     12  C   UNL d   1      26.785  16.729 -22.636  0.00  0.00     0.002 A 
ATOM     13  C   UNL d   1      26.264  16.156 -22.920  0.00  0.00     0.000 A 
ATOM     14  C   UNL d   1      26.564  15.514 -23.352  0.00  0.00     0.002 A 
ATOM     15  C   UNL d   1      27.372  15.453 -23.495  0.00  0.00     0.025 A 
ENDBRANCH   9  10
ENDBRANCH   7   9
ENDBRANCH   1   7
BRANCH   4  16
ATOM     16  N   UNL d   1      32.006  17.492 -24.390  0.00  0.00    -0.368 NA
ATOM     17  C   UNL d   1      32.751  17.829 -24.463  0.00  0.00     0.303 C 
ATOM     18  O   UNL d   1      33.241  17.614 -25.090  0.00  0.00    -0.256 OA
BRANCH  17  19
ATOM     19  C   UNL d   1      33.009  18.381 -23.908  0.00  0.00     0.085 C 
ATOM     20  C   UNL d   1      33.056  18.178 -23.110  0.00  0.00     0.011 C 
ATOM     21  C   UNL d   1      33.036  18.780 -24.633  0.00  0.00     0.011 C 
ATOM     22  C   UNL d   1      33.221  19.140 -24.148  0.00  0.00     0.011 C 
ENDBRANCH  17  19
ENDBRANCH   4  16
TORSDOF 5
ENDMDL
