MODEL 1
REMARK VINA RESULT:      -6.8      0.000      0.000
REMARK  4 active torsions:
REMARK  status: ('A' for Active; 'I' for Inactive)
REMARK    1  A    between atoms: N_3  and  C_1 
REMARK    2  A    between atoms: C_6  and  C_2 
REMARK    3  A    between atoms: C_13  and  N_8 
REMARK    4  A    between atoms: C_16  and  C_13 
ROOT
ATOM      1  N   UNL d   1     -48.831  13.782  22.909  0.00  0.00    -0.286 N 
ATOM      2  N   UNL d   1     -47.207  13.726  23.262  0.00  0.00    -0.300 N 
ATOM      3  C   UNL d   1     -48.360  14.446  22.783  0.00  0.00     0.101 A 
ATOM      4  C   UNL d   1     -48.499  13.080  23.213  0.00  0.00     0.101 A 
ATOM      5  C   UNL d   1     -47.695  13.055  23.387  0.00  0.00     0.100 A 
ATOM      6  C   UNL d   1     -47.548  14.418  22.960  0.00  0.00     0.100 A 
ENDROOT
BRANCH   1   7
ATOM      7  C   UNL d   1     -49.579  14.047  22.666  0.00  0.00     0.149 A 
ATOM      8  C   UNL d   1     -49.944  13.686  22.006  0.00  0.00     0.056 A 
ATOM      9  C   UNL d   1     -50.685  13.949  21.766  0.00  0.00     0.006 A 
ATOM     10  C   UNL d   1     -51.064  13.602  21.111  0.00  0.00     0.000 C 
ATOM     11  C   UNL d   1     -51.061  14.569  22.181  0.00  0.00     0.019 A 
ATOM     12  C   UNL d   1     -50.688  14.920  22.837  0.00  0.00     0.083 A 
ATOM     13  N   UNL d   1     -49.948  14.655  23.074  0.00  0.00    -0.228 NA
ATOM     14  C   UNL d   1     -51.064  15.535  23.247  0.00  0.00     0.021 C 
BRANCH   8  15
ATOM     15  C   UNL d   1     -49.568  13.077  21.602  0.00  0.00     0.125 C 
ATOM     16  N   UNL d   1     -50.013  12.485  21.243  0.00  0.00    -0.146 N 
ENDBRANCH   8  15
ENDBRANCH   1   7
BRANCH   2  17
ATOM     17  C   UNL d   1     -46.402  13.692  23.439  0.00  0.00     0.080 C 
BRANCH  17  18
ATOM     18  C   UNL d   1     -45.877  13.323  22.921  0.00  0.00     0.018 A 
ATOM     19  C   UNL d   1     -45.520  13.758  22.323  0.00  0.00     0.002 A 
ATOM     20  C   UNL d   1     -44.995  13.388  21.805  0.00  0.00     0.000 A 
ATOM     21  C   UNL d   1     -44.834  12.590  21.892  0.00  0.00     0.000 A 
ATOM     22  C   UNL d   1     -45.192  12.149  22.492  0.00  0.00     0.000 A 
ATOM     23  C   UNL d   1     -45.717  12.523  23.008  0.00  0.00     0.002 A 
ENDBRANCH  17  18
ENDBRANCH   2  17
TORSDOF 4
ENDMDL
MODEL 2
REMARK VINA RESULT:      -6.5      1.206      4.738
REMARK  4 active torsions:
REMARK  status: ('A' for Active; 'I' for Inactive)
REMARK    1  A    between atoms: N_3  and  C_1 
REMARK    2  A    between atoms: C_6  and  C_2 
REMARK    3  A    between atoms: C_13  and  N_8 
REMARK    4  A    between atoms: C_16  and  C_13 
ROOT
ATOM      1  N   UNL d   1     -47.670  12.240  23.202  0.00  0.00    -0.286 N 
ATOM      2  N   UNL d   1     -49.297  12.277  22.855  0.00  0.00    -0.300 N 
ATOM      3  C   UNL d   1     -47.960  11.839  22.543  0.00  0.00     0.101 A 
ATOM      4  C   UNL d   1     -48.188  12.665  23.698  0.00  0.00     0.101 A 
ATOM      5  C   UNL d   1     -48.992  12.682  23.524  0.00  0.00     0.100 A 
ATOM      6  C   UNL d   1     -48.772  11.857  22.369  0.00  0.00     0.100 A 
ENDROOT
BRANCH   1   7
ATOM      7  C   UNL d   1     -46.857  12.078  23.165  0.00  0.00     0.149 A 
ATOM      8  C   UNL d   1     -46.341  12.656  22.852  0.00  0.00     0.056 A 
ATOM      9  C   UNL d   1     -45.535  12.495  22.815  0.00  0.00     0.006 A 
ATOM     10  C   UNL d   1     -45.005  13.058  22.507  0.00  0.00     0.000 C 
ATOM     11  C   UNL d   1     -45.246  11.761  23.090  0.00  0.00     0.019 A 
ATOM     12  C   UNL d   1     -45.768  11.193  23.399  0.00  0.00     0.083 A 
ATOM     13  N   UNL d   1     -46.573  11.357  23.434  0.00  0.00    -0.228 NA
ATOM     14  C   UNL d   1     -45.477  10.466  23.670  0.00  0.00     0.021 C 
BRANCH   8  15
ATOM     15  C   UNL d   1     -46.633  13.375  22.584  0.00  0.00     0.125 C 
ATOM     16  N   UNL d   1     -46.161  14.050  22.616  0.00  0.00    -0.146 N 
ENDBRANCH   8  15
ENDBRANCH   1   7
BRANCH   2  17
ATOM     17  C   UNL d   1     -50.104  12.299  22.688  0.00  0.00     0.080 C 
BRANCH  17  18
ATOM     18  C   UNL d   1     -50.426  12.934  22.271  0.00  0.00     0.018 A 
ATOM     19  C   UNL d   1     -50.699  13.593  22.678  0.00  0.00     0.002 A 
ATOM     20  C   UNL d   1     -51.021  14.228  22.260  0.00  0.00     0.000 A 
ATOM     21  C   UNL d   1     -51.064  14.195  21.443  0.00  0.00     0.000 A 
ATOM     22  C   UNL d   1     -50.790  13.533  21.031  0.00  0.00     0.000 A 
ATOM     23  C   UNL d   1     -50.469  12.900  21.453  0.00  0.00     0.002 A 
ENDBRANCH  17  18
ENDBRANCH   2  17
TORSDOF 4
ENDMDL
MODEL 3
REMARK VINA RESULT:      -6.1      0.628      1.610
REMARK  4 active torsions:
REMARK  status: ('A' for Active; 'I' for Inactive)
REMARK    1  A    between atoms: N_3  and  C_1 
REMARK    2  A    between atoms: C_6  and  C_2 
REMARK    3  A    between atoms: C_13  and  N_8 
REMARK    4  A    between atoms: C_16  and  C_13 
ROOT
ATOM      1  N   UNL d   1     -48.439  13.968  22.662  0.00  0.00    -0.286 N 
ATOM      2  N   UNL d   1     -46.922  13.523  23.181  0.00  0.00    -0.300 N 
ATOM      3  C   UNL d   1     -48.299  13.195  22.910  0.00  0.00     0.101 A 
ATOM      4  C   UNL d   1     -47.824  14.532  22.669  0.00  0.00     0.101 A 
ATOM      5  C   UNL d   1     -47.074  14.309  22.926  0.00  0.00     0.100 A 
ATOM      6  C   UNL d   1     -47.541  12.973  23.169  0.00  0.00     0.100 A 
ENDROOT
BRANCH   1   7
ATOM      7  C   UNL d   1     -49.243  13.946  22.458  0.00  0.00     0.149 A 
ATOM      8  C   UNL d   1     -49.747  14.557  22.724  0.00  0.00     0.056 A 
ATOM      9  C   UNL d   1     -50.544  14.536  22.522  0.00  0.00     0.006 A 
ATOM     10  C   UNL d   1     -51.062  15.135  22.777  0.00  0.00     0.000 C 
ATOM     11  C   UNL d   1     -50.836  13.907  22.056  0.00  0.00     0.019 A 
ATOM     12  C   UNL d   1     -50.326  13.304  21.796  0.00  0.00     0.083 A 
ATOM     13  N   UNL d   1     -49.530  13.329  22.000  0.00  0.00    -0.228 NA
ATOM     14  C   UNL d   1     -50.619  12.682  21.334  0.00  0.00     0.021 C 
BRANCH   8  15
ATOM     15  C   UNL d   1     -49.452  15.172  23.182  0.00  0.00     0.125 C 
ATOM     16  N   UNL d   1     -49.908  15.846  23.312  0.00  0.00    -0.146 N 
ENDBRANCH   8  15
ENDBRANCH   1   7
BRANCH   2  17
ATOM     17  C   UNL d   1     -46.168  13.309  23.436  0.00  0.00     0.080 C 
BRANCH  17  18
ATOM     18  C   UNL d   1     -45.600  13.056  22.893  0.00  0.00     0.018 A 
ATOM     19  C   UNL d   1     -45.321  13.576  22.322  0.00  0.00     0.002 A 
ATOM     20  C   UNL d   1     -44.754  13.322  21.780  0.00  0.00     0.000 A 
ATOM     21  C   UNL d   1     -44.474  12.552  21.816  0.00  0.00     0.000 A 
ATOM     22  C   UNL d   1     -44.753  12.027  22.390  0.00  0.00     0.000 A 
ATOM     23  C   UNL d   1     -45.321  12.286  22.930  0.00  0.00     0.002 A 
ENDBRANCH  17  18
ENDBRANCH   2  17
TORSDOF 4
ENDMDL
MODEL 4
REMARK VINA RESULT:      -6.0      8.647     10.448
REMARK  4 active torsions:
REMARK  status: ('A' for Active; 'I' for Inactive)
REMARK    1  A    between atoms: N_3  and  C_1 
REMARK    2  A    between atoms: C_6  and  C_2 
REMARK    3  A    between atoms: C_13  and  N_8 
REMARK    4  A    between atoms: C_16  and  C_13 
ROOT
ATOM      1  N   UNL d   1     -39.606  14.635  18.022  0.00  0.00    -0.286 N 
ATOM      2  N   UNL d   1     -40.191  15.068  19.518  0.00  0.00    -0.300 N 
ATOM      3  C   UNL d   1     -39.228  15.225  18.457  0.00  0.00     0.101 A 
ATOM      4  C   UNL d   1     -40.281  14.253  18.327  0.00  0.00     0.101 A 
ATOM      5  C   UNL d   1     -40.569  14.469  19.068  0.00  0.00     0.100 A 
ATOM      6  C   UNL d   1     -39.520  15.441  19.205  0.00  0.00     0.100 A 
ENDROOT
BRANCH   1   7
ATOM      7  C   UNL d   1     -39.144  14.599  17.334  0.00  0.00     0.149 A 
ATOM      8  C   UNL d   1     -38.790  13.873  17.119  0.00  0.00     0.056 A 
ATOM      9  C   UNL d   1     -38.333  13.838  16.437  0.00  0.00     0.006 A 
ATOM     10  C   UNL d   1     -37.972  13.124  16.206  0.00  0.00     0.000 C 
ATOM     11  C   UNL d   1     -38.228  14.523  15.971  0.00  0.00     0.019 A 
ATOM     12  C   UNL d   1     -38.584  15.241  16.195  0.00  0.00     0.083 A 
ATOM     13  N   UNL d   1     -39.041  15.273  16.877  0.00  0.00    -0.228 NA
ATOM     14  C   UNL d   1     -38.478  15.919  15.730  0.00  0.00     0.021 C 
BRANCH   8  15
ATOM     15  C   UNL d   1     -38.898  13.203  17.581  0.00  0.00     0.125 C 
ATOM     16  N   UNL d   1     -38.409  12.548  17.479  0.00  0.00    -0.146 N 
ENDBRANCH   8  15
ENDBRANCH   1   7
BRANCH   2  17
ATOM     17  C   UNL d   1     -40.486  15.278  20.259  0.00  0.00     0.080 C 
BRANCH  17  18
ATOM     18  C   UNL d   1     -40.066  15.089  20.944  0.00  0.00     0.018 A 
ATOM     19  C   UNL d   1     -40.045  14.311  21.208  0.00  0.00     0.002 A 
ATOM     20  C   UNL d   1     -39.625  14.123  21.892  0.00  0.00     0.000 A 
ATOM     21  C   UNL d   1     -39.232  14.713  22.302  0.00  0.00     0.000 A 
ATOM     22  C   UNL d   1     -39.251  15.496  22.039  0.00  0.00     0.000 A 
ATOM     23  C   UNL d   1     -39.672  15.680  21.353  0.00  0.00     0.002 A 
ENDBRANCH  17  18
ENDBRANCH   2  17
TORSDOF 4
ENDMDL
MODEL 5
REMARK VINA RESULT:      -5.7      8.506      9.652
REMARK  4 active torsions:
REMARK  status: ('A' for Active; 'I' for Inactive)
REMARK    1  A    between atoms: N_3  and  C_1 
REMARK    2  A    between atoms: C_6  and  C_2 
REMARK    3  A    between atoms: C_13  and  N_8 
REMARK    4  A    between atoms: C_16  and  C_13 
ROOT
ATOM      1  N   UNL d   1     -39.980  14.553  19.269  0.00  0.00    -0.286 N 
ATOM      2  N   UNL d   1     -39.753  14.873  20.885  0.00  0.00    -0.300 N 
ATOM      3  C   UNL d   1     -39.259  14.853  19.532  0.00  0.00     0.101 A 
ATOM      4  C   UNL d   1     -40.599  14.408  19.808  0.00  0.00     0.101 A 
ATOM      5  C   UNL d   1     -40.484  14.567  20.607  0.00  0.00     0.100 A 
ATOM      6  C   UNL d   1     -39.145  15.013  20.339  0.00  0.00     0.100 A 
ENDROOT
BRANCH   1   7
ATOM      7  C   UNL d   1     -39.853  14.479  18.452  0.00  0.00     0.149 A 
ATOM      8  C   UNL d   1     -40.283  14.968  17.927  0.00  0.00     0.056 A 
ATOM      9  C   UNL d   1     -40.158  14.894  17.118  0.00  0.00     0.006 A 
ATOM     10  C   UNL d   1     -40.576  15.372  16.580  0.00  0.00     0.000 C 
ATOM     11  C   UNL d   1     -39.606  14.335  16.833  0.00  0.00     0.019 A 
ATOM     12  C   UNL d   1     -39.184  13.854  17.363  0.00  0.00     0.083 A 
ATOM     13  N   UNL d   1     -39.311  13.930  18.172  0.00  0.00    -0.228 NA
ATOM     14  C   UNL d   1     -38.637  13.301  17.076  0.00  0.00     0.021 C 
BRANCH   8  15
ATOM     15  C   UNL d   1     -40.824  15.515  18.215  0.00  0.00     0.125 C 
ATOM     16  N   UNL d   1     -41.315  15.922  17.695  0.00  0.00    -0.146 N 
ENDBRANCH   8  15
ENDBRANCH   1   7
BRANCH   2  17
ATOM     17  C   UNL d   1     -39.647  15.029  21.688  0.00  0.00     0.080 C 
BRANCH  17  18
ATOM     18  C   UNL d   1     -39.163  14.543  22.146  0.00  0.00     0.018 A 
ATOM     19  C   UNL d   1     -39.420  13.792  22.356  0.00  0.00     0.002 A 
ATOM     20  C   UNL d   1     -38.936  13.307  22.814  0.00  0.00     0.000 A 
ATOM     21  C   UNL d   1     -38.202  13.579  23.057  0.00  0.00     0.000 A 
ATOM     22  C   UNL d   1     -37.941  14.334  22.848  0.00  0.00     0.000 A 
ATOM     23  C   UNL d   1     -38.429  14.816  22.389  0.00  0.00     0.002 A 
ENDBRANCH  17  18
ENDBRANCH   2  17
TORSDOF 4
ENDMDL
MODEL 6
REMARK VINA RESULT:      -5.5      7.294      9.926
REMARK  4 active torsions:
REMARK  status: ('A' for Active; 'I' for Inactive)
REMARK    1  A    between atoms: N_3  and  C_1 
REMARK    2  A    between atoms: C_6  and  C_2 
REMARK    3  A    between atoms: C_13  and  N_8 
REMARK    4  A    between atoms: C_16  and  C_13 
ROOT
ATOM      1  N   UNL d   1     -40.312  15.119  19.246  0.00  0.00    -0.286 N 
ATOM      2  N   UNL d   1     -40.199  15.177  17.588  0.00  0.00    -0.300 N 
ATOM      3  C   UNL d   1     -40.287  14.420  18.810  0.00  0.00     0.101 A 
ATOM      4  C   UNL d   1     -40.281  15.858  18.861  0.00  0.00     0.101 A 
ATOM      5  C   UNL d   1     -40.225  15.884  18.040  0.00  0.00     0.100 A 
ATOM      6  C   UNL d   1     -40.230  14.449  17.982  0.00  0.00     0.100 A 
ENDROOT
BRANCH   1   7
ATOM      7  C   UNL d   1     -40.367  14.840  20.026  0.00  0.00     0.149 A 
ATOM      8  C   UNL d   1     -39.771  15.046  20.574  0.00  0.00     0.056 A 
ATOM      9  C   UNL d   1     -39.825  14.770  21.347  0.00  0.00     0.006 A 
ATOM     10  C   UNL d   1     -39.241  14.965  21.907  0.00  0.00     0.000 C 
ATOM     11  C   UNL d   1     -40.471  14.290  21.571  0.00  0.00     0.019 A 
ATOM     12  C   UNL d   1     -41.058  14.091  21.017  0.00  0.00     0.083 A 
ATOM     13  N   UNL d   1     -41.001  14.369  20.246  0.00  0.00    -0.228 NA
ATOM     14  C   UNL d   1     -41.697  13.614  21.244  0.00  0.00     0.021 C 
BRANCH   8  15
ATOM     15  C   UNL d   1     -39.139  15.519  20.346  0.00  0.00     0.125 C 
ATOM     16  N   UNL d   1     -38.458  15.549  20.808  0.00  0.00    -0.146 N 
ENDBRANCH   8  15
ENDBRANCH   1   7
BRANCH   2  17
ATOM     17  C   UNL d   1     -40.143  15.213  16.766  0.00  0.00     0.080 C 
BRANCH  17  18
ATOM     18  C   UNL d   1     -39.405  15.197  16.397  0.00  0.00     0.018 A 
ATOM     19  C   UNL d   1     -39.043  14.477  16.238  0.00  0.00     0.002 A 
ATOM     20  C   UNL d   1     -38.306  14.461  15.870  0.00  0.00     0.000 A 
ATOM     21  C   UNL d   1     -37.939  15.165  15.666  0.00  0.00     0.000 A 
ATOM     22  C   UNL d   1     -38.301  15.891  15.825  0.00  0.00     0.000 A 
ATOM     23  C   UNL d   1     -39.039  15.902  16.194  0.00  0.00     0.002 A 
ENDBRANCH  17  18
ENDBRANCH   2  17
TORSDOF 4
ENDMDL
MODEL 7
REMARK VINA RESULT:      -5.5      8.505      9.869
REMARK  4 active torsions:
REMARK  status: ('A' for Active; 'I' for Inactive)
REMARK    1  A    between atoms: N_3  and  C_1 
REMARK    2  A    between atoms: C_6  and  C_2 
REMARK    3  A    between atoms: C_13  and  N_8 
REMARK    4  A    between atoms: C_16  and  C_13 
ROOT
ATOM      1  N   UNL d   1     -39.699  15.007  21.189  0.00  0.00    -0.286 N 
ATOM      2  N   UNL d   1     -40.264  15.618  19.749  0.00  0.00    -0.300 N 
ATOM      3  C   UNL d   1     -39.292  15.617  20.812  0.00  0.00     0.101 A 
ATOM      4  C   UNL d   1     -40.394  14.692  20.852  0.00  0.00     0.101 A 
ATOM      5  C   UNL d   1     -40.672  14.996  20.139  0.00  0.00     0.100 A 
ATOM      6  C   UNL d   1     -39.575  15.922  20.093  0.00  0.00     0.100 A 
ENDROOT
BRANCH   1   7
ATOM      7  C   UNL d   1     -39.238  14.878  21.867  0.00  0.00     0.149 A 
ATOM      8  C   UNL d   1     -38.831  14.153  21.950  0.00  0.00     0.056 A 
ATOM      9  C   UNL d   1     -38.374  14.025  22.621  0.00  0.00     0.006 A 
ATOM     10  C   UNL d   1     -37.961  13.309  22.722  0.00  0.00     0.000 C 
ATOM     11  C   UNL d   1     -38.323  14.618  23.208  0.00  0.00     0.019 A 
ATOM     12  C   UNL d   1     -38.732  15.336  23.114  0.00  0.00     0.083 A 
ATOM     13  N   UNL d   1     -39.188  15.460  22.442  0.00  0.00    -0.228 NA
ATOM     14  C   UNL d   1     -38.679  15.922  23.698  0.00  0.00     0.021 C 
BRANCH   8  15
ATOM     15  C   UNL d   1     -38.886  13.574  21.369  0.00  0.00     0.125 C 
ATOM     16  N   UNL d   1     -38.279  13.025  21.275  0.00  0.00    -0.146 N 
ENDBRANCH   8  15
ENDBRANCH   1   7
BRANCH   2  17
ATOM     17  C   UNL d   1     -40.550  15.916  19.035  0.00  0.00     0.080 C 
BRANCH  17  18
ATOM     18  C   UNL d   1     -40.293  15.598  18.318  0.00  0.00     0.018 A 
ATOM     19  C   UNL d   1     -39.570  15.829  18.004  0.00  0.00     0.002 A 
ATOM     20  C   UNL d   1     -39.314  15.511  17.288  0.00  0.00     0.000 A 
ATOM     21  C   UNL d   1     -39.784  14.966  16.895  0.00  0.00     0.000 A 
ATOM     22  C   UNL d   1     -40.511  14.732  17.208  0.00  0.00     0.000 A 
ATOM     23  C   UNL d   1     -40.764  15.053  17.926  0.00  0.00     0.002 A 
ENDBRANCH  17  18
ENDBRANCH   2  17
TORSDOF 4
ENDMDL
