MODEL 1
REMARK VINA RESULT:      -7.8      0.000      0.000
REMARK  5 active torsions:
REMARK  status: ('A' for Active; 'I' for Inactive)
REMARK    1  A    between atoms: C_6  and  N_1 
REMARK    2  A    between atoms: C_7  and  C_2 
REMARK    3  A    between atoms: C_14  and  C_5 
REMARK    4  A    between atoms: C_11  and  C_7 
REMARK    5  A    between atoms: O_26  and  C_23 
ROOT
ATOM      1  N   UNL d   1     -47.972  11.961  23.164  0.00  0.00    -0.250 N 
ATOM      2  C   UNL d   1     -46.791  12.564  23.220  0.00  0.00     0.099 A 
ATOM      3  C   UNL d   1     -47.395  11.411  23.421  0.00  0.00     0.305 A 
ATOM      4  C   UNL d   1     -46.698  11.758  23.456  0.00  0.00     0.256 A 
ATOM      5  C   UNL d   1     -47.597  12.671  23.040  0.00  0.00     0.075 A 
ATOM      6  O   UNL d   1     -47.529  10.612  23.613  0.00  0.00    -0.263 OA
ATOM      7  O   UNL d   1     -45.986  11.377  23.692  0.00  0.00    -0.281 OA
ENDROOT
BRANCH   5   8
ATOM      8  C   UNL d   1     -47.948  13.362  22.787  0.00  0.00     0.017 A 
ATOM      9  C   UNL d   1     -48.105  13.462  21.985  0.00  0.00     0.004 A 
ATOM     10  C   UNL d   1     -48.468  14.178  21.728  0.00  0.00     0.024 A 
ATOM     11  C   UNL d   1     -48.662  14.769  22.269  0.00  0.00     0.094 A 
ATOM     12  C   UNL d   1     -48.497  14.653  23.073  0.00  0.00     0.024 A 
ATOM     13  C   UNL d   1     -48.140  13.949  23.333  0.00  0.00     0.004 A 
BRANCH  11  14
ATOM     14  O   UNL d   1     -49.013  15.462  22.019  0.00  0.00    -0.328 OA
ATOM     15  C   UNL d   1     -49.827  15.552  22.083  0.00  0.00     0.181 C 
ENDBRANCH  11  14
ENDBRANCH   5   8
BRANCH   2  16
ATOM     16  C   UNL d   1     -46.199  13.138  23.174  0.00  0.00     0.206 C 
ATOM     17  O   UNL d   1     -46.234  13.804  23.691  0.00  0.00    -0.286 OA
BRANCH  16  18
ATOM     18  C   UNL d   1     -45.597  13.051  22.634  0.00  0.00     0.069 A 
ATOM     19  S   UNL d   1     -45.098  12.375  22.528  0.00  0.00    -0.083 SA
ATOM     20  C   UNL d   1     -44.585  12.533  21.939  0.00  0.00     0.035 A 
ATOM     21  C   UNL d   1     -44.726  13.288  21.650  0.00  0.00     0.008 A 
ATOM     22  C   UNL d   1     -45.368  13.619  22.092  0.00  0.00     0.010 A 
ENDBRANCH  16  18
ENDBRANCH   2  16
BRANCH   1  23
ATOM     23  C   UNL d   1     -48.775  11.775  23.065  0.00  0.00     0.204 A 
ATOM     24  S   UNL d   1     -49.322  11.790  23.698  0.00  0.00    -0.025 SA
ATOM     25  C   UNL d   1     -50.059  11.576  23.393  0.00  0.00     0.161 A 
ATOM     26  N   UNL d   1     -49.963  11.432  22.592  0.00  0.00    -0.137 NA
ATOM     27  N   UNL d   1     -49.167  11.555  22.385  0.00  0.00    -0.122 NA
ENDBRANCH   1  23
TORSDOF 5
ENDMDL
MODEL 2
REMARK VINA RESULT:      -6.3      7.828      9.495
REMARK  5 active torsions:
REMARK  status: ('A' for Active; 'I' for Inactive)
REMARK    1  A    between atoms: C_6  and  N_1 
REMARK    2  A    between atoms: C_7  and  C_2 
REMARK    3  A    between atoms: C_14  and  C_5 
REMARK    4  A    between atoms: C_11  and  C_7 
REMARK    5  A    between atoms: O_26  and  C_23 
ROOT
ATOM      1  N   UNL d   1     -38.756  13.660  18.699  0.00  0.00    -0.250 N 
ATOM      2  C   UNL d   1     -39.233  14.505  19.604  0.00  0.00     0.099 A 
ATOM      3  C   UNL d   1     -38.468  13.444  19.455  0.00  0.00     0.305 A 
ATOM      4  C   UNL d   1     -38.744  13.936  19.993  0.00  0.00     0.256 A 
ATOM      5  C   UNL d   1     -39.228  14.315  18.794  0.00  0.00     0.075 A 
ATOM      6  O   UNL d   1     -37.962  12.804  19.625  0.00  0.00    -0.263 OA
ATOM      7  O   UNL d   1     -38.572  13.892  20.815  0.00  0.00    -0.281 OA
ENDROOT
BRANCH   5   8
ATOM      8  C   UNL d   1     -39.624  14.712  18.202  0.00  0.00     0.017 A 
ATOM      9  C   UNL d   1     -40.362  14.439  17.960  0.00  0.00     0.004 A 
ATOM     10  C   UNL d   1     -40.768  14.853  17.347  0.00  0.00     0.024 A 
ATOM     11  C   UNL d   1     -40.432  15.519  16.996  0.00  0.00     0.094 A 
ATOM     12  C   UNL d   1     -39.688  15.780  17.251  0.00  0.00     0.024 A 
ATOM     13  C   UNL d   1     -39.283  15.376  17.854  0.00  0.00     0.004 A 
BRANCH  11  14
ATOM     14  O   UNL d   1     -40.825  15.918  16.403  0.00  0.00    -0.328 OA
ATOM     15  C   UNL d   1     -41.643  15.862  16.349  0.00  0.00     0.181 C 
ENDBRANCH  11  14
ENDBRANCH   5   8
BRANCH   2  16
ATOM     16  C   UNL d   1     -39.640  15.131  19.957  0.00  0.00     0.206 C 
ATOM     17  O   UNL d   1     -39.355  15.918  19.846  0.00  0.00    -0.286 OA
BRANCH  16  18
ATOM     18  C   UNL d   1     -40.304  14.979  20.402  0.00  0.00     0.069 A 
ATOM     19  S   UNL d   1     -40.817  15.547  20.765  0.00  0.00    -0.083 SA
ATOM     20  C   UNL d   1     -41.396  15.152  21.145  0.00  0.00     0.035 A 
ATOM     21  C   UNL d   1     -41.285  14.345  21.048  0.00  0.00     0.008 A 
ATOM     22  C   UNL d   1     -40.592  14.234  20.576  0.00  0.00     0.010 A 
ENDBRANCH  16  18
ENDBRANCH   2  16
BRANCH   1  23
ATOM     23  C   UNL d   1     -38.570  13.252  18.001  0.00  0.00     0.204 A 
ATOM     24  S   UNL d   1     -37.970  13.507  17.477  0.00  0.00    -0.025 SA
ATOM     25  C   UNL d   1     -37.944  12.969  16.851  0.00  0.00     0.161 A 
ATOM     26  N   UNL d   1     -38.515  12.398  16.990  0.00  0.00    -0.137 NA
ATOM     27  N   UNL d   1     -38.906  12.571  17.704  0.00  0.00    -0.122 NA
ENDBRANCH   1  23
TORSDOF 5
ENDMDL
MODEL 3
REMARK VINA RESULT:      -6.0      1.705      4.216
REMARK  5 active torsions:
REMARK  status: ('A' for Active; 'I' for Inactive)
REMARK    1  A    between atoms: C_6  and  N_1 
REMARK    2  A    between atoms: C_7  and  C_2 
REMARK    3  A    between atoms: C_14  and  C_5 
REMARK    4  A    between atoms: C_11  and  C_7 
REMARK    5  A    between atoms: O_26  and  C_23 
ROOT
ATOM      1  N   UNL d   1     -47.453  14.230  22.753  0.00  0.00    -0.250 N 
ATOM      2  C   UNL d   1     -48.776  14.167  22.824  0.00  0.00     0.099 A 
ATOM      3  C   UNL d   1     -47.768  15.005  22.705  0.00  0.00     0.305 A 
ATOM      4  C   UNL d   1     -48.546  14.976  22.746  0.00  0.00     0.256 A 
ATOM      5  C   UNL d   1     -48.077  13.715  22.826  0.00  0.00     0.075 A 
ATOM      6  O   UNL d   1     -47.331  15.710  22.626  0.00  0.00    -0.263 OA
ATOM      7  O   UNL d   1     -49.052  15.647  22.716  0.00  0.00    -0.281 OA
ENDROOT
BRANCH   5   8
ATOM      8  C   UNL d   1     -48.026  12.904  22.890  0.00  0.00     0.017 A 
ATOM      9  C   UNL d   1     -48.017  12.448  22.205  0.00  0.00     0.004 A 
ATOM     10  C   UNL d   1     -47.964  11.609  22.275  0.00  0.00     0.024 A 
ATOM     11  C   UNL d   1     -47.922  11.252  23.018  0.00  0.00     0.094 A 
ATOM     12  C   UNL d   1     -47.931  11.726  23.697  0.00  0.00     0.024 A 
ATOM     13  C   UNL d   1     -47.983  12.553  23.634  0.00  0.00     0.004 A 
BRANCH  11  14
ATOM     14  O   UNL d   1     -47.870  10.440  23.085  0.00  0.00    -0.328 OA
ATOM     15  C   UNL d   1     -47.195  10.100  23.407  0.00  0.00     0.181 C 
ENDBRANCH  11  14
ENDBRANCH   5   8
BRANCH   2  16
ATOM     16  C   UNL d   1     -49.547  13.876  22.885  0.00  0.00     0.206 C 
ATOM     17  O   UNL d   1     -49.779  13.481  23.595  0.00  0.00    -0.286 OA
BRANCH  16  18
ATOM     18  C   UNL d   1     -50.064  13.974  22.266  0.00  0.00     0.069 A 
ATOM     19  S   UNL d   1     -50.704  14.526  22.217  0.00  0.00    -0.083 SA
ATOM     20  C   UNL d   1     -51.064  14.429  21.512  0.00  0.00     0.035 A 
ATOM     21  C   UNL d   1     -50.687  13.834  21.092  0.00  0.00     0.008 A 
ATOM     22  C   UNL d   1     -50.051  13.544  21.570  0.00  0.00     0.010 A 
ENDBRANCH  16  18
ENDBRANCH   2  16
BRANCH   1  23
ATOM     23  C   UNL d   1     -46.640  14.061  22.727  0.00  0.00     0.204 A 
ATOM     24  S   UNL d   1     -46.204  14.058  22.014  0.00  0.00    -0.025 SA
ATOM     25  C   UNL d   1     -45.423  13.868  22.203  0.00  0.00     0.161 A 
ATOM     26  N   UNL d   1     -45.385  13.756  23.014  0.00  0.00    -0.137 NA
ATOM     27  N   UNL d   1     -46.139  13.875  23.343  0.00  0.00    -0.122 NA
ENDBRANCH   1  23
TORSDOF 5
ENDMDL
MODEL 4
REMARK VINA RESULT:      -5.7      1.576      3.597
REMARK  5 active torsions:
REMARK  status: ('A' for Active; 'I' for Inactive)
REMARK    1  A    between atoms: C_6  and  N_1 
REMARK    2  A    between atoms: C_7  and  C_2 
REMARK    3  A    between atoms: C_14  and  C_5 
REMARK    4  A    between atoms: C_11  and  C_7 
REMARK    5  A    between atoms: O_26  and  C_23 
ROOT
ATOM      1  N   UNL d   1     -49.060  12.275  22.770  0.00  0.00    -0.250 N 
ATOM      2  C   UNL d   1     -49.618  13.428  22.428  0.00  0.00     0.099 A 
ATOM      3  C   UNL d   1     -49.892  12.184  22.760  0.00  0.00     0.305 A 
ATOM      4  C   UNL d   1     -50.228  12.858  22.559  0.00  0.00     0.256 A 
ATOM      5  C   UNL d   1     -48.893  13.043  22.565  0.00  0.00     0.075 A 
ATOM      6  O   UNL d   1     -50.314  11.487  22.934  0.00  0.00    -0.263 OA
ATOM      7  O   UNL d   1     -51.058  12.978  22.490  0.00  0.00    -0.281 OA
ENDROOT
BRANCH   5   8
ATOM      8  C   UNL d   1     -48.151  13.375  22.506  0.00  0.00     0.017 A 
ATOM      9  C   UNL d   1     -47.791  13.675  23.182  0.00  0.00     0.004 A 
ATOM     10  C   UNL d   1     -47.022  14.018  23.116  0.00  0.00     0.024 A 
ATOM     11  C   UNL d   1     -46.638  14.051  22.386  0.00  0.00     0.094 A 
ATOM     12  C   UNL d   1     -47.015  13.743  21.716  0.00  0.00     0.024 A 
ATOM     13  C   UNL d   1     -47.772  13.405  21.775  0.00  0.00     0.004 A 
BRANCH  11  14
ATOM     14  O   UNL d   1     -45.895  14.382  22.324  0.00  0.00    -0.328 OA
ATOM     15  C   UNL d   1     -45.374  14.333  22.957  0.00  0.00     0.181 C 
ENDBRANCH  11  14
ENDBRANCH   5   8
BRANCH   2  16
ATOM     16  C   UNL d   1     -49.718  14.218  22.206  0.00  0.00     0.206 C 
ATOM     17  O   UNL d   1     -49.463  14.462  21.439  0.00  0.00    -0.286 OA
BRANCH  16  18
ATOM     18  C   UNL d   1     -50.058  14.742  22.726  0.00  0.00     0.069 A 
ATOM     19  S   UNL d   1     -50.831  14.693  23.069  0.00  0.00    -0.083 SA
ATOM     20  C   UNL d   1     -50.933  15.324  23.545  0.00  0.00     0.035 A 
ATOM     21  C   UNL d   1     -50.257  15.788  23.532  0.00  0.00     0.008 A 
ATOM     22  C   UNL d   1     -49.700  15.419  23.012  0.00  0.00     0.010 A 
ENDBRANCH  16  18
ENDBRANCH   2  16
BRANCH   1  23
ATOM     23  C   UNL d   1     -48.532  11.663  22.962  0.00  0.00     0.204 A 
ATOM     24  S   UNL d   1     -48.187  11.168  22.383  0.00  0.00    -0.025 SA
ATOM     25  C   UNL d   1     -47.698  10.631  22.776  0.00  0.00     0.161 A 
ATOM     26  N   UNL d   1     -47.744  10.795  23.577  0.00  0.00    -0.137 NA
ATOM     27  N   UNL d   1     -48.261  11.436  23.697  0.00  0.00    -0.122 NA
ENDBRANCH   1  23
TORSDOF 5
ENDMDL
MODEL 5
REMARK VINA RESULT:      -5.3      6.529      8.818
REMARK  5 active torsions:
REMARK  status: ('A' for Active; 'I' for Inactive)
REMARK    1  A    between atoms: C_6  and  N_1 
REMARK    2  A    between atoms: C_7  and  C_2 
REMARK    3  A    between atoms: C_14  and  C_5 
REMARK    4  A    between atoms: C_11  and  C_7 
REMARK    5  A    between atoms: O_26  and  C_23 
ROOT
ATOM      1  N   UNL d   1     -39.216  15.191  20.278  0.00  0.00    -0.250 N 
ATOM      2  C   UNL d   1     -39.747  14.829  19.117  0.00  0.00     0.099 A 
ATOM      3  C   UNL d   1     -38.691  15.399  19.660  0.00  0.00     0.305 A 
ATOM      4  C   UNL d   1     -38.996  15.190  18.973  0.00  0.00     0.256 A 
ATOM      5  C   UNL d   1     -39.866  14.839  19.941  0.00  0.00     0.075 A 
ATOM      6  O   UNL d   1     -37.952  15.774  19.747  0.00  0.00    -0.263 OA
ATOM      7  O   UNL d   1     -38.626  15.311  18.228  0.00  0.00    -0.281 OA
ENDROOT
BRANCH   5   8
ATOM      8  C   UNL d   1     -40.516  14.549  20.339  0.00  0.00     0.017 A 
ATOM      9  C   UNL d   1     -40.543  13.750  20.535  0.00  0.00     0.004 A 
ATOM     10  C   UNL d   1     -41.217  13.455  20.947  0.00  0.00     0.024 A 
ATOM     11  C   UNL d   1     -41.840  13.957  21.148  0.00  0.00     0.094 A 
ATOM     12  C   UNL d   1     -41.798  14.758  20.942  0.00  0.00     0.024 A 
ATOM     13  C   UNL d   1     -41.135  15.055  20.537  0.00  0.00     0.004 A 
BRANCH  11  14
ATOM     14  O   UNL d   1     -42.492  13.670  21.546  0.00  0.00    -0.328 OA
ATOM     15  C   UNL d   1     -43.015  13.168  21.160  0.00  0.00     0.181 C 
ENDBRANCH  11  14
ENDBRANCH   5   8
BRANCH   2  16
ATOM     16  C   UNL d   1     -40.265  14.524  18.551  0.00  0.00     0.206 C 
ATOM     17  O   UNL d   1     -40.493  13.712  18.601  0.00  0.00    -0.286 OA
BRANCH  16  18
ATOM     18  C   UNL d   1     -40.545  15.007  17.961  0.00  0.00     0.069 A 
ATOM     19  S   UNL d   1     -40.244  15.079  17.172  0.00  0.00    -0.083 SA
ATOM     20  C   UNL d   1     -40.686  15.616  16.784  0.00  0.00     0.035 A 
ATOM     21  C   UNL d   1     -41.269  15.903  17.285  0.00  0.00     0.008 A 
ATOM     22  C   UNL d   1     -41.181  15.517  18.033  0.00  0.00     0.010 A 
ENDBRANCH  16  18
ENDBRANCH   2  16
BRANCH   1  23
ATOM     23  C   UNL d   1     -39.062  15.334  21.082  0.00  0.00     0.204 A 
ATOM     24  S   UNL d   1     -38.531  14.869  21.528  0.00  0.00    -0.025 SA
ATOM     25  C   UNL d   1     -38.521  15.174  22.296  0.00  0.00     0.161 A 
ATOM     26  N   UNL d   1     -39.035  15.811  22.316  0.00  0.00    -0.137 NA
ATOM     27  N   UNL d   1     -39.374  15.914  21.564  0.00  0.00    -0.122 NA
ENDBRANCH   1  23
TORSDOF 5
ENDMDL
MODEL 6
REMARK VINA RESULT:      -5.2      6.403      8.569
REMARK  5 active torsions:
REMARK  status: ('A' for Active; 'I' for Inactive)
REMARK    1  A    between atoms: C_6  and  N_1 
REMARK    2  A    between atoms: C_7  and  C_2 
REMARK    3  A    between atoms: C_14  and  C_5 
REMARK    4  A    between atoms: C_11  and  C_7 
REMARK    5  A    between atoms: O_26  and  C_23 
ROOT
ATOM      1  N   UNL d   1     -39.687  14.975  19.452  0.00  0.00    -0.250 N 
ATOM      2  C   UNL d   1     -39.289  15.207  20.697  0.00  0.00     0.099 A 
ATOM      3  C   UNL d   1     -38.923  15.318  19.437  0.00  0.00     0.305 A 
ATOM      4  C   UNL d   1     -38.682  15.457  20.165  0.00  0.00     0.256 A 
ATOM      5  C   UNL d   1     -39.911  14.907  20.230  0.00  0.00     0.075 A 
ATOM      6  O   UNL d   1     -38.475  15.491  18.756  0.00  0.00    -0.263 OA
ATOM      7  O   UNL d   1     -37.940  15.799  20.367  0.00  0.00    -0.281 OA
ENDROOT
BRANCH   5   8
ATOM      8  C   UNL d   1     -40.615  14.602  20.503  0.00  0.00     0.017 A 
ATOM      9  C   UNL d   1     -40.700  13.786  20.569  0.00  0.00     0.004 A 
ATOM     10  C   UNL d   1     -41.431  13.474  20.852  0.00  0.00     0.024 A 
ATOM     11  C   UNL d   1     -42.051  13.978  21.059  0.00  0.00     0.094 A 
ATOM     12  C   UNL d   1     -41.949  14.796  20.986  0.00  0.00     0.024 A 
ATOM     13  C   UNL d   1     -41.231  15.110  20.708  0.00  0.00     0.004 A 
BRANCH  11  14
ATOM     14  O   UNL d   1     -42.757  13.675  21.332  0.00  0.00    -0.328 OA
ATOM     15  C   UNL d   1     -42.828  12.867  21.468  0.00  0.00     0.181 C 
ENDBRANCH  11  14
ENDBRANCH   5   8
BRANCH   2  16
ATOM     16  C   UNL d   1     -39.273  15.249  21.521  0.00  0.00     0.206 C 
ATOM     17  O   UNL d   1     -39.796  15.783  21.914  0.00  0.00    -0.286 OA
BRANCH  16  18
ATOM     18  C   UNL d   1     -38.757  14.778  21.938  0.00  0.00     0.069 A 
ATOM     19  S   UNL d   1     -38.410  14.942  22.692  0.00  0.00    -0.083 SA
ATOM     20  C   UNL d   1     -37.940  14.329  22.890  0.00  0.00     0.035 A 
ATOM     21  C   UNL d   1     -37.964  13.765  22.295  0.00  0.00     0.008 A 
ATOM     22  C   UNL d   1     -38.482  14.049  21.690  0.00  0.00     0.010 A 
ENDBRANCH  16  18
ENDBRANCH   2  16
BRANCH   1  23
ATOM     23  C   UNL d   1     -40.108  14.757  18.771  0.00  0.00     0.204 A 
ATOM     24  S   UNL d   1     -40.504  15.314  18.289  0.00  0.00    -0.025 SA
ATOM     25  C   UNL d   1     -40.857  14.898  17.669  0.00  0.00     0.161 A 
ATOM     26  N   UNL d   1     -40.680  14.104  17.771  0.00  0.00    -0.137 NA
ATOM     27  N   UNL d   1     -40.214  14.013  18.454  0.00  0.00    -0.122 NA
ENDBRANCH   1  23
TORSDOF 5
ENDMDL
