MODEL 1
REMARK VINA RESULT:      -4.6      0.000      0.000
REMARK  9 active torsions:
REMARK  status: ('A' for Active; 'I' for Inactive)
REMARK    1  A    between atoms: C_21  and  N_1 
REMARK    2  A    between atoms: S_7  and  C_2 
REMARK       I    between atoms: C_6  and  N_18 
REMARK    3  A    between atoms: C_15  and  C_6 
REMARK    4  A    between atoms: C_19  and  S_7 
REMARK    5  A    between atoms: C_8  and  C_19 
REMARK       I    between atoms: N_11  and  C_8 
REMARK    6  A    between atoms: C_9  and  C_20 
REMARK    7  A    between atoms: C_20  and  N_11 
REMARK    8  A    between atoms: N_18  and  C_23 
REMARK    9  A    between atoms: C_23  and  C_21 
ROOT
ATOM      1  N   UNL d   1     -41.047  14.669  20.241  0.00  0.00    -0.302 N 
ATOM      2  C   UNL d   1     -41.484  13.771  21.135  0.00  0.00     0.049 A 
ATOM      3  C   UNL d   1     -41.667  14.135  20.422  0.00  0.00     0.087 A 
ATOM      4  C   UNL d   1     -40.756  14.070  21.404  0.00  0.00     0.024 A 
ATOM      5  C   UNL d   1     -40.490  14.623  20.850  0.00  0.00     0.065 A 
ATOM      6  C   UNL d   1     -40.314  13.905  22.076  0.00  0.00     0.002 A 
ATOM      7  C   UNL d   1     -39.777  15.009  20.976  0.00  0.00     0.018 A 
ATOM      8  C   UNL d   1     -39.596  14.297  22.199  0.00  0.00     0.000 A 
ATOM      9  C   UNL d   1     -39.325  14.849  21.651  0.00  0.00     0.002 A 
ENDROOT
BRANCH   1  10
ATOM     10  C   UNL d   1     -40.996  15.154  19.577  0.00  0.00     0.101 C 
BRANCH  10  11
ATOM     11  C   UNL d   1     -40.999  14.823  18.821  0.00  0.00     0.121 C 
BRANCH  11  12
ATOM     12  N   UNL d   1     -40.350  14.940  18.316  0.00  0.00    -0.205 NA
ATOM     13  C   UNL d   1     -40.457  14.929  17.494  0.00  0.00     0.279 C 
ATOM     14  O   UNL d   1     -41.216  14.800  17.177  0.00  0.00    -0.265 OA
BRANCH  13  15
ATOM     15  C   UNL d   1     -39.813  15.045  16.995  0.00  0.00     0.058 A 
ATOM     16  C   UNL d   1     -39.637  15.786  16.718  0.00  0.00     0.005 A 
ATOM     17  C   UNL d   1     -38.995  15.922  16.217  0.00  0.00     0.000 A 
ATOM     18  C   UNL d   1     -38.516  15.286  15.989  0.00  0.00     0.000 A 
ATOM     19  C   UNL d   1     -38.689  14.520  16.269  0.00  0.00     0.000 A 
ATOM     20  C   UNL d   1     -39.337  14.402  16.772  0.00  0.00     0.005 A 
ENDBRANCH  13  15
ENDBRANCH  11  12
ENDBRANCH  10  11
ENDBRANCH   1  10
BRANCH   2  21
ATOM     21  S   UNL d   1     -41.943  13.203  21.523  0.00  0.00    -0.080 SA
BRANCH  21  22
ATOM     22  C   UNL d   1     -42.756  13.170  21.381  0.00  0.00     0.098 C 
BRANCH  22  23
ATOM     23  C   UNL d   1     -43.200  12.530  21.640  0.00  0.00     0.286 C 
ATOM     24  N   UNL d   1     -43.997  12.613  21.820  0.00  0.00    -0.204 NA
ATOM     25  O   UNL d   1     -42.837  11.792  21.721  0.00  0.00    -0.265 OA
BRANCH  24  26
ATOM     26  C   UNL d   1     -44.353  13.346  21.738  0.00  0.00     0.127 C 
BRANCH  26  27
ATOM     27  C   UNL d   1     -45.112  13.470  22.040  0.00  0.00     0.119 A 
ATOM     28  O   UNL d   1     -45.318  14.037  22.593  0.00  0.00    -0.304 OA
ATOM     29  C   UNL d   1     -46.124  13.967  22.737  0.00  0.00     0.123 A 
ATOM     30  C   UNL d   1     -46.414  13.361  22.275  0.00  0.00     0.029 A 
ATOM     31  C   UNL d   1     -45.789  13.052  21.843  0.00  0.00     0.028 A 
ENDBRANCH  26  27
ENDBRANCH  24  26
ENDBRANCH  22  23
ENDBRANCH  21  22
ENDBRANCH   2  21
TORSDOF 9
ENDMDL
MODEL 2
REMARK VINA RESULT:      -4.6      2.650      7.653
REMARK  9 active torsions:
REMARK  status: ('A' for Active; 'I' for Inactive)
REMARK    1  A    between atoms: C_21  and  N_1 
REMARK    2  A    between atoms: S_7  and  C_2 
REMARK       I    between atoms: C_6  and  N_18 
REMARK    3  A    between atoms: C_15  and  C_6 
REMARK    4  A    between atoms: C_19  and  S_7 
REMARK    5  A    between atoms: C_8  and  C_19 
REMARK       I    between atoms: N_11  and  C_8 
REMARK    6  A    between atoms: C_9  and  C_20 
REMARK    7  A    between atoms: C_20  and  N_11 
REMARK    8  A    between atoms: N_18  and  C_23 
REMARK    9  A    between atoms: C_23  and  C_21 
ROOT
ATOM      1  N   UNL d   1     -46.189  13.684  22.762  0.00  0.00    -0.302 N 
ATOM      2  C   UNL d   1     -45.249  12.937  22.168  0.00  0.00     0.049 A 
ATOM      3  C   UNL d   1     -45.543  13.701  22.229  0.00  0.00     0.087 A 
ATOM      4  C   UNL d   1     -45.702  12.440  22.656  0.00  0.00     0.024 A 
ATOM      5  C   UNL d   1     -46.281  12.904  23.021  0.00  0.00     0.065 A 
ATOM      6  C   UNL d   1     -45.655  11.633  22.808  0.00  0.00     0.002 A 
ATOM      7  C   UNL d   1     -46.812  12.553  23.538  0.00  0.00     0.018 A 
ATOM      8  C   UNL d   1     -46.193  11.285  23.330  0.00  0.00     0.000 A 
ATOM      9  C   UNL d   1     -46.772  11.741  23.697  0.00  0.00     0.002 A 
ENDROOT
BRANCH   1  10
ATOM     10  C   UNL d   1     -46.653  14.325  22.991  0.00  0.00     0.101 C 
BRANCH  10  11
ATOM     11  C   UNL d   1     -47.250  14.602  22.492  0.00  0.00     0.121 C 
BRANCH  11  12
ATOM     12  N   UNL d   1     -48.031  14.652  22.771  0.00  0.00    -0.205 NA
ATOM     13  C   UNL d   1     -48.554  15.203  22.440  0.00  0.00     0.279 C 
ATOM     14  O   UNL d   1     -48.295  15.705  21.829  0.00  0.00    -0.265 OA
BRANCH  13  15
ATOM     15  C   UNL d   1     -49.328  15.251  22.717  0.00  0.00     0.058 A 
ATOM     16  C   UNL d   1     -49.901  14.762  22.420  0.00  0.00     0.005 A 
ATOM     17  C   UNL d   1     -50.682  14.797  22.686  0.00  0.00     0.000 A 
ATOM     18  C   UNL d   1     -50.888  15.345  23.271  0.00  0.00     0.000 A 
ATOM     19  C   UNL d   1     -50.305  15.852  23.583  0.00  0.00     0.000 A 
ATOM     20  C   UNL d   1     -49.526  15.804  23.304  0.00  0.00     0.005 A 
ENDBRANCH  13  15
ENDBRANCH  11  12
ENDBRANCH  10  11
ENDBRANCH   1  10
BRANCH   2  21
ATOM     21  S   UNL d   1     -44.608  12.697  21.701  0.00  0.00    -0.080 SA
BRANCH  21  22
ATOM     22  C   UNL d   1     -43.928  13.165  21.672  0.00  0.00     0.098 C 
BRANCH  22  23
ATOM     23  C   UNL d   1     -43.201  12.833  21.489  0.00  0.00     0.286 C 
ATOM     24  N   UNL d   1     -42.552  13.305  21.313  0.00  0.00    -0.204 NA
ATOM     25  O   UNL d   1     -43.121  12.010  21.482  0.00  0.00    -0.265 OA
BRANCH  24  26
ATOM     26  C   UNL d   1     -42.634  14.120  21.322  0.00  0.00     0.127 C 
BRANCH  26  27
ATOM     27  C   UNL d   1     -41.997  14.600  21.106  0.00  0.00     0.119 A 
ATOM     28  O   UNL d   1     -42.021  15.413  21.016  0.00  0.00    -0.304 OA
ATOM     29  C   UNL d   1     -41.270  15.665  20.798  0.00  0.00     0.123 A 
ATOM     30  C   UNL d   1     -40.785  15.011  20.753  0.00  0.00     0.029 A 
ATOM     31  C   UNL d   1     -41.233  14.351  20.943  0.00  0.00     0.028 A 
ENDBRANCH  26  27
ENDBRANCH  24  26
ENDBRANCH  22  23
ENDBRANCH  21  22
ENDBRANCH   2  21
TORSDOF 9
ENDMDL
MODEL 3
REMARK VINA RESULT:      -4.5      2.254      4.437
REMARK  9 active torsions:
REMARK  status: ('A' for Active; 'I' for Inactive)
REMARK    1  A    between atoms: C_21  and  N_1 
REMARK    2  A    between atoms: S_7  and  C_2 
REMARK       I    between atoms: C_6  and  N_18 
REMARK    3  A    between atoms: C_15  and  C_6 
REMARK    4  A    between atoms: C_19  and  S_7 
REMARK    5  A    between atoms: C_8  and  C_19 
REMARK       I    between atoms: N_11  and  C_8 
REMARK    6  A    between atoms: C_9  and  C_20 
REMARK    7  A    between atoms: C_20  and  N_11 
REMARK    8  A    between atoms: N_18  and  C_23 
REMARK    9  A    between atoms: C_23  and  C_21 
ROOT
ATOM      1  N   UNL d   1     -43.924  12.311  22.060  0.00  0.00    -0.302 N 
ATOM      2  C   UNL d   1     -45.108  12.487  22.662  0.00  0.00     0.049 A 
ATOM      3  C   UNL d   1     -44.585  12.822  22.124  0.00  0.00     0.087 A 
ATOM      4  C   UNL d   1     -44.783  11.773  22.937  0.00  0.00     0.024 A 
ATOM      5  C   UNL d   1     -44.053  11.668  22.563  0.00  0.00     0.065 A 
ATOM      6  C   UNL d   1     -45.063  11.217  23.473  0.00  0.00     0.002 A 
ATOM      7  C   UNL d   1     -43.606  11.001  22.733  0.00  0.00     0.018 A 
ATOM      8  C   UNL d   1     -44.609  10.547  23.640  0.00  0.00     0.000 A 
ATOM      9  C   UNL d   1     -43.880  10.435  23.272  0.00  0.00     0.002 A 
ENDROOT
BRANCH   1  10
ATOM     10  C   UNL d   1     -43.261  12.424  21.584  0.00  0.00     0.101 C 
BRANCH  10  11
ATOM     11  C   UNL d   1     -42.965  13.185  21.460  0.00  0.00     0.121 C 
BRANCH  11  12
ATOM     12  N   UNL d   1     -42.180  13.286  21.206  0.00  0.00    -0.205 NA
ATOM     13  C   UNL d   1     -41.885  14.048  21.071  0.00  0.00     0.279 C 
ATOM     14  O   UNL d   1     -42.375  14.710  21.191  0.00  0.00    -0.265 OA
BRANCH  13  15
ATOM     15  C   UNL d   1     -41.107  14.147  20.820  0.00  0.00     0.058 A 
ATOM     16  C   UNL d   1     -40.494  14.075  21.344  0.00  0.00     0.005 A 
ATOM     17  C   UNL d   1     -39.708  14.171  21.109  0.00  0.00     0.000 A 
ATOM     18  C   UNL d   1     -39.539  14.346  20.317  0.00  0.00     0.000 A 
ATOM     19  C   UNL d   1     -40.163  14.422  19.771  0.00  0.00     0.000 A 
ATOM     20  C   UNL d   1     -40.946  14.323  20.024  0.00  0.00     0.005 A 
ENDBRANCH  13  15
ENDBRANCH  11  12
ENDBRANCH  10  11
ENDBRANCH   1  10
BRANCH   2  21
ATOM     21  S   UNL d   1     -45.836  12.804  22.894  0.00  0.00    -0.080 SA
BRANCH  21  22
ATOM     22  C   UNL d   1     -46.335  13.138  22.326  0.00  0.00     0.098 C 
BRANCH  22  23
ATOM     23  C   UNL d   1     -46.862  13.732  22.530  0.00  0.00     0.286 C 
ATOM     24  N   UNL d   1     -47.651  13.693  22.306  0.00  0.00    -0.204 NA
ATOM     25  O   UNL d   1     -46.594  14.379  22.970  0.00  0.00    -0.265 OA
BRANCH  24  26
ATOM     26  C   UNL d   1     -47.914  13.051  21.871  0.00  0.00     0.127 C 
BRANCH  26  27
ATOM     27  C   UNL d   1     -48.717  12.977  21.691  0.00  0.00     0.119 A 
ATOM     28  O   UNL d   1     -49.188  13.563  21.365  0.00  0.00    -0.304 OA
ATOM     29  C   UNL d   1     -49.945  13.256  21.278  0.00  0.00     0.123 A 
ATOM     30  C   UNL d   1     -49.942  12.487  21.548  0.00  0.00     0.029 A 
ATOM     31  C   UNL d   1     -49.183  12.312  21.803  0.00  0.00     0.028 A 
ENDBRANCH  26  27
ENDBRANCH  24  26
ENDBRANCH  22  23
ENDBRANCH  21  22
ENDBRANCH   2  21
TORSDOF 9
ENDMDL
MODEL 4
REMARK VINA RESULT:      -3.7      2.594      6.982
REMARK  9 active torsions:
REMARK  status: ('A' for Active; 'I' for Inactive)
REMARK    1  A    between atoms: C_21  and  N_1 
REMARK    2  A    between atoms: S_7  and  C_2 
REMARK       I    between atoms: C_6  and  N_18 
REMARK    3  A    between atoms: C_15  and  C_6 
REMARK    4  A    between atoms: C_19  and  S_7 
REMARK    5  A    between atoms: C_8  and  C_19 
REMARK       I    between atoms: N_11  and  C_8 
REMARK    6  A    between atoms: C_9  and  C_20 
REMARK    7  A    between atoms: C_20  and  N_11 
REMARK    8  A    between atoms: N_18  and  C_23 
REMARK    9  A    between atoms: C_23  and  C_21 
ROOT
ATOM      1  N   UNL d   1     -45.151  12.240  22.698  0.00  0.00    -0.302 N 
ATOM      2  C   UNL d   1     -43.897  12.145  22.236  0.00  0.00     0.049 A 
ATOM      3  C   UNL d   1     -44.571  12.614  22.223  0.00  0.00     0.087 A 
ATOM      4  C   UNL d   1     -44.046  11.481  22.713  0.00  0.00     0.024 A 
ATOM      5  C   UNL d   1     -44.820  11.543  22.996  0.00  0.00     0.065 A 
ATOM      6  C   UNL d   1     -43.575  10.840  22.918  0.00  0.00     0.002 A 
ATOM      7  C   UNL d   1     -45.119  10.957  23.486  0.00  0.00     0.018 A 
ATOM      8  C   UNL d   1     -43.880  10.252  23.412  0.00  0.00     0.000 A 
ATOM      9  C   UNL d   1     -44.651  10.307  23.698  0.00  0.00     0.002 A 
ENDROOT
BRANCH   1  10
ATOM     10  C   UNL d   1     -45.914  12.512  22.845  0.00  0.00     0.101 C 
BRANCH  10  11
ATOM     11  C   UNL d   1     -46.149  13.255  22.571  0.00  0.00     0.121 C 
BRANCH  11  12
ATOM     12  N   UNL d   1     -46.952  13.467  22.591  0.00  0.00    -0.205 NA
ATOM     13  C   UNL d   1     -47.168  14.266  22.618  0.00  0.00     0.279 C 
ATOM     14  O   UNL d   1     -46.580  14.855  22.624  0.00  0.00    -0.265 OA
BRANCH  13  15
ATOM     15  C   UNL d   1     -47.964  14.475  22.637  0.00  0.00     0.058 A 
ATOM     16  C   UNL d   1     -48.534  13.911  22.755  0.00  0.00     0.005 A 
ATOM     17  C   UNL d   1     -49.337  14.102  22.778  0.00  0.00     0.000 A 
ATOM     18  C   UNL d   1     -49.570  14.891  22.678  0.00  0.00     0.000 A 
ATOM     19  C   UNL d   1     -48.991  15.478  22.557  0.00  0.00     0.000 A 
ATOM     20  C   UNL d   1     -48.190  15.268  22.537  0.00  0.00     0.005 A 
ENDBRANCH  13  15
ENDBRANCH  11  12
ENDBRANCH  10  11
ENDBRANCH   1  10
BRANCH   2  21
ATOM     21  S   UNL d   1     -43.186  12.304  21.841  0.00  0.00    -0.080 SA
BRANCH  21  22
ATOM     22  C   UNL d   1     -43.078  13.037  21.477  0.00  0.00     0.098 C 
BRANCH  22  23
ATOM     23  C   UNL d   1     -42.660  13.096  20.773  0.00  0.00     0.286 C 
ATOM     24  N   UNL d   1     -42.070  13.659  20.677  0.00  0.00    -0.204 NA
ATOM     25  O   UNL d   1     -42.837  12.579  20.152  0.00  0.00    -0.265 OA
BRANCH  24  26
ATOM     26  C   UNL d   1     -41.897  14.169  21.294  0.00  0.00     0.127 C 
BRANCH  26  27
ATOM     27  C   UNL d   1     -41.318  14.750  21.196  0.00  0.00     0.119 A 
ATOM     28  O   UNL d   1     -40.511  14.618  21.162  0.00  0.00    -0.304 OA
ATOM     29  C   UNL d   1     -40.141  15.345  21.061  0.00  0.00     0.123 A 
ATOM     30  C   UNL d   1     -40.716  15.922  21.034  0.00  0.00     0.029 A 
ATOM     31  C   UNL d   1     -41.445  15.556  21.117  0.00  0.00     0.028 A 
ENDBRANCH  26  27
ENDBRANCH  24  26
ENDBRANCH  22  23
ENDBRANCH  21  22
ENDBRANCH   2  21
TORSDOF 9
ENDMDL
MODEL 5
REMARK VINA RESULT:      -3.6      1.691      2.383
REMARK  9 active torsions:
REMARK  status: ('A' for Active; 'I' for Inactive)
REMARK    1  A    between atoms: C_21  and  N_1 
REMARK    2  A    between atoms: S_7  and  C_2 
REMARK       I    between atoms: C_6  and  N_18 
REMARK    3  A    between atoms: C_15  and  C_6 
REMARK    4  A    between atoms: C_19  and  S_7 
REMARK    5  A    between atoms: C_8  and  C_19 
REMARK       I    between atoms: N_11  and  C_8 
REMARK    6  A    between atoms: C_9  and  C_20 
REMARK    7  A    between atoms: C_20  and  N_11 
REMARK    8  A    between atoms: N_18  and  C_23 
REMARK    9  A    between atoms: C_23  and  C_21 
ROOT
ATOM      1  N   UNL d   1     -38.629  13.867  20.251  0.00  0.00    -0.302 N 
ATOM      2  C   UNL d   1     -39.648  14.392  20.944  0.00  0.00     0.049 A 
ATOM      3  C   UNL d   1     -39.334  14.316  20.190  0.00  0.00     0.087 A 
ATOM      4  C   UNL d   1     -39.149  13.996  21.479  0.00  0.00     0.024 A 
ATOM      5  C   UNL d   1     -38.522  13.674  21.048  0.00  0.00     0.065 A 
ATOM      6  C   UNL d   1     -39.193  13.895  22.294  0.00  0.00     0.002 A 
ATOM      7  C   UNL d   1     -37.940  13.249  21.439  0.00  0.00     0.018 A 
ATOM      8  C   UNL d   1     -38.604  13.466  22.683  0.00  0.00     0.000 A 
ATOM      9  C   UNL d   1     -37.976  13.141  22.260  0.00  0.00     0.002 A 
ENDROOT
BRANCH   1  10
ATOM     10  C   UNL d   1     -38.128  13.653  19.633  0.00  0.00     0.101 C 
BRANCH  10  11
ATOM     11  C   UNL d   1     -38.443  13.364  18.926  0.00  0.00     0.121 C 
BRANCH  11  12
ATOM     12  N   UNL d   1     -38.258  13.740  18.208  0.00  0.00    -0.205 NA
ATOM     13  C   UNL d   1     -38.562  13.443  17.496  0.00  0.00     0.279 C 
ATOM     14  O   UNL d   1     -39.051  12.770  17.503  0.00  0.00    -0.265 OA
BRANCH  13  15
ATOM     15  C   UNL d   1     -38.377  13.815  16.786  0.00  0.00     0.058 A 
ATOM     16  C   UNL d   1     -38.199  13.378  16.128  0.00  0.00     0.005 A 
ATOM     17  C   UNL d   1     -38.012  13.735  15.406  0.00  0.00     0.000 A 
ATOM     18  C   UNL d   1     -38.006  14.561  15.351  0.00  0.00     0.000 A 
ATOM     19  C   UNL d   1     -38.188  15.018  16.023  0.00  0.00     0.000 A 
ATOM     20  C   UNL d   1     -38.373  14.644  16.739  0.00  0.00     0.005 A 
ENDBRANCH  13  15
ENDBRANCH  11  12
ENDBRANCH  10  11
ENDBRANCH   1  10
BRANCH   2  21
ATOM     21  S   UNL d   1     -40.344  14.794  21.144  0.00  0.00    -0.080 SA
BRANCH  21  22
ATOM     22  C   UNL d   1     -41.061  14.558  20.808  0.00  0.00     0.098 C 
BRANCH  22  23
ATOM     23  C   UNL d   1     -41.763  14.922  21.024  0.00  0.00     0.286 C 
ATOM     24  N   UNL d   1     -42.437  14.481  21.184  0.00  0.00    -0.204 NA
ATOM     25  O   UNL d   1     -41.791  15.747  21.080  0.00  0.00    -0.265 OA
BRANCH  24  26
ATOM     26  C   UNL d   1     -42.406  13.665  21.127  0.00  0.00     0.127 C 
BRANCH  26  27
ATOM     27  C   UNL d   1     -43.051  13.211  21.373  0.00  0.00     0.119 A 
ATOM     28  O   UNL d   1     -43.826  13.472  21.424  0.00  0.00    -0.304 OA
ATOM     29  C   UNL d   1     -44.285  12.845  21.691  0.00  0.00     0.123 A 
ATOM     30  C   UNL d   1     -43.798  12.202  21.804  0.00  0.00     0.029 A 
ATOM     31  C   UNL d   1     -43.034  12.426  21.607  0.00  0.00     0.028 A 
ENDBRANCH  26  27
ENDBRANCH  24  26
ENDBRANCH  22  23
ENDBRANCH  21  22
ENDBRANCH   2  21
TORSDOF 9
ENDMDL
MODEL 6
REMARK VINA RESULT:      -2.9      1.539      6.770
REMARK  9 active torsions:
REMARK  status: ('A' for Active; 'I' for Inactive)
REMARK    1  A    between atoms: C_21  and  N_1 
REMARK    2  A    between atoms: S_7  and  C_2 
REMARK       I    between atoms: C_6  and  N_18 
REMARK    3  A    between atoms: C_15  and  C_6 
REMARK    4  A    between atoms: C_19  and  S_7 
REMARK    5  A    between atoms: C_8  and  C_19 
REMARK       I    between atoms: N_11  and  C_8 
REMARK    6  A    between atoms: C_9  and  C_20 
REMARK    7  A    between atoms: C_20  and  N_11 
REMARK    8  A    between atoms: N_18  and  C_23 
REMARK    9  A    between atoms: C_23  and  C_21 
ROOT
ATOM      1  N   UNL d   1     -44.388  12.668  21.850  0.00  0.00    -0.302 N 
ATOM      2  C   UNL d   1     -43.054  12.640  21.733  0.00  0.00     0.049 A 
ATOM      3  C   UNL d   1     -43.728  13.050  21.504  0.00  0.00     0.087 A 
ATOM      4  C   UNL d   1     -43.283  12.005  22.218  0.00  0.00     0.024 A 
ATOM      5  C   UNL d   1     -44.107  12.026  22.288  0.00  0.00     0.065 A 
ATOM      6  C   UNL d   1     -42.845  11.422  22.598  0.00  0.00     0.002 A 
ATOM      7  C   UNL d   1     -44.487  11.457  22.741  0.00  0.00     0.018 A 
ATOM      8  C   UNL d   1     -43.233  10.852  23.053  0.00  0.00     0.000 A 
ATOM      9  C   UNL d   1     -44.054  10.866  23.127  0.00  0.00     0.002 A 
ENDROOT
BRANCH   1  10
ATOM     10  C   UNL d   1     -45.179  12.887  21.772  0.00  0.00     0.101 C 
BRANCH  10  11
ATOM     11  C   UNL d   1     -45.491  13.485  22.249  0.00  0.00     0.121 C 
BRANCH  11  12
ATOM     12  N   UNL d   1     -46.300  13.668  22.202  0.00  0.00    -0.205 NA
ATOM     13  C   UNL d   1     -46.652  14.138  22.788  0.00  0.00     0.279 C 
ATOM     14  O   UNL d   1     -46.192  14.425  23.419  0.00  0.00    -0.265 OA
BRANCH  13  15
ATOM     15  C   UNL d   1     -47.453  14.319  22.741  0.00  0.00     0.058 A 
ATOM     16  C   UNL d   1     -48.011  13.768  22.944  0.00  0.00     0.005 A 
ATOM     17  C   UNL d   1     -48.820  13.932  22.903  0.00  0.00     0.000 A 
ATOM     18  C   UNL d   1     -49.070  14.679  22.649  0.00  0.00     0.000 A 
ATOM     19  C   UNL d   1     -48.504  15.252  22.438  0.00  0.00     0.000 A 
ATOM     20  C   UNL d   1     -47.697  15.071  22.484  0.00  0.00     0.005 A 
ENDBRANCH  13  15
ENDBRANCH  11  12
ENDBRANCH  10  11
ENDBRANCH   1  10
BRANCH   2  21
ATOM     21  S   UNL d   1     -42.276  12.825  21.519  0.00  0.00    -0.080 SA
BRANCH  21  22
ATOM     22  C   UNL d   1     -42.129  13.494  21.057  0.00  0.00     0.098 C 
BRANCH  22  23
ATOM     23  C   UNL d   1     -41.399  13.869  21.086  0.00  0.00     0.286 C 
ATOM     24  N   UNL d   1     -41.057  14.182  20.408  0.00  0.00    -0.204 NA
ATOM     25  O   UNL d   1     -41.004  13.931  21.810  0.00  0.00    -0.265 OA
BRANCH  24  26
ATOM     26  C   UNL d   1     -41.452  14.118  19.693  0.00  0.00     0.127 C 
BRANCH  26  27
ATOM     27  C   UNL d   1     -41.079  14.357  18.996  0.00  0.00     0.119 A 
ATOM     28  O   UNL d   1     -40.933  13.881  18.346  0.00  0.00    -0.304 OA
ATOM     29  C   UNL d   1     -40.553  14.339  17.779  0.00  0.00     0.123 A 
ATOM     30  C   UNL d   1     -40.465  15.092  18.076  0.00  0.00     0.029 A 
ATOM     31  C   UNL d   1     -40.790  15.106  18.829  0.00  0.00     0.028 A 
ENDBRANCH  26  27
ENDBRANCH  24  26
ENDBRANCH  22  23
ENDBRANCH  21  22
ENDBRANCH   2  21
TORSDOF 9
ENDMDL
MODEL 7
REMARK VINA RESULT:      -2.0      2.585      7.972
REMARK  9 active torsions:
REMARK  status: ('A' for Active; 'I' for Inactive)
REMARK    1  A    between atoms: C_21  and  N_1 
REMARK    2  A    between atoms: S_7  and  C_2 
REMARK       I    between atoms: C_6  and  N_18 
REMARK    3  A    between atoms: C_15  and  C_6 
REMARK    4  A    between atoms: C_19  and  S_7 
REMARK    5  A    between atoms: C_8  and  C_19 
REMARK       I    between atoms: N_11  and  C_8 
REMARK    6  A    between atoms: C_9  and  C_20 
REMARK    7  A    between atoms: C_20  and  N_11 
REMARK    8  A    between atoms: N_18  and  C_23 
REMARK    9  A    between atoms: C_23  and  C_21 
ROOT
ATOM      1  N   UNL d   1     -46.248  12.699  23.163  0.00  0.00    -0.302 N 
ATOM      2  C   UNL d   1     -45.284  12.980  22.277  0.00  0.00     0.049 A 
ATOM      3  C   UNL d   1     -45.607  12.377  22.731  0.00  0.00     0.087 A 
ATOM      4  C   UNL d   1     -45.714  13.677  22.419  0.00  0.00     0.024 A 
ATOM      5  C   UNL d   1     -46.308  13.500  22.965  0.00  0.00     0.065 A 
ATOM      6  C   UNL d   1     -45.635  14.438  22.118  0.00  0.00     0.002 A 
ATOM      7  C   UNL d   1     -46.822  14.092  23.208  0.00  0.00     0.018 A 
ATOM      8  C   UNL d   1     -46.155  15.030  22.366  0.00  0.00     0.000 A 
ATOM      9  C   UNL d   1     -46.750  14.861  22.911  0.00  0.00     0.002 A 
ENDROOT
BRANCH   1  10
ATOM     10  C   UNL d   1     -46.736  12.297  23.691  0.00  0.00     0.101 C 
BRANCH  10  11
ATOM     11  C   UNL d   1     -47.322  11.789  23.408  0.00  0.00     0.121 C 
BRANCH  11  12
ATOM     12  N   UNL d   1     -48.113  12.045  23.384  0.00  0.00    -0.205 NA
ATOM     13  C   UNL d   1     -48.706  11.530  23.118  0.00  0.00     0.279 C 
ATOM     14  O   UNL d   1     -48.507  10.759  22.876  0.00  0.00    -0.265 OA
BRANCH  13  15
ATOM     15  C   UNL d   1     -49.488  11.785  23.095  0.00  0.00     0.058 A 
ATOM     16  C   UNL d   1     -49.751  12.249  22.486  0.00  0.00     0.005 A 
ATOM     17  C   UNL d   1     -50.532  12.514  22.446  0.00  0.00     0.000 A 
ATOM     18  C   UNL d   1     -51.064  12.300  23.043  0.00  0.00     0.000 A 
ATOM     19  C   UNL d   1     -50.803  11.822  23.674  0.00  0.00     0.000 A 
ATOM     20  C   UNL d   1     -50.016  11.566  23.698  0.00  0.00     0.005 A 
ENDBRANCH  13  15
ENDBRANCH  11  12
ENDBRANCH  10  11
ENDBRANCH   1  10
BRANCH   2  21
ATOM     21  S   UNL d   1     -44.638  12.910  21.764  0.00  0.00    -0.080 SA
BRANCH  21  22
ATOM     22  C   UNL d   1     -43.871  12.981  22.063  0.00  0.00     0.098 C 
BRANCH  22  23
ATOM     23  C   UNL d   1     -43.263  12.518  21.764  0.00  0.00     0.286 C 
ATOM     24  N   UNL d   1     -42.608  12.860  21.406  0.00  0.00    -0.204 NA
ATOM     25  O   UNL d   1     -43.312  11.695  21.826  0.00  0.00    -0.265 OA
BRANCH  24  26
ATOM     26  C   UNL d   1     -42.563  13.676  21.346  0.00  0.00     0.127 C 
BRANCH  26  27
ATOM     27  C   UNL d   1     -41.885  14.027  21.030  0.00  0.00     0.119 A 
ATOM     28  O   UNL d   1     -41.271  13.632  20.660  0.00  0.00    -0.304 OA
ATOM     29  C   UNL d   1     -40.714  14.191  20.431  0.00  0.00     0.123 A 
ATOM     30  C   UNL d   1     -40.982  14.926  20.658  0.00  0.00     0.029 A 
ATOM     31  C   UNL d   1     -41.707  14.827  21.029  0.00  0.00     0.028 A 
ENDBRANCH  26  27
ENDBRANCH  24  26
ENDBRANCH  22  23
ENDBRANCH  21  22
ENDBRANCH   2  21
TORSDOF 9
ENDMDL
