MODEL 1
REMARK VINA RESULT:      70.5      0.000      0.000
REMARK  7 active torsions:
REMARK  status: ('A' for Active; 'I' for Inactive)
REMARK    1  A    between atoms: C_4  and  C_1 
REMARK    2  A    between atoms: C_13  and  N_3 
REMARK    3  A    between atoms: C_15  and  N_5 
REMARK    4  A    between atoms: C_12  and  C_15 
REMARK    5  A    between atoms: C_18  and  C_13 
REMARK    6  A    between atoms: O_16  and  C_18 
REMARK    7  A    between atoms: C_17  and  O_16 
ROOT
ATOM      1  C   UNL d   1      59.628  49.368  51.238  0.00  0.00     0.149 A 
ATOM      2  N   UNL d   1      59.677  49.703  51.992  0.00  0.00    -0.227 NA
ATOM      3  N   UNL d   1      60.342  48.977  51.082  0.00  0.00    -0.287 N 
ATOM      4  C   UNL d   1      60.838  49.071  51.748  0.00  0.00     0.083 A 
ATOM      5  C   UNL d   1      60.422  49.520  52.305  0.00  0.00     0.099 A 
ATOM      6  C   UNL d   1      61.602  48.811  51.915  0.00  0.00     0.019 A 
ATOM      7  C   UNL d   1      60.771  49.707  53.028  0.00  0.00     0.021 A 
ATOM      8  C   UNL d   1      61.951  48.998  52.639  0.00  0.00     0.002 A 
ATOM      9  C   UNL d   1      61.539  49.442  53.190  0.00  0.00     0.002 A 
ENDROOT
BRANCH   1  10
ATOM     10  C   UNL d   1      58.983  49.411  50.722  0.00  0.00     0.057 A 
ATOM     11  C   UNL d   1      58.191  49.292  50.919  0.00  0.00     0.086 A 
ATOM     12  N   UNL d   1      57.742  49.390  50.231  0.00  0.00    -0.272 N 
ATOM     13  C   UNL d   1      58.260  49.568  49.611  0.00  0.00     0.265 A 
ATOM     14  C   UNL d   1      59.025  49.580  49.921  0.00  0.00     0.066 A 
ATOM     15  O   UNL d   1      58.044  49.708  48.828  0.00  0.00    -0.267 OA
BRANCH  12  16
ATOM     16  C   UNL d   1      56.919  49.319  50.183  0.00  0.00     0.083 C 
BRANCH  16  17
ATOM     17  C   UNL d   1      56.481  49.014  50.814  0.00  0.00     0.019 C 
ATOM     18  C   UNL d   1      56.156  49.522  51.379  0.00  0.00     0.002 C 
ENDBRANCH  16  17
ENDBRANCH  12  16
ENDBRANCH   1  10
BRANCH   3  19
ATOM     19  C   UNL d   1      60.379  48.611  50.344  0.00  0.00     0.108 C 
BRANCH  19  20
ATOM     20  C   UNL d   1      61.053  48.195  50.122  0.00  0.00     0.142 C 
BRANCH  20  21
ATOM     21  O   UNL d   1      61.170  47.428  50.385  0.00  0.00    -0.304 OA
BRANCH  21  22
ATOM     22  C   UNL d   1      61.464  46.855  49.873  0.00  0.00     0.100 A 
ATOM     23  C   UNL d   1      62.261  46.686  49.870  0.00  0.00     0.025 A 
ATOM     24  C   UNL d   1      62.551  46.114  49.358  0.00  0.00     0.002 A 
ATOM     25  C   UNL d   1      62.043  45.717  48.855  0.00  0.00     0.000 A 
ATOM     26  C   UNL d   1      61.236  45.897  48.867  0.00  0.00     0.002 A 
ATOM     27  C   UNL d   1      60.948  46.463  49.374  0.00  0.00     0.025 A 
ENDBRANCH  21  22
ENDBRANCH  20  21
ENDBRANCH  19  20
ENDBRANCH   3  19
TORSDOF 7
ENDMDL
MODEL 2
REMARK VINA RESULT:      71.8      1.843      5.102
REMARK  7 active torsions:
REMARK  status: ('A' for Active; 'I' for Inactive)
REMARK    1  A    between atoms: C_4  and  C_1 
REMARK    2  A    between atoms: C_13  and  N_3 
REMARK    3  A    between atoms: C_15  and  N_5 
REMARK    4  A    between atoms: C_12  and  C_15 
REMARK    5  A    between atoms: C_18  and  C_13 
REMARK    6  A    between atoms: O_16  and  C_18 
REMARK    7  A    between atoms: C_17  and  O_16 
ROOT
ATOM      1  C   UNL d   1      58.750  49.439  50.291  0.00  0.00     0.149 A 
ATOM      2  N   UNL d   1      58.469  49.568  49.525  0.00  0.00    -0.227 NA
ATOM      3  N   UNL d   1      58.096  49.364  50.796  0.00  0.00    -0.287 N 
ATOM      4  C   UNL d   1      57.404  49.448  50.336  0.00  0.00     0.083 A 
ATOM      5  C   UNL d   1      57.641  49.573  49.553  0.00  0.00     0.099 A 
ATOM      6  C   UNL d   1      56.602  49.427  50.526  0.00  0.00     0.019 A 
ATOM      7  C   UNL d   1      57.075  49.677  48.962  0.00  0.00     0.021 A 
ATOM      8  C   UNL d   1      56.036  49.531  49.935  0.00  0.00     0.002 A 
ATOM      9  C   UNL d   1      56.271  49.655  49.160  0.00  0.00     0.002 A 
ENDROOT
BRANCH   1  10
ATOM     10  C   UNL d   1      59.542  49.391  50.523  0.00  0.00     0.057 A 
ATOM     11  C   UNL d   1      59.854  49.628  51.249  0.00  0.00     0.086 A 
ATOM     12  N   UNL d   1      60.667  49.477  51.236  0.00  0.00    -0.272 N 
ATOM     13  C   UNL d   1      60.854  49.147  50.501  0.00  0.00     0.265 A 
ATOM     14  C   UNL d   1      60.155  49.096  50.065  0.00  0.00     0.066 A 
ATOM     15  O   UNL d   1      61.605  48.913  50.255  0.00  0.00    -0.267 OA
BRANCH  12  16
ATOM     16  C   UNL d   1      61.192  49.634  51.856  0.00  0.00     0.083 C 
BRANCH  16  17
ATOM     17  C   UNL d   1      61.974  49.366  51.829  0.00  0.00     0.019 C 
ATOM     18  C   UNL d   1      62.136  48.566  51.694  0.00  0.00     0.002 C 
ENDBRANCH  16  17
ENDBRANCH  12  16
ENDBRANCH   1  10
BRANCH   3  19
ATOM     19  C   UNL d   1      58.287  49.232  51.587  0.00  0.00     0.108 C 
BRANCH  19  20
ATOM     20  C   UNL d   1      57.959  49.703  52.176  0.00  0.00     0.142 C 
BRANCH  20  21
ATOM     21  O   UNL d   1      58.063  49.511  52.966  0.00  0.00    -0.304 OA
BRANCH  21  22
ATOM     22  C   UNL d   1      57.412  49.429  53.462  0.00  0.00     0.100 A 
ATOM     23  C   UNL d   1      56.710  49.143  53.165  0.00  0.00     0.025 A 
ATOM     24  C   UNL d   1      56.062  49.063  53.663  0.00  0.00     0.002 A 
ATOM     25  C   UNL d   1      56.123  49.269  54.452  0.00  0.00     0.000 A 
ATOM     26  C   UNL d   1      56.842  49.558  54.742  0.00  0.00     0.002 A 
ATOM     27  C   UNL d   1      57.483  49.638  54.250  0.00  0.00     0.025 A 
ENDBRANCH  21  22
ENDBRANCH  20  21
ENDBRANCH  19  20
ENDBRANCH   3  19
TORSDOF 7
ENDMDL
