MODEL 1
REMARK VINA RESULT:      -5.0      0.000      0.000
REMARK  6 active torsions:
REMARK  status: ('A' for Active; 'I' for Inactive)
REMARK    1  A    between atoms: C_3  and  N_1 
REMARK    2  A    between atoms: C_2  and  N_5 
REMARK    3  A    between atoms: N_6  and  C_2 
REMARK    4  A    between atoms: N_5  and  N_9 
REMARK    5  A    between atoms: C_13  and  N_6 
REMARK    6  A    between atoms: N_9  and  C_12 
ROOT
ATOM      1  N   UNL d   1      58.155  -0.721  30.385  0.00  0.00    -0.276 N 
ATOM      2  H   UNL d   1      58.068  -1.455  30.750  0.00  0.00     0.189 HD
ENDROOT
BRANCH   1   3
ATOM      3  C   UNL d   1      58.640  -0.663  29.706  0.00  0.00     0.191 C 
ATOM      4  S   UNL d   1      59.183  -0.037  29.654  0.00  0.00    -0.039 SA
BRANCH   3   5
ATOM      5  N   UNL d   1      58.593  -1.209  29.090  0.00  0.00    -0.331 N 
ATOM      6  H   UNL d   1      58.027  -1.085  28.503  0.00  0.00     0.168 HD
BRANCH   5   7
ATOM      7  C   UNL d   1      59.095  -1.864  29.057  0.00  0.00     0.058 A 
ATOM      8  C   UNL d   1      58.769  -2.627  29.088  0.00  0.00     0.017 A 
ATOM      9  C   UNL d   1      59.260  -3.277  29.056  0.00  0.00     0.002 A 
ATOM     10  C   UNL d   1      60.078  -3.189  28.993  0.00  0.00     0.000 A 
ATOM     11  C   UNL d   1      60.404  -2.426  28.961  0.00  0.00     0.002 A 
ATOM     12  C   UNL d   1      59.902  -1.771  28.995  0.00  0.00     0.017 A 
ENDBRANCH   5   7
ENDBRANCH   3   5
ENDBRANCH   1   3
BRANCH   1  13
ATOM     13  N   UNL d   1      57.771  -0.070  30.689  0.00  0.00    -0.297 N 
ATOM     14  H   UNL d   1      57.900   0.689  30.347  0.00  0.00     0.187 HD
BRANCH  13  15
ATOM     15  C   UNL d   1      57.244  -0.134  31.341  0.00  0.00     0.072 A 
ATOM     16  C   UNL d   1      56.986   0.555  31.712  0.00  0.00     0.020 A 
ATOM     17  C   UNL d   1      56.472   0.524  32.349  0.00  0.00     0.025 A 
ATOM     18  C   UNL d   1      56.217  -0.218  32.615  0.00  0.00     0.127 A 
ATOM     19  C   UNL d   1      56.476  -0.908  32.244  0.00  0.00     0.025 A 
ATOM     20  C   UNL d   1      56.990  -0.856  31.607  0.00  0.00     0.020 A 
BRANCH  18  21
ATOM     21  N   UNL d   1      55.676  -0.257  33.286  0.00  0.00    -0.114 N 
ATOM     22  O   UNL d   1      55.813   0.222  33.944  0.00  0.00    -0.532 OA
ATOM     23  O   UNL d   1      55.042  -0.773  33.247  0.00  0.00    -0.532 OA
ENDBRANCH  18  21
ENDBRANCH  13  15
ENDBRANCH   1  13
TORSDOF 6
ENDMDL
MODEL 2
REMARK VINA RESULT:      -4.8      2.595      4.937
REMARK  6 active torsions:
REMARK  status: ('A' for Active; 'I' for Inactive)
REMARK    1  A    between atoms: C_3  and  N_1 
REMARK    2  A    between atoms: C_2  and  N_5 
REMARK    3  A    between atoms: N_6  and  C_2 
REMARK    4  A    between atoms: N_5  and  N_9 
REMARK    5  A    between atoms: C_13  and  N_6 
REMARK    6  A    between atoms: N_9  and  C_12 
ROOT
ATOM      1  N   UNL d   1      57.991  -0.636  30.569  0.00  0.00    -0.276 N 
ATOM      2  H   UNL d   1      57.760  -1.390  30.810  0.00  0.00     0.189 HD
ENDROOT
BRANCH   1   3
ATOM      3  C   UNL d   1      57.669   0.029  30.960  0.00  0.00     0.191 C 
ATOM      4  S   UNL d   1      57.383   0.662  30.506  0.00  0.00    -0.039 SA
BRANCH   3   5
ATOM      5  N   UNL d   1      57.630   0.072  31.783  0.00  0.00    -0.331 N 
ATOM      6  H   UNL d   1      58.305   0.309  32.193  0.00  0.00     0.168 HD
BRANCH   5   7
ATOM      7  C   UNL d   1      56.936  -0.115  32.190  0.00  0.00     0.058 A 
ATOM      8  C   UNL d   1      56.524   0.486  32.588  0.00  0.00     0.017 A 
ATOM      9  C   UNL d   1      55.839   0.307  32.992  0.00  0.00     0.002 A 
ATOM     10  C   UNL d   1      55.547  -0.465  33.012  0.00  0.00     0.000 A 
ATOM     11  C   UNL d   1      55.959  -1.066  32.614  0.00  0.00     0.002 A 
ATOM     12  C   UNL d   1      56.653  -0.879  32.207  0.00  0.00     0.017 A 
ENDBRANCH   5   7
ENDBRANCH   3   5
ENDBRANCH   1   3
BRANCH   1  13
ATOM     13  N   UNL d   1      58.525  -0.553  29.959  0.00  0.00    -0.297 N 
ATOM     14  H   UNL d   1      58.694   0.214  29.654  0.00  0.00     0.187 HD
BRANCH  13  15
ATOM     15  C   UNL d   1      58.914  -1.217  29.621  0.00  0.00     0.072 A 
ATOM     16  C   UNL d   1      59.722  -1.164  29.462  0.00  0.00     0.020 A 
ATOM     17  C   UNL d   1      60.128  -1.794  29.134  0.00  0.00     0.025 A 
ATOM     18  C   UNL d   1      59.710  -2.489  28.963  0.00  0.00     0.127 A 
ATOM     19  C   UNL d   1      58.902  -2.542  29.122  0.00  0.00     0.025 A 
ATOM     20  C   UNL d   1      58.512  -1.899  29.451  0.00  0.00     0.020 A 
BRANCH  18  21
ATOM     21  N   UNL d   1      60.133  -3.156  28.617  0.00  0.00    -0.114 N 
ATOM     22  O   UNL d   1      59.725  -3.855  28.455  0.00  0.00    -0.532 OA
ATOM     23  O   UNL d   1      60.932  -3.072  28.460  0.00  0.00    -0.532 OA
ENDBRANCH  18  21
ENDBRANCH  13  15
ENDBRANCH   1  13
TORSDOF 6
ENDMDL
MODEL 3
REMARK VINA RESULT:      -3.4      2.776      5.063
REMARK  6 active torsions:
REMARK  status: ('A' for Active; 'I' for Inactive)
REMARK    1  A    between atoms: C_3  and  N_1 
REMARK    2  A    between atoms: C_2  and  N_5 
REMARK    3  A    between atoms: N_6  and  C_2 
REMARK    4  A    between atoms: N_5  and  N_9 
REMARK    5  A    between atoms: C_13  and  N_6 
REMARK    6  A    between atoms: N_9  and  C_12 
ROOT
ATOM      1  N   UNL d   1      57.625  -0.080  31.089  0.00  0.00    -0.276 N 
ATOM      2  H   UNL d   1      57.763  -0.893  31.098  0.00  0.00     0.189 HD
ENDROOT
BRANCH   1   3
ATOM      3  C   UNL d   1      57.047   0.237  31.603  0.00  0.00     0.191 C 
ATOM      4  S   UNL d   1      56.424   0.682  31.281  0.00  0.00    -0.039 SA
BRANCH   3   5
ATOM      5  N   UNL d   1      57.080   0.120  32.419  0.00  0.00    -0.331 N 
ATOM      6  H   UNL d   1      57.801   0.242  32.801  0.00  0.00     0.168 HD
BRANCH   5   7
ATOM      7  C   UNL d   1      56.413  -0.113  32.847  0.00  0.00     0.058 A 
ATOM      8  C   UNL d   1      55.975   0.459  33.259  0.00  0.00     0.017 A 
ATOM      9  C   UNL d   1      55.316   0.234  33.683  0.00  0.00     0.002 A 
ATOM     10  C   UNL d   1      55.076  -0.556  33.709  0.00  0.00     0.000 A 
ATOM     11  C   UNL d   1      55.514  -1.127  33.297  0.00  0.00     0.002 A 
ATOM     12  C   UNL d   1      56.181  -0.894  32.869  0.00  0.00     0.017 A 
ENDBRANCH   5   7
ENDBRANCH   3   5
ENDBRANCH   1   3
BRANCH   1  13
ATOM     13  N   UNL d   1      58.051   0.397  30.584  0.00  0.00    -0.297 N 
ATOM     14  H   UNL d   1      57.875   1.219  30.538  0.00  0.00     0.187 HD
BRANCH  13  15
ATOM     15  C   UNL d   1      58.667   0.089  30.103  0.00  0.00     0.072 A 
ATOM     16  C   UNL d   1      59.424   0.409  30.174  0.00  0.00     0.020 A 
ATOM     17  C   UNL d   1      60.045   0.129  29.719  0.00  0.00     0.025 A 
ATOM     18  C   UNL d   1      59.896  -0.485  29.182  0.00  0.00     0.127 A 
ATOM     19  C   UNL d   1      59.139  -0.805  29.111  0.00  0.00     0.025 A 
ATOM     20  C   UNL d   1      58.530  -0.511  29.576  0.00  0.00     0.020 A 
BRANCH  18  21
ATOM     21  N   UNL d   1      60.546  -0.784  28.700  0.00  0.00    -0.114 N 
ATOM     22  O   UNL d   1      60.567  -1.585  28.501  0.00  0.00    -0.532 OA
ATOM     23  O   UNL d   1      61.124  -0.258  28.455  0.00  0.00    -0.532 OA
ENDBRANCH  18  21
ENDBRANCH  13  15
ENDBRANCH   1  13
TORSDOF 6
ENDMDL
MODEL 4
REMARK VINA RESULT:      -3.4      1.636      2.066
REMARK  6 active torsions:
REMARK  status: ('A' for Active; 'I' for Inactive)
REMARK    1  A    between atoms: C_3  and  N_1 
REMARK    2  A    between atoms: C_2  and  N_5 
REMARK    3  A    between atoms: N_6  and  C_2 
REMARK    4  A    between atoms: N_5  and  N_9 
REMARK    5  A    between atoms: C_13  and  N_6 
REMARK    6  A    between atoms: N_9  and  C_12 
ROOT
ATOM      1  N   UNL d   1      57.854  -0.322  31.068  0.00  0.00    -0.276 N 
ATOM      2  H   UNL d   1      58.221   0.135  31.648  0.00  0.00     0.189 HD
ENDROOT
BRANCH   1   3
ATOM      3  C   UNL d   1      58.235  -0.421  30.330  0.00  0.00     0.191 C 
ATOM      4  S   UNL d   1      58.274  -1.180  29.997  0.00  0.00    -0.039 SA
BRANCH   3   5
ATOM      5  N   UNL d   1      58.572   0.215  29.927  0.00  0.00    -0.331 N 
ATOM      6  H   UNL d   1      58.067   0.779  29.598  0.00  0.00     0.168 HD
BRANCH   5   7
ATOM      7  C   UNL d   1      59.391   0.290  29.850  0.00  0.00     0.058 A 
ATOM      8  C   UNL d   1      59.758   0.038  29.150  0.00  0.00     0.017 A 
ATOM      9  C   UNL d   1      60.566   0.110  29.069  0.00  0.00     0.002 A 
ATOM     10  C   UNL d   1      61.027   0.430  29.674  0.00  0.00     0.000 A 
ATOM     11  C   UNL d   1      60.660   0.682  30.375  0.00  0.00     0.002 A 
ATOM     12  C   UNL d   1      59.841   0.607  30.451  0.00  0.00     0.017 A 
ENDBRANCH   5   7
ENDBRANCH   3   5
ENDBRANCH   1   3
BRANCH   1  13
ATOM     13  N   UNL d   1      57.132  -0.667  31.222  0.00  0.00    -0.297 N 
ATOM     14  H   UNL d   1      56.841  -1.272  30.714  0.00  0.00     0.187 HD
BRANCH  13  15
ATOM     15  C   UNL d   1      56.665  -0.434  31.881  0.00  0.00     0.072 A 
ATOM     16  C   UNL d   1      56.314  -1.019  32.345  0.00  0.00     0.020 A 
ATOM     17  C   UNL d   1      55.854  -0.823  32.993  0.00  0.00     0.025 A 
ATOM     18  C   UNL d   1      55.747  -0.022  33.174  0.00  0.00     0.127 A 
ATOM     19  C   UNL d   1      56.098   0.563  32.711  0.00  0.00     0.025 A 
ATOM     20  C   UNL d   1      56.556   0.347  32.065  0.00  0.00     0.020 A 
BRANCH  18  21
ATOM     21  N   UNL d   1      55.263   0.191  33.857  0.00  0.00    -0.114 N 
ATOM     22  O   UNL d   1      54.451   0.302  33.757  0.00  0.00    -0.532 OA
ATOM     23  O   UNL d   1      55.629   0.275  34.584  0.00  0.00    -0.532 OA
ENDBRANCH  18  21
ENDBRANCH  13  15
ENDBRANCH   1  13
TORSDOF 6
ENDMDL
MODEL 5
REMARK VINA RESULT:      -2.1      8.914      9.615
REMARK  6 active torsions:
REMARK  status: ('A' for Active; 'I' for Inactive)
REMARK    1  A    between atoms: C_3  and  N_1 
REMARK    2  A    between atoms: C_2  and  N_5 
REMARK    3  A    between atoms: N_6  and  C_2 
REMARK    4  A    between atoms: N_5  and  N_9 
REMARK    5  A    between atoms: C_13  and  N_6 
REMARK    6  A    between atoms: N_9  and  C_12 
ROOT
ATOM      1  N   UNL d   1      59.237  -9.665  32.632  0.00  0.00    -0.276 N 
ATOM      2  H   UNL d   1      58.454  -9.526  32.850  0.00  0.00     0.189 HD
ENDROOT
BRANCH   1   3
ATOM      3  C   UNL d   1      59.830  -9.646  33.220  0.00  0.00     0.191 C 
ATOM      4  S   UNL d   1      60.620  -9.538  32.991  0.00  0.00    -0.039 SA
BRANCH   3   5
ATOM      5  N   UNL d   1      59.650  -9.731  34.021  0.00  0.00    -0.331 N 
ATOM      6  H   UNL d   1      59.310 -10.440  34.270  0.00  0.00     0.168 HD
BRANCH   5   7
ATOM      7  C   UNL d   1      59.804  -9.128  34.563  0.00  0.00     0.058 A 
ATOM      8  C   UNL d   1      59.170  -8.707  34.894  0.00  0.00     0.017 A 
ATOM      9  C   UNL d   1      59.316  -8.111  35.429  0.00  0.00     0.002 A 
ATOM     10  C   UNL d   1      60.087  -7.916  35.649  0.00  0.00     0.000 A 
ATOM     11  C   UNL d   1      60.722  -8.336  35.318  0.00  0.00     0.002 A 
ATOM     12  C   UNL d   1      60.568  -8.940  34.776  0.00  0.00     0.017 A 
ENDBRANCH   5   7
ENDBRANCH   3   5
ENDBRANCH   1   3
BRANCH   1  13
ATOM     13  N   UNL d   1      59.418  -9.817  31.851  0.00  0.00    -0.297 N 
ATOM     14  H   UNL d   1      60.214  -9.980  31.632  0.00  0.00     0.187 HD
BRANCH  13  15
ATOM     15  C   UNL d   1      58.826  -9.817  31.255  0.00  0.00     0.072 A 
ATOM     16  C   UNL d   1      58.033  -9.817  31.482  0.00  0.00     0.020 A 
ATOM     17  C   UNL d   1      57.435  -9.816  30.923  0.00  0.00     0.025 A 
ATOM     18  C   UNL d   1      57.643  -9.816  30.121  0.00  0.00     0.127 A 
ATOM     19  C   UNL d   1      58.436  -9.816  29.893  0.00  0.00     0.025 A 
ATOM     20  C   UNL d   1      59.021  -9.817  30.468  0.00  0.00     0.020 A 
BRANCH  18  21
ATOM     21  N   UNL d   1      57.016  -9.816  29.528  0.00  0.00    -0.114 N 
ATOM     22  O   UNL d   1      57.217  -9.813  28.728  0.00  0.00    -0.532 OA
ATOM     23  O   UNL d   1      56.238  -9.817  29.783  0.00  0.00    -0.532 OA
ENDBRANCH  18  21
ENDBRANCH  13  15
ENDBRANCH   1  13
TORSDOF 6
ENDMDL
