MODEL 1
REMARK VINA RESULT:      14.3      0.000      0.000
REMARK  9 active torsions:
REMARK  status: ('A' for Active; 'I' for Inactive)
REMARK    1  A    between atoms: C_10  and  N_1 
REMARK    2  A    between atoms: S_13  and  C_2 
REMARK    3  A    between atoms: C_6  and  N_11 
REMARK    4  A    between atoms: C_24  and  C_10 
REMARK       I    between atoms: N_11  and  C_15 
REMARK    5  A    between atoms: C_21  and  S_13 
REMARK    6  A    between atoms: C_15  and  C_21 
REMARK    7  A    between atoms: O_27  and  C_17 
REMARK    8  A    between atoms: O_28  and  C_18 
REMARK    9  A    between atoms: C_23  and  C_24 
ROOT
ATOM      1  N   UNL d   1     -41.723-122.494 -51.289  0.00  0.00    -0.253 N 
ATOM      2  C   UNL d   1     -41.682-121.845 -50.796  0.00  0.00     0.182 A 
ATOM      3  C   UNL d   1     -42.181-123.156 -51.078  0.00  0.00     0.268 A 
ATOM      4  N   UNL d   1     -42.097-121.840 -50.078  0.00  0.00    -0.222 NA
ATOM      5  C   UNL d   1     -42.593-123.145 -50.358  0.00  0.00     0.074 A 
ATOM      6  C   UNL d   1     -42.552-122.496 -49.865  0.00  0.00     0.088 A 
ATOM      7  O   UNL d   1     -42.222-123.803 -51.570  0.00  0.00    -0.267 OA
ATOM      8  C   UNL d   1     -43.053-123.809 -50.144  0.00  0.00     0.006 A 
ATOM      9  C   UNL d   1     -42.969-122.494 -49.145  0.00  0.00     0.019 A 
ATOM     10  C   UNL d   1     -43.462-123.796 -49.429  0.00  0.00     0.000 A 
ATOM     11  C   UNL d   1     -43.421-123.147 -48.936  0.00  0.00     0.002 A 
ENDROOT
BRANCH   1  12
ATOM     12  C   UNL d   1     -41.305-122.500 -52.014  0.00  0.00     0.085 C 
BRANCH  12  13
ATOM     13  C   UNL d   1     -41.467-121.933 -52.593  0.00  0.00     0.019 C 
BRANCH  13  14
ATOM     14  C   UNL d   1     -41.617-122.167 -53.370  0.00  0.00     0.004 A 
ATOM     15  C   UNL d   1     -42.255-121.844 -53.783  0.00  0.00     0.026 A 
ATOM     16  C   UNL d   1     -42.408-122.073 -54.553  0.00  0.00     0.116 A 
ATOM     17  C   UNL d   1     -41.918-122.635 -54.924  0.00  0.00     0.116 A 
ATOM     18  C   UNL d   1     -41.277-122.955 -54.501  0.00  0.00     0.026 A 
ATOM     19  C   UNL d   1     -41.131-122.719 -53.727  0.00  0.00     0.002 A 
BRANCH  16  20
ATOM     20  O   UNL d   1     -43.043-121.752 -54.963  0.00  0.00    -0.326 OA
ATOM     21  C   UNL d   1     -43.577-121.268 -54.580  0.00  0.00     0.181 C 
ENDBRANCH  16  20
BRANCH  17  22
ATOM     22  O   UNL d   1     -42.062-122.867 -55.688  0.00  0.00    -0.326 OA
ATOM     23  C   UNL d   1     -41.521-123.334 -56.101  0.00  0.00     0.181 C 
ENDBRANCH  17  22
ENDBRANCH  13  14
ENDBRANCH  12  13
ENDBRANCH   1  12
BRANCH   2  24
ATOM     24  S   UNL d   1     -41.221-121.178 -51.010  0.00  0.00    -0.044 SA
BRANCH  24  25
ATOM     25  C   UNL d   1     -41.203-120.506 -50.524  0.00  0.00     0.101 C 
BRANCH  25  26
ATOM     26  C   UNL d   1     -41.181-119.758 -50.865  0.00  0.00     0.287 C 
ATOM     27  N   UNL d   1     -41.213-119.673 -51.674  0.00  0.00    -0.186 NA
ATOM     28  O   UNL d   1     -41.126-119.090 -50.381  0.00  0.00    -0.265 OA
BRANCH  27  29
ATOM     29  C   UNL d   1     -41.191-118.925 -52.014  0.00  0.00     0.194 A 
ATOM     30  N   UNL d   1     -41.166-118.200 -51.612  0.00  0.00    -0.107 NA
ATOM     31  O   UNL d   1     -41.149-117.594 -52.167  0.00  0.00    -0.210 OA
ATOM     32  C   UNL d   1     -41.164-117.932 -52.920  0.00  0.00     0.128 A 
ATOM     33  C   UNL d   1     -41.190-118.750 -52.825  0.00  0.00     0.068 A 
ATOM     34  C   UNL d   1     -41.155-117.523 -53.629  0.00  0.00     0.029 C 
ENDBRANCH  27  29
ENDBRANCH  25  26
ENDBRANCH  24  25
ENDBRANCH   2  24
TORSDOF 9
ENDMDL
MODEL 2
REMARK VINA RESULT:      15.0      1.332      3.947
REMARK  9 active torsions:
REMARK  status: ('A' for Active; 'I' for Inactive)
REMARK    1  A    between atoms: C_10  and  N_1 
REMARK    2  A    between atoms: S_13  and  C_2 
REMARK    3  A    between atoms: C_6  and  N_11 
REMARK    4  A    between atoms: C_24  and  C_10 
REMARK       I    between atoms: N_11  and  C_15 
REMARK    5  A    between atoms: C_21  and  S_13 
REMARK    6  A    between atoms: C_15  and  C_21 
REMARK    7  A    between atoms: O_27  and  C_17 
REMARK    8  A    between atoms: O_28  and  C_18 
REMARK    9  A    between atoms: C_23  and  C_24 
ROOT
ATOM      1  N   UNL d   1     -41.549-121.837 -51.213  0.00  0.00    -0.253 N 
ATOM      2  C   UNL d   1     -41.672-122.505 -51.664  0.00  0.00     0.182 A 
ATOM      3  C   UNL d   1     -41.793-121.813 -50.418  0.00  0.00     0.268 A 
ATOM      4  N   UNL d   1     -42.042-123.169 -51.333  0.00  0.00    -0.222 NA
ATOM      5  C   UNL d   1     -42.163-122.480 -50.092  0.00  0.00     0.074 A 
ATOM      6  C   UNL d   1     -42.286-123.149 -50.543  0.00  0.00     0.088 A 
ATOM      7  O   UNL d   1     -41.670-121.146 -49.968  0.00  0.00    -0.267 OA
ATOM      8  C   UNL d   1     -42.408-122.458 -49.294  0.00  0.00     0.006 A 
ATOM      9  C   UNL d   1     -42.658-123.814 -50.208  0.00  0.00     0.019 A 
ATOM     10  C   UNL d   1     -42.776-123.123 -48.972  0.00  0.00     0.000 A 
ATOM     11  C   UNL d   1     -42.899-123.791 -49.424  0.00  0.00     0.002 A 
ENDROOT
BRANCH   1  12
ATOM     12  C   UNL d   1     -41.175-121.166 -51.546  0.00  0.00     0.085 C 
BRANCH  12  13
ATOM     13  C   UNL d   1     -41.262-120.423 -51.195  0.00  0.00     0.019 C 
BRANCH  13  14
ATOM     14  C   UNL d   1     -41.227-119.741 -51.658  0.00  0.00     0.004 A 
ATOM     15  C   UNL d   1     -41.199-118.998 -51.298  0.00  0.00     0.026 A 
ATOM     16  C   UNL d   1     -41.164-118.320 -51.752  0.00  0.00     0.116 A 
ATOM     17  C   UNL d   1     -41.158-118.376 -52.583  0.00  0.00     0.116 A 
ATOM     18  C   UNL d   1     -41.188-119.128 -52.938  0.00  0.00     0.026 A 
ATOM     19  C   UNL d   1     -41.222-119.805 -52.473  0.00  0.00     0.002 A 
BRANCH  16  20
ATOM     20  O   UNL d   1     -41.136-117.580 -51.394  0.00  0.00    -0.326 OA
ATOM     21  C   UNL d   1     -41.271-117.508 -50.593  0.00  0.00     0.181 C 
ENDBRANCH  16  20
BRANCH  17  22
ATOM     22  O   UNL d   1     -41.125-117.707 -53.041  0.00  0.00    -0.326 OA
ATOM     23  C   UNL d   1     -41.506-117.672 -53.773  0.00  0.00     0.181 C 
ENDBRANCH  17  22
ENDBRANCH  13  14
ENDBRANCH  12  13
ENDBRANCH   1  12
BRANCH   2  24
ATOM     24  S   UNL d   1     -41.426-122.528 -52.466  0.00  0.00    -0.044 SA
BRANCH  24  25
ATOM     25  C   UNL d   1     -41.561-123.204 -52.927  0.00  0.00     0.101 C 
BRANCH  25  26
ATOM     26  C   UNL d   1     -41.647-123.129 -53.742  0.00  0.00     0.287 C 
ATOM     27  N   UNL d   1     -41.709-122.393 -54.084  0.00  0.00    -0.186 NA
ATOM     28  O   UNL d   1     -41.669-123.806 -54.215  0.00  0.00    -0.265 OA
BRANCH  27  29
ATOM     29  C   UNL d   1     -41.795-122.318 -54.898  0.00  0.00     0.194 A 
ATOM     30  N   UNL d   1     -41.339-122.696 -55.479  0.00  0.00    -0.107 NA
ATOM     31  O   UNL d   1     -41.614-122.464 -56.217  0.00  0.00    -0.210 OA
ATOM     32  C   UNL d   1     -42.243-121.941 -56.108  0.00  0.00     0.128 A 
ATOM     33  C   UNL d   1     -42.353-121.851 -55.296  0.00  0.00     0.068 A 
ATOM     34  C   UNL d   1     -42.674-121.579 -56.702  0.00  0.00     0.029 C 
ENDBRANCH  27  29
ENDBRANCH  25  26
ENDBRANCH  24  25
ENDBRANCH   2  24
TORSDOF 9
ENDMDL
