MODEL 1
REMARK VINA RESULT:      -7.8      0.000      0.000
REMARK  3 active torsions:
REMARK  status: ('A' for Active; 'I' for Inactive)
REMARK    1  A    between atoms: N_2  and  C_1 
REMARK       I    between atoms: C_5  and  N_2 
REMARK    2  A    between atoms: C_8  and  C_5 
REMARK    3  A    between atoms: O_17  and  C_13 
ROOT
ATOM      1  N   UNL d   1     -47.868  13.181  22.413  0.00  0.00    -0.184 NA
ATOM      2  C   UNL d   1     -47.694  12.749  23.095  0.00  0.00     0.281 C 
ATOM      3  O   UNL d   1     -48.257  12.721  23.698  0.00  0.00    -0.265 OA
ENDROOT
BRANCH   1   4
ATOM      4  C   UNL d   1     -48.599  13.570  22.359  0.00  0.00     0.182 A 
ATOM      5  N   UNL d   1     -49.212  13.460  21.794  0.00  0.00    -0.283 N 
ATOM      6  C   UNL d   1     -49.823  14.011  22.017  0.00  0.00     0.072 A 
ATOM      7  C   UNL d   1     -49.208  12.947  21.187  0.00  0.00     0.101 C 
ATOM      8  C   UNL d   1     -50.579  14.183  21.686  0.00  0.00     0.018 A 
ATOM      9  C   UNL d   1     -49.565  14.401  22.662  0.00  0.00     0.048 A 
ATOM     10  C   UNL d   1     -51.063  14.775  22.047  0.00  0.00     0.002 A 
ATOM     11  C   UNL d   1     -50.792  15.165  22.702  0.00  0.00     0.001 A 
ATOM     12  C   UNL d   1     -50.043  14.997  23.032  0.00  0.00     0.008 A 
ATOM     13  S   UNL d   1     -48.836  14.149  22.879  0.00  0.00    -0.048 SA
ENDBRANCH   1   4
BRANCH   2  14
ATOM     14  C   UNL d   1     -46.997  12.351  23.197  0.00  0.00     0.058 A 
ATOM     15  C   UNL d   1     -46.307  12.669  22.907  0.00  0.00     0.007 A 
ATOM     16  C   UNL d   1     -45.598  12.260  23.014  0.00  0.00     0.024 A 
ATOM     17  C   UNL d   1     -45.591  11.545  23.408  0.00  0.00     0.094 A 
ATOM     18  C   UNL d   1     -46.282  11.228  23.698  0.00  0.00     0.024 A 
ATOM     19  C   UNL d   1     -47.017  11.626  23.601  0.00  0.00     0.007 A 
BRANCH  17  20
ATOM     20  O   UNL d   1     -44.874  11.140  23.511  0.00  0.00    -0.328 OA
ATOM     21  C   UNL d   1     -44.773  10.278  23.657  0.00  0.00     0.181 C 
ENDBRANCH  17  20
ENDBRANCH   2  14
TORSDOF 3
ENDMDL
MODEL 2
REMARK VINA RESULT:      -5.9      8.996      9.953
REMARK  3 active torsions:
REMARK  status: ('A' for Active; 'I' for Inactive)
REMARK    1  A    between atoms: N_2  and  C_1 
REMARK       I    between atoms: C_5  and  N_2 
REMARK    2  A    between atoms: C_8  and  C_5 
REMARK    3  A    between atoms: O_17  and  C_13 
ROOT
ATOM      1  N   UNL d   1     -39.572  15.131  19.660  0.00  0.00    -0.184 NA
ATOM      2  C   UNL d   1     -40.157  14.732  19.234  0.00  0.00     0.281 C 
ATOM      3  O   UNL d   1     -40.482  14.046  19.560  0.00  0.00    -0.265 OA
ENDROOT
BRANCH   1   4
ATOM      4  C   UNL d   1     -39.333  14.830  20.395  0.00  0.00     0.182 A 
ATOM      5  N   UNL d   1     -39.375  15.196  21.151  0.00  0.00    -0.283 N 
ATOM      6  C   UNL d   1     -39.050  14.625  21.694  0.00  0.00     0.072 A 
ATOM      7  C   UNL d   1     -39.660  15.920  21.310  0.00  0.00     0.101 C 
ATOM      8  C   UNL d   1     -38.931  14.641  22.528  0.00  0.00     0.018 A 
ATOM      9  C   UNL d   1     -38.841  13.986  21.267  0.00  0.00     0.048 A 
ATOM     10  C   UNL d   1     -38.587  13.968  22.909  0.00  0.00     0.002 A 
ATOM     11  C   UNL d   1     -38.379  13.325  22.467  0.00  0.00     0.001 A 
ATOM     12  C   UNL d   1     -38.495  13.307  21.640  0.00  0.00     0.008 A 
ATOM     13  S   UNL d   1     -39.004  14.092  20.490  0.00  0.00    -0.048 SA
ENDBRANCH   1   4
BRANCH   2  14
ATOM     14  C   UNL d   1     -40.425  14.983  18.514  0.00  0.00     0.058 A 
ATOM     15  C   UNL d   1     -40.883  15.654  18.466  0.00  0.00     0.007 A 
ATOM     16  C   UNL d   1     -41.154  15.906  17.729  0.00  0.00     0.024 A 
ATOM     17  C   UNL d   1     -40.965  15.486  17.055  0.00  0.00     0.094 A 
ATOM     18  C   UNL d   1     -40.507  14.816  17.103  0.00  0.00     0.024 A 
ATOM     19  C   UNL d   1     -40.218  14.538  17.844  0.00  0.00     0.007 A 
BRANCH  17  20
ATOM     20  O   UNL d   1     -41.242  15.747  16.317  0.00  0.00    -0.328 OA
ATOM     21  C   UNL d   1     -42.077  15.922  16.102  0.00  0.00     0.181 C 
ENDBRANCH  17  20
ENDBRANCH   2  14
TORSDOF 3
ENDMDL
MODEL 3
REMARK VINA RESULT:      -5.5      8.876      9.375
REMARK  3 active torsions:
REMARK  status: ('A' for Active; 'I' for Inactive)
REMARK    1  A    between atoms: N_2  and  C_1 
REMARK       I    between atoms: C_5  and  N_2 
REMARK    2  A    between atoms: C_8  and  C_5 
REMARK    3  A    between atoms: O_17  and  C_13 
ROOT
ATOM      1  N   UNL d   1     -39.654  14.250  19.851  0.00  0.00    -0.184 NA
ATOM      2  C   UNL d   1     -39.366  14.781  20.414  0.00  0.00     0.281 C 
ATOM      3  O   UNL d   1     -39.358  15.586  20.229  0.00  0.00    -0.265 OA
ENDROOT
BRANCH   1   4
ATOM      4  C   UNL d   1     -39.924  14.543  19.122  0.00  0.00     0.182 A 
ATOM      5  N   UNL d   1     -39.738  14.273  18.348  0.00  0.00    -0.283 N 
ATOM      6  C   UNL d   1     -40.176  14.784  17.823  0.00  0.00     0.072 A 
ATOM      7  C   UNL d   1     -39.257  13.670  18.160  0.00  0.00     0.101 C 
ATOM      8  C   UNL d   1     -40.237  14.814  16.983  0.00  0.00     0.018 A 
ATOM      9  C   UNL d   1     -40.576  15.301  18.277  0.00  0.00     0.048 A 
ATOM     10  C   UNL d   1     -40.730  15.401  16.626  0.00  0.00     0.002 A 
ATOM     11  C   UNL d   1     -41.132  15.922  17.095  0.00  0.00     0.001 A 
ATOM     12  C   UNL d   1     -41.073  15.894  17.929  0.00  0.00     0.008 A 
ATOM     13  S   UNL d   1     -40.437  15.171  19.055  0.00  0.00    -0.048 SA
ENDBRANCH   1   4
BRANCH   2  14
ATOM     14  C   UNL d   1     -39.092  14.548  21.139  0.00  0.00     0.058 A 
ATOM     15  C   UNL d   1     -39.562  14.088  21.617  0.00  0.00     0.007 A 
ATOM     16  C   UNL d   1     -39.278  13.853  22.355  0.00  0.00     0.024 A 
ATOM     17  C   UNL d   1     -38.534  14.080  22.602  0.00  0.00     0.094 A 
ATOM     18  C   UNL d   1     -38.065  14.541  22.123  0.00  0.00     0.024 A 
ATOM     19  C   UNL d   1     -38.332  14.794  21.365  0.00  0.00     0.007 A 
BRANCH  17  20
ATOM     20  O   UNL d   1     -38.257  13.839  23.346  0.00  0.00    -0.328 OA
ATOM     21  C   UNL d   1     -38.057  13.018  23.592  0.00  0.00     0.181 C 
ENDBRANCH  17  20
ENDBRANCH   2  14
TORSDOF 3
ENDMDL
MODEL 4
REMARK VINA RESULT:      -5.1      1.576      2.025
REMARK  3 active torsions:
REMARK  status: ('A' for Active; 'I' for Inactive)
REMARK    1  A    between atoms: N_2  and  C_1 
REMARK       I    between atoms: C_5  and  N_2 
REMARK    2  A    between atoms: C_8  and  C_5 
REMARK    3  A    between atoms: O_17  and  C_13 
ROOT
ATOM      1  N   UNL d   1     -47.674  12.918  22.500  0.00  0.00    -0.184 NA
ATOM      2  C   UNL d   1     -47.070  12.607  22.970  0.00  0.00     0.281 C 
ATOM      3  O   UNL d   1     -47.271  12.273  23.698  0.00  0.00    -0.265 OA
ENDROOT
BRANCH   1   4
ATOM      4  C   UNL d   1     -48.456  12.884  22.774  0.00  0.00     0.182 A 
ATOM      5  N   UNL d   1     -48.993  13.517  22.911  0.00  0.00    -0.283 N 
ATOM      6  C   UNL d   1     -49.709  13.147  23.189  0.00  0.00     0.072 A 
ATOM      7  C   UNL d   1     -48.849  14.290  22.800  0.00  0.00     0.101 C 
ATOM      8  C   UNL d   1     -50.454  13.462  23.424  0.00  0.00     0.018 A 
ATOM      9  C   UNL d   1     -49.577  12.362  23.206  0.00  0.00     0.048 A 
ATOM     10  C   UNL d   1     -51.065  12.933  23.678  0.00  0.00     0.002 A 
ATOM     11  C   UNL d   1     -50.921  12.138  23.691  0.00  0.00     0.001 A 
ATOM     12  C   UNL d   1     -50.182  11.824  23.459  0.00  0.00     0.008 A 
ATOM     13  S   UNL d   1     -48.834  12.189  22.961  0.00  0.00    -0.048 SA
ENDBRANCH   1   4
BRANCH   2  14
ATOM     14  C   UNL d   1     -46.292  12.615  22.748  0.00  0.00     0.058 A 
ATOM     15  C   UNL d   1     -45.807  11.999  22.963  0.00  0.00     0.007 A 
ATOM     16  C   UNL d   1     -45.014  12.012  22.735  0.00  0.00     0.024 A 
ATOM     17  C   UNL d   1     -44.722  12.636  22.298  0.00  0.00     0.094 A 
ATOM     18  C   UNL d   1     -45.208  13.252  22.084  0.00  0.00     0.024 A 
ATOM     19  C   UNL d   1     -46.020  13.262  22.305  0.00  0.00     0.007 A 
BRANCH  17  20
ATOM     20  O   UNL d   1     -43.922  12.641  22.073  0.00  0.00    -0.328 OA
ATOM     21  C   UNL d   1     -43.595  12.916  21.304  0.00  0.00     0.181 C 
ENDBRANCH  17  20
ENDBRANCH   2  14
TORSDOF 3
ENDMDL
