MODEL 1
REMARK VINA RESULT:      51.0      0.000      0.000
REMARK  5 active torsions:
REMARK  status: ('A' for Active; 'I' for Inactive)
REMARK    1  A    between atoms: C_7  and  C_1 
REMARK    2  A    between atoms: C_12  and  N_2 
REMARK    3  A    between atoms: C_8  and  C_7 
REMARK    4  A    between atoms: O_25  and  C_20 
REMARK    5  A    between atoms: C_26  and  O_25 
ROOT
ATOM      1  N   UNL d   1      45.251 -17.661  40.045  0.00  0.00    -0.242 N 
ATOM      2  C   UNL d   1      44.782 -17.806  40.722  0.00  0.00     0.267 A 
ATOM      3  C   UNL d   1      46.007 -17.960  40.195  0.00  0.00     0.267 A 
ATOM      4  C   UNL d   1      46.008 -18.285  40.952  0.00  0.00     0.062 A 
ATOM      5  C   UNL d   1      45.253 -18.191  41.280  0.00  0.00     0.066 A 
ATOM      6  O   UNL d   1      43.988 -17.597  40.810  0.00  0.00    -0.267 OA
ATOM      7  O   UNL d   1      46.646 -17.936  39.675  0.00  0.00    -0.267 OA
ENDROOT
BRANCH   4   8
ATOM      8  C   UNL d   1      46.644 -18.639  41.319  0.00  0.00     0.018 C 
BRANCH   8   9
ATOM      9  C   UNL d   1      46.517 -18.835  42.113  0.00  0.00     0.045 A 
ATOM     10  N   UNL d   1      46.476 -18.320  42.754  0.00  0.00    -0.308 N 
ATOM     11  C   UNL d   1      46.343 -18.762  43.435  0.00  0.00     0.060 A 
ATOM     12  C   UNL d   1      46.557 -17.507  42.712  0.00  0.00     0.099 C 
ATOM     13  C   UNL d   1      46.255 -18.546  44.220  0.00  0.00     0.017 A 
ATOM     14  C   UNL d   1      46.300 -19.556  43.216  0.00  0.00    -0.002 A 
ATOM     15  C   UNL d   1      46.124 -19.118  44.794  0.00  0.00     0.002 A 
ATOM     16  C   UNL d   1      46.081 -19.919  44.569  0.00  0.00    -0.000 A 
ATOM     17  C   UNL d   1      46.169 -20.135  43.783  0.00  0.00    -0.003 A 
ATOM     18  C   UNL d   1      46.408 -19.601  42.399  0.00  0.00     0.054 A 
ATOM     19  C   UNL d   1      46.285 -20.314  42.816  0.00  0.00     0.010 C 
ATOM     20  C   UNL d   1      46.397 -20.327  41.988  0.00  0.00     0.010 C 
ENDBRANCH   8   9
ENDBRANCH   4   8
BRANCH   1  21
ATOM     21  C   UNL d   1      45.000 -17.290  39.360  0.00  0.00     0.070 A 
ATOM     22  C   UNL d   1      44.227 -17.016  39.293  0.00  0.00     0.020 A 
ATOM     23  C   UNL d   1      43.975 -16.639  38.595  0.00  0.00     0.026 A 
ATOM     24  C   UNL d   1      44.500 -16.539  37.967  0.00  0.00     0.100 A 
ATOM     25  C   UNL d   1      45.280 -16.815  38.033  0.00  0.00     0.026 A 
ATOM     26  C   UNL d   1      45.531 -17.189  38.725  0.00  0.00     0.020 A 
BRANCH  24  27
ATOM     27  O   UNL d   1      44.256 -16.166  37.274  0.00  0.00    -0.305 OA
BRANCH  27  28
ATOM     28  C   UNL d   1      44.744 -15.623  36.899  0.00  0.00     0.123 C 
ATOM     29  C   UNL d   1      44.438 -15.106  36.336  0.00  0.00     0.029 C 
ENDBRANCH  27  28
ENDBRANCH  24  27
ENDBRANCH   1  21
TORSDOF 5
ENDMDL
