MODEL 1
REMARK VINA RESULT:      -4.1      0.000      0.000
REMARK  4 active torsions:
REMARK  status: ('A' for Active; 'I' for Inactive)
REMARK    1  A    between atoms: N_3  and  C_2 
REMARK       I    between atoms: C_6  and  N_3 
REMARK    2  A    between atoms: C_8  and  C_4 
REMARK    3  A    between atoms: C_9  and  C_6 
REMARK    4  A    between atoms: C_12  and  C_8 
ROOT
ATOM      1  N   UNL d   1     -41.742-122.670 -51.671  0.00  0.00    -0.181 NA
ATOM      2  C   UNL d   1     -41.547-122.348 -50.935  0.00  0.00     0.281 C 
ATOM      3  O   UNL d   1     -41.186-121.614 -50.887  0.00  0.00    -0.265 OA
ENDROOT
BRANCH   1   4
ATOM      4  C   UNL d   1     -41.575-122.256 -52.361  0.00  0.00     0.216 A 
ATOM      5  N   UNL d   1     -41.781-122.483 -53.127  0.00  0.00    -0.200 NA
ATOM      6  C   UNL d   1     -41.503-121.903 -53.650  0.00  0.00     0.175 A 
ATOM      7  N   UNL d   1     -41.123-121.316 -53.195  0.00  0.00    -0.187 NA
ATOM      8  S   UNL d   1     -41.171-121.539 -52.411  0.00  0.00     0.054 SA
BRANCH   6   9
ATOM      9  C   UNL d   1     -41.589-121.908 -54.466  0.00  0.00     0.082 C 
BRANCH   9  10
ATOM     10  C   UNL d   1     -42.325-122.074 -54.805  0.00  0.00     0.199 C 
ATOM     11  O   UNL d   1     -43.002-121.711 -54.505  0.00  0.00    -0.286 OA
ATOM     12  C   UNL d   1     -42.382-122.602 -55.441  0.00  0.00     0.045 C 
ENDBRANCH   9  10
ENDBRANCH   6   9
ENDBRANCH   1   4
BRANCH   2  13
ATOM     13  C   UNL d   1     -41.717-122.770 -50.246  0.00  0.00     0.060 A 
ATOM     14  C   UNL d   1     -42.370-122.557 -49.783  0.00  0.00     0.034 A 
ATOM     15  C   UNL d   1     -42.543-122.975 -49.094  0.00  0.00     0.140 A 
ATOM     16  F   UNL d   1     -43.196-122.757 -48.638  0.00  0.00    -0.204 F 
ATOM     17  C   UNL d   1     -42.065-123.604 -48.870  0.00  0.00     0.030 A 
ATOM     18  C   UNL d   1     -41.415-123.817 -49.329  0.00  0.00     0.003 A 
ATOM     19  C   UNL d   1     -41.241-123.399 -50.018  0.00  0.00     0.005 A 
ENDBRANCH   2  13
TORSDOF 4
ENDMDL
MODEL 2
REMARK VINA RESULT:      -3.8      2.365      4.854
REMARK  4 active torsions:
REMARK  status: ('A' for Active; 'I' for Inactive)
REMARK    1  A    between atoms: N_3  and  C_2 
REMARK       I    between atoms: C_6  and  N_3 
REMARK    2  A    between atoms: C_8  and  C_4 
REMARK    3  A    between atoms: C_9  and  C_6 
REMARK    4  A    between atoms: C_12  and  C_8 
ROOT
ATOM      1  N   UNL d   1     -42.106-122.798 -50.753  0.00  0.00    -0.181 NA
ATOM      2  C   UNL d   1     -41.555-123.186 -51.232  0.00  0.00     0.281 C 
ATOM      3  O   UNL d   1     -41.123-123.817 -50.938  0.00  0.00    -0.265 OA
ENDROOT
BRANCH   1   4
ATOM      4  C   UNL d   1     -42.224-123.042 -49.977  0.00  0.00     0.216 A 
ATOM      5  N   UNL d   1     -42.138-122.577 -49.302  0.00  0.00    -0.200 NA
ATOM      6  C   UNL d   1     -42.313-123.047 -48.642  0.00  0.00     0.175 A 
ATOM      7  N   UNL d   1     -42.508-123.809 -48.921  0.00  0.00    -0.187 NA
ATOM      8  S   UNL d   1     -42.452-123.798 -49.736  0.00  0.00     0.054 SA
BRANCH   6   9
ATOM      9  C   UNL d   1     -42.295-122.805 -47.858  0.00  0.00     0.082 C 
BRANCH   9  10
ATOM     10  C   UNL d   1     -42.123-123.349 -47.259  0.00  0.00     0.199 C 
ATOM     11  O   UNL d   1     -42.735-123.648 -46.792  0.00  0.00    -0.286 OA
ATOM     12  C   UNL d   1     -41.342-123.594 -47.130  0.00  0.00     0.045 C 
ENDBRANCH   9  10
ENDBRANCH   6   9
ENDBRANCH   1   4
BRANCH   2  13
ATOM     13  C   UNL d   1     -41.441-122.936 -52.010  0.00  0.00     0.060 A 
ATOM     14  C   UNL d   1     -41.412-123.492 -52.623  0.00  0.00     0.034 A 
ATOM     15  C   UNL d   1     -41.298-123.247 -53.401  0.00  0.00     0.140 A 
ATOM     16  F   UNL d   1     -41.270-123.808 -54.006  0.00  0.00    -0.204 F 
ATOM     17  C   UNL d   1     -41.214-122.447 -53.566  0.00  0.00     0.030 A 
ATOM     18  C   UNL d   1     -41.242-121.891 -52.957  0.00  0.00     0.003 A 
ATOM     19  C   UNL d   1     -41.356-122.136 -52.179  0.00  0.00     0.005 A 
ENDBRANCH   2  13
TORSDOF 4
ENDMDL
