MODEL 1
REMARK VINA RESULT:      52.2      0.000      0.000
REMARK  3 active torsions:
REMARK  status: ('A' for Active; 'I' for Inactive)
REMARK    1  A    between atoms: N_2  and  S_1 
REMARK    2  A    between atoms: C_4  and  S_1 
REMARK    3  A    between atoms: C_3  and  N_2 
ROOT
ATOM      1  S   UNL d   1     -50.560  25.719  33.331  0.00  0.00     0.285 S 
ATOM      2  O   UNL d   1     -49.962  25.146  33.356  0.00  0.00    -0.198 OA
ATOM      3  O   UNL d   1     -51.162  26.293  33.306  0.00  0.00    -0.198 OA
ENDROOT
BRANCH   1   4
ATOM      4  N   UNL d   1     -49.985  26.321  33.337  0.00  0.00    -0.158 NA
BRANCH   4   5
ATOM      5  C   UNL d   1     -49.830  26.734  34.037  0.00  0.00     0.094 A 
ATOM      6  C   UNL d   1     -50.357  26.715  34.675  0.00  0.00     0.023 A 
ATOM      7  C   UNL d   1     -50.201  27.122  35.362  0.00  0.00     0.041 A 
ATOM      8  C   UNL d   1     -50.748  27.079  35.972  0.00  0.00     0.003 C 
ATOM      9  C   UNL d   1     -49.488  27.574  35.430  0.00  0.00     0.196 A 
ATOM     10  C   UNL d   1     -48.961  27.593  34.792  0.00  0.00     0.044 A 
ATOM     11  O   UNL d   1     -49.333  27.988  36.131  0.00  0.00    -0.287 OA
ATOM     12  C   UNL d   1     -49.137  27.176  34.109  0.00  0.00     0.022 A 
ATOM     13  C   UNL d   1     -48.607  27.204  33.488  0.00  0.00     0.002 C 
ENDBRANCH   4   5
ENDBRANCH   1   4
BRANCH   1  14
ATOM     14  C   UNL d   1     -51.138  25.118  33.325  0.00  0.00     0.105 A 
ATOM     15  C   UNL d   1     -50.898  24.337  33.329  0.00  0.00     0.013 A 
ATOM     16  C   UNL d   1     -51.451  23.750  33.324  0.00  0.00     0.001 A 
ATOM     17  C   UNL d   1     -52.277  23.934  33.314  0.00  0.00     0.000 A 
ATOM     18  C   UNL d   1     -52.514  24.722  33.310  0.00  0.00     0.001 A 
ATOM     19  C   UNL d   1     -52.877  23.333  33.308  0.00  0.00     0.000 C 
ATOM     20  C   UNL d   1     -51.937  25.319  33.316  0.00  0.00     0.013 A 
ENDBRANCH   1  14
TORSDOF 3
ENDMDL
