MODEL 1
REMARK VINA RESULT:      -7.1      0.000      0.000
REMARK  4 active torsions:
REMARK  status: ('A' for Active; 'I' for Inactive)
REMARK    1  A    between atoms: C_14  and  C_2 
REMARK    2  A    between atoms: C_4  and  C_5 
REMARK    3  A    between atoms: C_5  and  O_9 
REMARK    4  A    between atoms: O_9  and  C_14 
ROOT
ATOM      1  N   UNL d   1      52.501  31.547  52.642  0.00  0.00    -0.236 NA
ATOM      2  C   UNL d   1      52.806  32.206  53.014  0.00  0.00     0.136 A 
ATOM      3  S   UNL d   1      53.320  31.952  53.620  0.00  0.00    -0.064 SA
ATOM      4  C   UNL d   1      52.822  30.879  53.011  0.00  0.00     0.088 A 
ATOM      5  C   UNL d   1      53.323  31.125  53.609  0.00  0.00     0.049 A 
ATOM      6  C   UNL d   1      52.714  30.073  52.869  0.00  0.00     0.020 A 
ATOM      7  C   UNL d   1      53.718  30.560  54.069  0.00  0.00     0.008 A 
ATOM      8  C   UNL d   1      53.613  29.748  53.930  0.00  0.00     0.001 A 
ATOM      9  C   UNL d   1      53.111  29.505  53.330  0.00  0.00     0.002 A 
ENDROOT
BRANCH   2  10
ATOM     10  C   UNL d   1      52.656  32.991  52.850  0.00  0.00     0.152 C 
BRANCH  10  11
ATOM     11  O   UNL d   1      51.856  33.227  52.781  0.00  0.00    -0.269 OA
BRANCH  11  12
ATOM     12  C   UNL d   1      51.669  34.041  52.673  0.00  0.00     0.306 C 
ATOM     13  O   UNL d   1      52.280  34.598  52.620  0.00  0.00    -0.258 OA
BRANCH  12  14
ATOM     14  C   UNL d   1      50.860  34.298  52.617  0.00  0.00     0.093 A 
ATOM     15  S   UNL d   1      50.333  34.551  53.192  0.00  0.00    -0.081 SA
ATOM     16  C   UNL d   1      49.623  34.729  52.806  0.00  0.00     0.036 A 
ATOM     17  C   UNL d   1      49.718  34.586  52.017  0.00  0.00     0.008 A 
ATOM     18  C   UNL d   1      50.483  34.317  51.890  0.00  0.00     0.012 A 
ENDBRANCH  12  14
ENDBRANCH  11  12
ENDBRANCH  10  11
ENDBRANCH   2  10
TORSDOF 4
ENDMDL
MODEL 2
REMARK VINA RESULT:      -6.9      1.925      4.473
REMARK  4 active torsions:
REMARK  status: ('A' for Active; 'I' for Inactive)
REMARK    1  A    between atoms: C_14  and  C_2 
REMARK    2  A    between atoms: C_4  and  C_5 
REMARK    3  A    between atoms: C_5  and  O_9 
REMARK    4  A    between atoms: O_9  and  C_14 
ROOT
ATOM      1  N   UNL d   1      53.381  33.172  54.023  0.00  0.00    -0.236 NA
ATOM      2  C   UNL d   1      52.948  32.996  53.355  0.00  0.00     0.136 A 
ATOM      3  S   UNL d   1      52.539  33.684  53.118  0.00  0.00    -0.064 SA
ATOM      4  C   UNL d   1      53.247  33.968  54.208  0.00  0.00     0.088 A 
ATOM      5  C   UNL d   1      52.732  34.282  53.655  0.00  0.00     0.049 A 
ATOM      6  C   UNL d   1      53.537  34.443  54.818  0.00  0.00     0.020 A 
ATOM      7  C   UNL d   1      52.505  35.076  53.714  0.00  0.00     0.008 A 
ATOM      8  C   UNL d   1      52.793  35.558  54.325  0.00  0.00     0.001 A 
ATOM      9  C   UNL d   1      53.309  35.241  54.877  0.00  0.00     0.002 A 
ENDROOT
BRANCH   2  10
ATOM     10  C   UNL d   1      52.898  32.284  52.960  0.00  0.00     0.152 C 
BRANCH  10  11
ATOM     11  O   UNL d   1      53.002  31.584  53.408  0.00  0.00    -0.269 OA
BRANCH  11  12
ATOM     12  C   UNL d   1      52.976  30.835  53.023  0.00  0.00     0.306 C 
ATOM     13  O   UNL d   1      52.895  30.800  52.199  0.00  0.00    -0.258 OA
BRANCH  12  14
ATOM     14  C   UNL d   1      53.032  30.115  53.472  0.00  0.00     0.093 A 
ATOM     15  S   UNL d   1      52.460  29.569  53.690  0.00  0.00    -0.081 SA
ATOM     16  C   UNL d   1      52.844  28.978  54.124  0.00  0.00     0.036 A 
ATOM     17  C   UNL d   1      53.629  29.162  54.167  0.00  0.00     0.008 A 
ATOM     18  C   UNL d   1      53.756  29.867  53.765  0.00  0.00     0.012 A 
ENDBRANCH  12  14
ENDBRANCH  11  12
ENDBRANCH  10  11
ENDBRANCH   2  10
TORSDOF 4
ENDMDL
MODEL 3
REMARK VINA RESULT:      -6.5      1.818      2.176
REMARK  4 active torsions:
REMARK  status: ('A' for Active; 'I' for Inactive)
REMARK    1  A    between atoms: C_14  and  C_2 
REMARK    2  A    between atoms: C_4  and  C_5 
REMARK    3  A    between atoms: C_5  and  O_9 
REMARK    4  A    between atoms: O_9  and  C_14 
ROOT
ATOM      1  N   UNL d   1      53.613  31.452  53.637  0.00  0.00    -0.236 NA
ATOM      2  C   UNL d   1      53.066  31.829  53.163  0.00  0.00     0.136 A 
ATOM      3  S   UNL d   1      52.519  31.261  52.889  0.00  0.00    -0.064 SA
ATOM      4  C   UNL d   1      53.413  30.648  53.662  0.00  0.00     0.088 A 
ATOM      5  C   UNL d   1      52.744  30.530  53.205  0.00  0.00     0.049 A 
ATOM      6  C   UNL d   1      53.765  30.011  54.050  0.00  0.00     0.020 A 
ATOM      7  C   UNL d   1      52.426  29.769  53.137  0.00  0.00     0.008 A 
ATOM      8  C   UNL d   1      52.776  29.124  53.525  0.00  0.00     0.001 A 
ATOM      9  C   UNL d   1      53.445  29.245  53.982  0.00  0.00     0.002 A 
ENDROOT
BRANCH   2  10
ATOM     10  C   UNL d   1      53.028  32.620  52.969  0.00  0.00     0.152 C 
BRANCH  10  11
ATOM     11  O   UNL d   1      53.070  33.175  53.595  0.00  0.00    -0.269 OA
BRANCH  11  12
ATOM     12  C   UNL d   1      52.930  33.991  53.439  0.00  0.00     0.306 C 
ATOM     13  O   UNL d   1      52.689  34.228  52.682  0.00  0.00    -0.258 OA
BRANCH  12  14
ATOM     14  C   UNL d   1      53.032  34.574  54.049  0.00  0.00     0.093 A 
ATOM     15  S   UNL d   1      53.352  34.517  54.802  0.00  0.00    -0.081 SA
ATOM     16  C   UNL d   1      53.302  35.270  55.142  0.00  0.00     0.036 A 
ATOM     17  C   UNL d   1      52.961  35.770  54.608  0.00  0.00     0.008 A 
ATOM     18  C   UNL d   1      52.790  35.347  53.925  0.00  0.00     0.012 A 
ENDBRANCH  12  14
ENDBRANCH  11  12
ENDBRANCH  10  11
ENDBRANCH   2  10
TORSDOF 4
ENDMDL
MODEL 4
REMARK VINA RESULT:      -6.5      1.114      4.415
REMARK  4 active torsions:
REMARK  status: ('A' for Active; 'I' for Inactive)
REMARK    1  A    between atoms: C_14  and  C_2 
REMARK    2  A    between atoms: C_4  and  C_5 
REMARK    3  A    between atoms: C_5  and  O_9 
REMARK    4  A    between atoms: O_9  and  C_14 
ROOT
ATOM      1  N   UNL d   1      51.730  33.435  52.191  0.00  0.00    -0.236 NA
ATOM      2  C   UNL d   1      52.028  33.308  52.940  0.00  0.00     0.136 A 
ATOM      3  S   UNL d   1      51.527  33.686  53.490  0.00  0.00    -0.064 SA
ATOM      4  C   UNL d   1      51.043  33.892  52.268  0.00  0.00     0.088 A 
ATOM      5  C   UNL d   1      50.918  34.046  53.062  0.00  0.00     0.049 A 
ATOM      6  C   UNL d   1      50.518  34.185  51.703  0.00  0.00     0.020 A 
ATOM      7  C   UNL d   1      50.263  34.496  53.292  0.00  0.00     0.008 A 
ATOM      8  C   UNL d   1      49.730  34.793  52.728  0.00  0.00     0.001 A 
ATOM      9  C   UNL d   1      49.858  34.638  51.934  0.00  0.00     0.002 A 
ENDROOT
BRANCH   2  10
ATOM     10  C   UNL d   1      52.696  32.890  53.151  0.00  0.00     0.152 C 
BRANCH  10  11
ATOM     11  O   UNL d   1      52.665  32.055  53.096  0.00  0.00    -0.269 OA
BRANCH  11  12
ATOM     12  C   UNL d   1      53.323  31.595  53.351  0.00  0.00     0.306 C 
ATOM     13  O   UNL d   1      54.051  31.966  53.493  0.00  0.00    -0.258 OA
BRANCH  12  14
ATOM     14  C   UNL d   1      53.249  30.756  53.464  0.00  0.00     0.093 A 
ATOM     15  S   UNL d   1      52.913  30.175  52.992  0.00  0.00    -0.081 SA
ATOM     16  C   UNL d   1      53.007  29.457  53.392  0.00  0.00     0.036 A 
ATOM     17  C   UNL d   1      53.389  29.599  54.088  0.00  0.00     0.008 A 
ATOM     18  C   UNL d   1      53.544  30.404  54.142  0.00  0.00     0.012 A 
ENDBRANCH  12  14
ENDBRANCH  11  12
ENDBRANCH  10  11
ENDBRANCH   2  10
TORSDOF 4
ENDMDL
MODEL 5
REMARK VINA RESULT:      -6.5      1.923      4.334
REMARK  4 active torsions:
REMARK  status: ('A' for Active; 'I' for Inactive)
REMARK    1  A    between atoms: C_14  and  C_2 
REMARK    2  A    between atoms: C_4  and  C_5 
REMARK    3  A    between atoms: C_5  and  O_9 
REMARK    4  A    between atoms: O_9  and  C_14 
ROOT
ATOM      1  N   UNL d   1      51.887  33.457  52.200  0.00  0.00    -0.236 NA
ATOM      2  C   UNL d   1      51.976  33.168  52.958  0.00  0.00     0.136 A 
ATOM      3  S   UNL d   1      51.304  33.387  53.403  0.00  0.00    -0.064 SA
ATOM      4  C   UNL d   1      51.162  33.856  52.166  0.00  0.00     0.088 A 
ATOM      5  C   UNL d   1      50.805  33.814  52.901  0.00  0.00     0.049 A 
ATOM      6  C   UNL d   1      50.788  34.254  51.548  0.00  0.00     0.020 A 
ATOM      7  C   UNL d   1      50.068  34.172  53.017  0.00  0.00     0.008 A 
ATOM      8  C   UNL d   1      49.686  34.573  52.399  0.00  0.00     0.001 A 
ATOM      9  C   UNL d   1      50.046  34.614  51.664  0.00  0.00     0.002 A 
ENDROOT
BRANCH   2  10
ATOM     10  C   UNL d   1      52.598  32.738  53.263  0.00  0.00     0.152 C 
BRANCH  10  11
ATOM     11  O   UNL d   1      53.156  33.144  53.737  0.00  0.00    -0.269 OA
BRANCH  11  12
ATOM     12  C   UNL d   1      53.838  32.739  54.018  0.00  0.00     0.306 C 
ATOM     13  O   UNL d   1      53.984  31.962  53.771  0.00  0.00    -0.258 OA
BRANCH  12  14
ATOM     14  C   UNL d   1      54.380  33.119  54.553  0.00  0.00     0.093 A 
ATOM     15  S   UNL d   1      54.366  33.198  55.369  0.00  0.00    -0.081 SA
ATOM     16  C   UNL d   1      55.043  33.625  55.581  0.00  0.00     0.036 A 
ATOM     17  C   UNL d   1      55.456  33.799  54.909  0.00  0.00     0.008 A 
ATOM     18  C   UNL d   1      55.051  33.490  54.265  0.00  0.00     0.012 A 
ENDBRANCH  12  14
ENDBRANCH  11  12
ENDBRANCH  10  11
ENDBRANCH   2  10
TORSDOF 4
ENDMDL
MODEL 6
REMARK VINA RESULT:      -6.1      1.820      2.309
REMARK  4 active torsions:
REMARK  status: ('A' for Active; 'I' for Inactive)
REMARK    1  A    between atoms: C_14  and  C_2 
REMARK    2  A    between atoms: C_4  and  C_5 
REMARK    3  A    between atoms: C_5  and  O_9 
REMARK    4  A    between atoms: O_9  and  C_14 
ROOT
ATOM      1  N   UNL d   1      52.941  34.142  53.711  0.00  0.00    -0.236 NA
ATOM      2  C   UNL d   1      52.612  33.533  53.279  0.00  0.00     0.136 A 
ATOM      3  S   UNL d   1      52.952  32.815  53.536  0.00  0.00    -0.064 SA
ATOM      4  C   UNL d   1      53.487  33.811  54.238  0.00  0.00     0.088 A 
ATOM      5  C   UNL d   1      53.495  32.999  54.132  0.00  0.00     0.049 A 
ATOM      6  C   UNL d   1      53.978  34.157  54.804  0.00  0.00     0.020 A 
ATOM      7  C   UNL d   1      53.998  32.532  54.595  0.00  0.00     0.008 A 
ATOM      8  C   UNL d   1      54.494  32.875  55.165  0.00  0.00     0.001 A 
ATOM      9  C   UNL d   1      54.484  33.688  55.270  0.00  0.00     0.002 A 
ENDROOT
BRANCH   2  10
ATOM     10  C   UNL d   1      52.048  33.579  52.692  0.00  0.00     0.152 C 
BRANCH  10  11
ATOM     11  O   UNL d   1      51.360  34.030  52.850  0.00  0.00    -0.269 OA
BRANCH  11  12
ATOM     12  C   UNL d   1      50.845  34.241  52.218  0.00  0.00     0.306 C 
ATOM     13  O   UNL d   1      51.096  34.141  51.434  0.00  0.00    -0.258 OA
BRANCH  12  14
ATOM     14  C   UNL d   1      50.071  34.555  52.375  0.00  0.00     0.093 A 
ATOM     15  S   UNL d   1      49.751  34.892  53.051  0.00  0.00    -0.081 SA
ATOM     16  C   UNL d   1      48.969  35.095  52.872  0.00  0.00     0.036 A 
ATOM     17  C   UNL d   1      48.820  34.887  52.107  0.00  0.00     0.008 A 
ATOM     18  C   UNL d   1      49.498  34.550  51.789  0.00  0.00     0.012 A 
ENDBRANCH  12  14
ENDBRANCH  11  12
ENDBRANCH  10  11
ENDBRANCH   2  10
TORSDOF 4
ENDMDL
MODEL 7
REMARK VINA RESULT:      -5.9      2.357      3.381
REMARK  4 active torsions:
REMARK  status: ('A' for Active; 'I' for Inactive)
REMARK    1  A    between atoms: C_14  and  C_2 
REMARK    2  A    between atoms: C_4  and  C_5 
REMARK    3  A    between atoms: C_5  and  O_9 
REMARK    4  A    between atoms: O_9  and  C_14 
ROOT
ATOM      1  N   UNL d   1      51.351  34.859  53.008  0.00  0.00    -0.236 NA
ATOM      2  C   UNL d   1      50.781  34.297  52.851  0.00  0.00     0.136 A 
ATOM      3  S   UNL d   1      51.068  33.555  53.102  0.00  0.00    -0.064 SA
ATOM      4  C   UNL d   1      51.996  34.474  53.357  0.00  0.00     0.088 A 
ATOM      5  C   UNL d   1      51.824  33.676  53.415  0.00  0.00     0.049 A 
ATOM      6  C   UNL d   1      52.721  34.760  53.628  0.00  0.00     0.020 A 
ATOM      7  C   UNL d   1      52.382  33.162  53.746  0.00  0.00     0.008 A 
ATOM      8  C   UNL d   1      53.113  33.444  54.021  0.00  0.00     0.001 A 
ATOM      9  C   UNL d   1      53.282  34.244  53.962  0.00  0.00     0.002 A 
ENDROOT
BRANCH   2  10
ATOM     10  C   UNL d   1      50.048  34.405  52.510  0.00  0.00     0.152 C 
BRANCH  10  11
ATOM     11  O   UNL d   1      49.541  34.976  52.853  0.00  0.00    -0.269 OA
BRANCH  11  12
ATOM     12  C   UNL d   1      48.819  35.177  52.469  0.00  0.00     0.306 C 
ATOM     13  O   UNL d   1      48.634  34.833  51.737  0.00  0.00    -0.258 OA
BRANCH  12  14
ATOM     14  C   UNL d   1      48.278  35.730  52.822  0.00  0.00     0.093 A 
ATOM     15  S   UNL d   1      48.226  36.020  53.588  0.00  0.00    -0.081 SA
ATOM     16  C   UNL d   1      47.585  36.544  53.603  0.00  0.00     0.036 A 
ATOM     17  C   UNL d   1      47.258  36.569  52.866  0.00  0.00     0.008 A 
ATOM     18  C   UNL d   1      47.681  36.067  52.373  0.00  0.00     0.012 A 
ENDBRANCH  12  14
ENDBRANCH  11  12
ENDBRANCH  10  11
ENDBRANCH   2  10
TORSDOF 4
ENDMDL
MODEL 8
REMARK VINA RESULT:      -5.5      2.712      5.418
REMARK  4 active torsions:
REMARK  status: ('A' for Active; 'I' for Inactive)
REMARK    1  A    between atoms: C_14  and  C_2 
REMARK    2  A    between atoms: C_4  and  C_5 
REMARK    3  A    between atoms: C_5  and  O_9 
REMARK    4  A    between atoms: O_9  and  C_14 
ROOT
ATOM      1  N   UNL d   1      49.174  35.351  53.224  0.00  0.00    -0.236 NA
ATOM      2  C   UNL d   1      49.383  34.921  52.563  0.00  0.00     0.136 A 
ATOM      3  S   UNL d   1      48.789  35.021  51.985  0.00  0.00    -0.064 SA
ATOM      4  C   UNL d   1      48.450  35.721  53.064  0.00  0.00     0.088 A 
ATOM      5  C   UNL d   1      48.214  35.520  52.307  0.00  0.00     0.049 A 
ATOM      6  C   UNL d   1      47.980  36.220  53.524  0.00  0.00     0.020 A 
ATOM      7  C   UNL d   1      47.502  35.819  52.009  0.00  0.00     0.008 A 
ATOM      8  C   UNL d   1      47.025  36.321  52.467  0.00  0.00     0.001 A 
ATOM      9  C   UNL d   1      47.264  36.521  53.225  0.00  0.00     0.002 A 
ENDROOT
BRANCH   2  10
ATOM     10  C   UNL d   1      50.049  34.462  52.451  0.00  0.00     0.152 C 
BRANCH  10  11
ATOM     11  O   UNL d   1      50.713  34.616  52.937  0.00  0.00    -0.269 OA
BRANCH  11  12
ATOM     12  C   UNL d   1      51.451  34.252  52.762  0.00  0.00     0.306 C 
ATOM     13  O   UNL d   1      51.569  33.899  52.022  0.00  0.00    -0.258 OA
BRANCH  12  14
ATOM     14  C   UNL d   1      52.078  34.243  53.337  0.00  0.00     0.093 A 
ATOM     15  S   UNL d   1      52.367  33.639  53.811  0.00  0.00    -0.081 SA
ATOM     16  C   UNL d   1      52.983  33.960  54.261  0.00  0.00     0.036 A 
ATOM     17  C   UNL d   1      53.064  34.739  54.064  0.00  0.00     0.008 A 
ATOM     18  C   UNL d   1      52.506  34.924  53.491  0.00  0.00     0.012 A 
ENDBRANCH  12  14
ENDBRANCH  11  12
ENDBRANCH  10  11
ENDBRANCH   2  10
TORSDOF 4
ENDMDL
