MODEL 1
REMARK VINA RESULT:      -6.6      0.000      0.000
REMARK  3 active torsions:
REMARK  status: ('A' for Active; 'I' for Inactive)
REMARK    1  A    between atoms: C_10  and  C_5 
REMARK    2  A    between atoms: S_9  and  C_10 
REMARK    3  A    between atoms: C_11  and  S_9 
ROOT
ATOM      1  C   UNL d   1     -50.219  14.083  22.194  0.00  0.00     0.179 A 
ATOM      2  N   UNL d   1     -49.903  14.557  22.786  0.00  0.00    -0.283 N 
ATOM      3  N   UNL d   1     -49.687  13.482  22.048  0.00  0.00    -0.220 NA
ATOM      4  S   UNL d   1     -50.941  14.398  21.984  0.00  0.00    -0.048 SA
ATOM      5  C   UNL d   1     -49.042  13.577  22.544  0.00  0.00     0.107 A 
ATOM      6  C   UNL d   1     -49.179  14.246  23.002  0.00  0.00     0.102 A 
ATOM      7  C   UNL d   1     -50.432  15.162  22.938  0.00  0.00     0.073 A 
ATOM      8  C   UNL d   1     -51.064  15.053  22.440  0.00  0.00     0.056 A 
ATOM      9  C   UNL d   1     -50.333  15.771  23.499  0.00  0.00     0.020 C 
ENDROOT
BRANCH   5  10
ATOM     10  C   UNL d   1     -48.375  13.076  22.567  0.00  0.00     0.056 C 
BRANCH  10  11
ATOM     11  S   UNL d   1     -47.893  13.097  23.234  0.00  0.00    -0.085 SA
BRANCH  11  12
ATOM     12  C   UNL d   1     -47.335  12.504  23.349  0.00  0.00     0.030 A 
ATOM     13  C   UNL d   1     -47.570  11.740  23.584  0.00  0.00     0.007 A 
ATOM     14  C   UNL d   1     -47.015  11.150  23.698  0.00  0.00     0.012 A 
ATOM     15  C   UNL d   1     -46.215  11.314  23.580  0.00  0.00     0.058 A 
ATOM     16  C   UNL d   1     -45.966  12.068  23.347  0.00  0.00     0.012 A 
ATOM     17 CL   UNL d   1     -45.651  10.737  23.690  0.00  0.00    -0.082 Cl
ATOM     18  C   UNL d   1     -46.536  12.673  23.230  0.00  0.00     0.007 A 
ENDBRANCH  11  12
ENDBRANCH  10  11
ENDBRANCH   5  10
TORSDOF 3
ENDMDL
MODEL 2
REMARK VINA RESULT:      -6.4      0.903      1.282
REMARK  3 active torsions:
REMARK  status: ('A' for Active; 'I' for Inactive)
REMARK    1  A    between atoms: C_10  and  C_5 
REMARK    2  A    between atoms: S_9  and  C_10 
REMARK    3  A    between atoms: C_11  and  S_9 
ROOT
ATOM      1  C   UNL d   1     -50.083  14.056  22.600  0.00  0.00     0.179 A 
ATOM      2  N   UNL d   1     -49.761  14.718  22.964  0.00  0.00    -0.283 N 
ATOM      3  N   UNL d   1     -49.465  13.592  22.339  0.00  0.00    -0.220 NA
ATOM      4  S   UNL d   1     -50.894  14.121  22.641  0.00  0.00    -0.048 SA
ATOM      5  C   UNL d   1     -48.759  13.959  22.537  0.00  0.00     0.107 A 
ATOM      6  C   UNL d   1     -48.946  14.659  22.926  0.00  0.00     0.102 A 
ATOM      7  C   UNL d   1     -50.376  15.188  23.229  0.00  0.00     0.073 A 
ATOM      8  C   UNL d   1     -51.064  14.811  23.025  0.00  0.00     0.056 A 
ATOM      9  C   UNL d   1     -50.299  15.915  23.631  0.00  0.00     0.020 C 
ENDROOT
BRANCH   5  10
ATOM     10  C   UNL d   1     -47.998  13.662  22.368  0.00  0.00     0.056 C 
BRANCH  10  11
ATOM     11  S   UNL d   1     -47.459  13.591  22.986  0.00  0.00    -0.085 SA
BRANCH  11  12
ATOM     12  C   UNL d   1     -46.722  13.257  22.844  0.00  0.00     0.030 A 
ATOM     13  C   UNL d   1     -46.150  13.664  22.396  0.00  0.00     0.007 A 
ATOM     14  C   UNL d   1     -45.416  13.331  22.254  0.00  0.00     0.012 A 
ATOM     15  C   UNL d   1     -45.241  12.585  22.558  0.00  0.00     0.058 A 
ATOM     16  C   UNL d   1     -45.799  12.168  23.005  0.00  0.00     0.012 A 
ATOM     17 CL   UNL d   1     -44.515  12.240  22.426  0.00  0.00    -0.082 Cl
ATOM     18  C   UNL d   1     -46.551  12.509  23.151  0.00  0.00     0.007 A 
ENDBRANCH  11  12
ENDBRANCH  10  11
ENDBRANCH   5  10
TORSDOF 3
ENDMDL
MODEL 3
REMARK VINA RESULT:      -5.3      1.749      2.234
REMARK  3 active torsions:
REMARK  status: ('A' for Active; 'I' for Inactive)
REMARK    1  A    between atoms: C_10  and  C_5 
REMARK    2  A    between atoms: S_9  and  C_10 
REMARK    3  A    between atoms: C_11  and  S_9 
ROOT
ATOM      1  C   UNL d   1     -49.506  11.865  23.666  0.00  0.00     0.179 A 
ATOM      2  N   UNL d   1     -49.528  12.685  23.622  0.00  0.00    -0.283 N 
ATOM      3  N   UNL d   1     -48.723  11.638  23.669  0.00  0.00    -0.220 NA
ATOM      4  S   UNL d   1     -50.276  11.598  23.690  0.00  0.00    -0.048 SA
ATOM      5  C   UNL d   1     -48.255  12.310  23.627  0.00  0.00     0.107 A 
ATOM      6  C   UNL d   1     -48.758  12.960  23.598  0.00  0.00     0.102 A 
ATOM      7  C   UNL d   1     -50.311  12.920  23.618  0.00  0.00     0.073 A 
ATOM      8  C   UNL d   1     -50.759  12.245  23.661  0.00  0.00     0.056 A 
ATOM      9  C   UNL d   1     -50.588  13.705  23.579  0.00  0.00     0.020 C 
ENDROOT
BRANCH   5  10
ATOM     10  C   UNL d   1     -47.420  12.316  23.617  0.00  0.00     0.056 C 
BRANCH  10  11
ATOM     11  S   UNL d   1     -47.037  12.992  23.346  0.00  0.00    -0.085 SA
BRANCH  11  12
ATOM     12  C   UNL d   1     -46.303  12.923  22.982  0.00  0.00     0.030 A 
ATOM     13  C   UNL d   1     -45.824  12.255  23.116  0.00  0.00     0.007 A 
ATOM     14  C   UNL d   1     -45.094  12.186  22.754  0.00  0.00     0.012 A 
ATOM     15  C   UNL d   1     -44.830  12.784  22.251  0.00  0.00     0.058 A 
ATOM     16  C   UNL d   1     -45.295  13.453  22.108  0.00  0.00     0.012 A 
ATOM     17 CL   UNL d   1     -44.105  12.729  21.883  0.00  0.00    -0.082 Cl
ATOM     18  C   UNL d   1     -46.044  13.524  22.479  0.00  0.00     0.007 A 
ENDBRANCH  11  12
ENDBRANCH  10  11
ENDBRANCH   5  10
TORSDOF 3
ENDMDL
MODEL 4
REMARK VINA RESULT:      -5.3      9.455     10.116
REMARK  3 active torsions:
REMARK  status: ('A' for Active; 'I' for Inactive)
REMARK    1  A    between atoms: C_10  and  C_5 
REMARK    2  A    between atoms: S_9  and  C_10 
REMARK    3  A    between atoms: C_11  and  S_9 
ROOT
ATOM      1  C   UNL d   1     -39.148  14.031  21.926  0.00  0.00     0.179 A 
ATOM      2  N   UNL d   1     -39.179  14.838  22.077  0.00  0.00    -0.283 N 
ATOM      3  N   UNL d   1     -39.510  13.900  21.207  0.00  0.00    -0.220 NA
ATOM      4  S   UNL d   1     -38.767  13.677  22.554  0.00  0.00    -0.048 SA
ATOM      5  C   UNL d   1     -39.768  14.618  20.908  0.00  0.00     0.107 A 
ATOM      6  C   UNL d   1     -39.561  15.200  21.451  0.00  0.00     0.102 A 
ATOM      7  C   UNL d   1     -38.817  14.977  22.797  0.00  0.00     0.073 A 
ATOM      8  C   UNL d   1     -38.569  14.258  23.079  0.00  0.00     0.056 A 
ATOM      9  C   UNL d   1     -38.725  15.721  23.164  0.00  0.00     0.020 C 
ENDROOT
BRANCH   5  10
ATOM     10  C   UNL d   1     -40.166  14.721  20.182  0.00  0.00     0.056 C 
BRANCH  10  11
ATOM     11  S   UNL d   1     -39.730  14.966  19.528  0.00  0.00    -0.085 SA
BRANCH  11  12
ATOM     12  C   UNL d   1     -40.112  15.087  18.810  0.00  0.00     0.030 A 
ATOM     13  C   UNL d   1     -40.512  15.801  18.657  0.00  0.00     0.007 A 
ATOM     14  C   UNL d   1     -40.892  15.922  17.942  0.00  0.00     0.012 A 
ATOM     15  C   UNL d   1     -40.878  15.330  17.368  0.00  0.00     0.058 A 
ATOM     16  C   UNL d   1     -40.485  14.615  17.506  0.00  0.00     0.012 A 
ATOM     17 CL   UNL d   1     -41.252  15.435  16.652  0.00  0.00    -0.082 Cl
ATOM     18  C   UNL d   1     -40.096  14.491  18.238  0.00  0.00     0.007 A 
ENDBRANCH  11  12
ENDBRANCH  10  11
ENDBRANCH   5  10
TORSDOF 3
ENDMDL
MODEL 5
REMARK VINA RESULT:      -5.3      9.313     10.050
REMARK  3 active torsions:
REMARK  status: ('A' for Active; 'I' for Inactive)
REMARK    1  A    between atoms: C_10  and  C_5 
REMARK    2  A    between atoms: S_9  and  C_10 
REMARK    3  A    between atoms: C_11  and  S_9 
ROOT
ATOM      1  C   UNL d   1     -40.530  15.246  17.708  0.00  0.00     0.179 A 
ATOM      2  N   UNL d   1     -39.734  15.320  17.515  0.00  0.00    -0.283 N 
ATOM      3  N   UNL d   1     -40.577  14.842  18.414  0.00  0.00    -0.220 NA
ATOM      4  S   UNL d   1     -40.961  15.607  17.117  0.00  0.00    -0.048 SA
ATOM      5  C   UNL d   1     -39.818  14.662  18.665  0.00  0.00     0.107 A 
ATOM      6  C   UNL d   1     -39.296  14.960  18.104  0.00  0.00     0.102 A 
ATOM      7  C   UNL d   1     -39.680  15.725  16.807  0.00  0.00     0.073 A 
ATOM      8  C   UNL d   1     -40.438  15.895  16.574  0.00  0.00     0.056 A 
ATOM      9  C   UNL d   1     -38.974  15.922  16.409  0.00  0.00     0.020 C 
ENDROOT
BRANCH   5  10
ATOM     10  C   UNL d   1     -39.628  14.250  19.365  0.00  0.00     0.056 C 
BRANCH  10  11
ATOM     11  S   UNL d   1     -39.323  14.677  20.000  0.00  0.00    -0.085 SA
BRANCH  11  12
ATOM     12  C   UNL d   1     -39.167  14.291  20.709  0.00  0.00     0.030 A 
ATOM     13  C   UNL d   1     -39.719  14.309  21.333  0.00  0.00     0.007 A 
ATOM     14  C   UNL d   1     -39.563  13.926  22.039  0.00  0.00     0.012 A 
ATOM     15  C   UNL d   1     -38.853  13.517  22.133  0.00  0.00     0.058 A 
ATOM     16  C   UNL d   1     -38.295  13.490  21.522  0.00  0.00     0.012 A 
ATOM     17 CL   UNL d   1     -38.684  13.130  22.829  0.00  0.00    -0.082 Cl
ATOM     18  C   UNL d   1     -38.455  13.884  20.799  0.00  0.00     0.007 A 
ENDBRANCH  11  12
ENDBRANCH  10  11
ENDBRANCH   5  10
TORSDOF 3
ENDMDL
MODEL 6
REMARK VINA RESULT:      -5.1      9.279     10.624
REMARK  3 active torsions:
REMARK  status: ('A' for Active; 'I' for Inactive)
REMARK    1  A    between atoms: C_10  and  C_5 
REMARK    2  A    between atoms: S_9  and  C_10 
REMARK    3  A    between atoms: C_11  and  S_9 
ROOT
ATOM      1  C   UNL d   1     -40.386  15.683  20.140  0.00  0.00     0.179 A 
ATOM      2  N   UNL d   1     -39.691  15.536  20.553  0.00  0.00    -0.283 N 
ATOM      3  N   UNL d   1     -40.241  15.532  19.352  0.00  0.00    -0.220 NA
ATOM      4  S   UNL d   1     -40.949  15.922  20.679  0.00  0.00    -0.048 SA
ATOM      5  C   UNL d   1     -39.461  15.292  19.269  0.00  0.00     0.107 A 
ATOM      6  C   UNL d   1     -39.121  15.296  20.018  0.00  0.00     0.102 A 
ATOM      7  C   UNL d   1     -39.829  15.686  21.345  0.00  0.00     0.073 A 
ATOM      8  C   UNL d   1     -40.603  15.921  21.409  0.00  0.00     0.056 A 
ATOM      9  C   UNL d   1     -39.274  15.608  21.963  0.00  0.00     0.020 C 
ENDROOT
BRANCH   5  10
ATOM     10  C   UNL d   1     -39.095  15.086  18.548  0.00  0.00     0.056 C 
BRANCH  10  11
ATOM     11  S   UNL d   1     -39.392  14.442  18.129  0.00  0.00    -0.085 SA
BRANCH  11  12
ATOM     12  C   UNL d   1     -39.034  14.219  17.423  0.00  0.00     0.030 A 
ATOM     13  C   UNL d   1     -39.042  14.728  16.763  0.00  0.00     0.007 A 
ATOM     14  C   UNL d   1     -38.685  14.505  16.061  0.00  0.00     0.012 A 
ATOM     15  C   UNL d   1     -38.313  13.771  16.007  0.00  0.00     0.058 A 
ATOM     16  C   UNL d   1     -38.297  13.255  16.654  0.00  0.00     0.012 A 
ATOM     17 CL   UNL d   1     -37.954  13.536  15.315  0.00  0.00    -0.082 Cl
ATOM     18  C   UNL d   1     -38.663  13.483  17.374  0.00  0.00     0.007 A 
ENDBRANCH  11  12
ENDBRANCH  10  11
ENDBRANCH   5  10
TORSDOF 3
ENDMDL
