MODEL 1
REMARK VINA RESULT:      30.6      0.000      0.000
REMARK  4 active torsions:
REMARK  status: ('A' for Active; 'I' for Inactive)
REMARK    1  A    between atoms: C_2  and  N_1 
REMARK    2  A    between atoms: C_12  and  C_5 
REMARK    3  A    between atoms: O_20  and  C_12 
REMARK    4  A    between atoms: C_22  and  O_20 
ROOT
ATOM      1  N   UNL d   1     -51.806  25.710  33.377  0.00  0.00    -0.237 N 
ATOM      2  C   UNL d   1     -50.989  25.861  33.343  0.00  0.00     0.263 A 
ATOM      3  C   UNL d   1     -52.206  26.431  33.392  0.00  0.00     0.263 A 
ATOM      4  C   UNL d   1     -51.641  27.040  33.367  0.00  0.00     0.039 A 
ATOM      5  C   UNL d   1     -50.887  26.681  33.336  0.00  0.00     0.039 A 
ATOM      6  C   UNL d   1     -51.709  27.867  33.367  0.00  0.00     0.049 A 
ATOM      7  C   UNL d   1     -50.202  27.152  33.306  0.00  0.00     0.049 A 
ATOM      8  C   UNL d   1     -51.024  28.338  33.337  0.00  0.00    -0.026 A 
ATOM      9  C   UNL d   1     -50.270  27.984  33.307  0.00  0.00    -0.026 A 
ATOM     10  C   UNL d   1     -51.230  27.246  33.349  0.00  0.00     0.018 A 
ATOM     11  O   UNL d   1     -52.992  26.528  33.425  0.00  0.00    -0.267 OA
ATOM     12  O   UNL d   1     -50.413  25.324  33.320  0.00  0.00    -0.267 OA
ENDROOT
BRANCH   1  13
ATOM     13  C   UNL d   1     -52.142  24.982  33.394  0.00  0.00     0.105 A 
ATOM     14  C   UNL d   1     -51.750  24.295  33.489  0.00  0.00     0.086 A 
ATOM     15  C   UNL d   1     -52.285  23.709  33.472  0.00  0.00     0.014 A 
ATOM     16  C   UNL d   1     -53.002  24.041  33.366  0.00  0.00     0.031 A 
ATOM     17  S   UNL d   1     -52.913  24.825  33.318  0.00  0.00    -0.069 SA
ATOM     18  C   UNL d   1     -53.651  23.581  33.327  0.00  0.00     0.007 C 
BRANCH  14  19
ATOM     19  C   UNL d   1     -50.970  24.212  33.584  0.00  0.00     0.302 C 
ATOM     20  O   UNL d   1     -50.551  24.774  33.954  0.00  0.00    -0.259 OA
BRANCH  19  21
ATOM     21  O   UNL d   1     -50.600  23.562  33.308  0.00  0.00    -0.271 OA
BRANCH  21  22
ATOM     22  C   UNL d   1     -49.898  23.426  33.658  0.00  0.00     0.126 C 
ATOM     23  C   UNL d   1     -49.309  23.949  33.576  0.00  0.00     0.029 C 
ENDBRANCH  21  22
ENDBRANCH  19  21
ENDBRANCH  14  19
ENDBRANCH   1  13
TORSDOF 4
ENDMDL
MODEL 2
REMARK VINA RESULT:      33.5      1.506      3.438
REMARK  4 active torsions:
REMARK  status: ('A' for Active; 'I' for Inactive)
REMARK    1  A    between atoms: C_2  and  N_1 
REMARK    2  A    between atoms: C_12  and  C_5 
REMARK    3  A    between atoms: O_20  and  C_12 
REMARK    4  A    between atoms: C_22  and  O_20 
ROOT
ATOM      1  N   UNL d   1     -51.481  25.523  33.717  0.00  0.00    -0.237 N 
ATOM      2  C   UNL d   1     -51.290  24.716  33.775  0.00  0.00     0.263 A 
ATOM      3  C   UNL d   1     -52.283  25.592  33.540  0.00  0.00     0.263 A 
ATOM      4  C   UNL d   1     -52.602  24.827  33.485  0.00  0.00     0.039 A 
ATOM      5  C   UNL d   1     -51.981  24.287  33.632  0.00  0.00     0.039 A 
ATOM      6  C   UNL d   1     -53.366  24.549  33.322  0.00  0.00     0.049 A 
ATOM      7  C   UNL d   1     -52.129  23.468  33.615  0.00  0.00     0.049 A 
ATOM      8  C   UNL d   1     -53.514  23.730  33.306  0.00  0.00    -0.026 A 
ATOM      9  C   UNL d   1     -52.898  23.188  33.452  0.00  0.00    -0.026 A 
ATOM     10  C   UNL d   1     -52.622  24.367  33.489  0.00  0.00     0.018 A 
ATOM     11  O   UNL d   1     -52.683  26.269  33.439  0.00  0.00    -0.267 OA
ATOM     12  O   UNL d   1     -50.582  24.411  33.937  0.00  0.00    -0.267 OA
ENDROOT
BRANCH   1  13
ATOM     13  C   UNL d   1     -50.965  26.129  33.819  0.00  0.00     0.105 A 
ATOM     14  C   UNL d   1     -50.931  26.604  34.458  0.00  0.00     0.086 A 
ATOM     15  C   UNL d   1     -50.348  27.128  34.338  0.00  0.00     0.014 A 
ATOM     16  C   UNL d   1     -50.028  26.971  33.624  0.00  0.00     0.031 A 
ATOM     17  S   UNL d   1     -50.408  26.357  33.306  0.00  0.00    -0.069 SA
ATOM     18  C   UNL d   1     -49.424  27.414  33.354  0.00  0.00     0.007 C 
BRANCH  14  19
ATOM     19  C   UNL d   1     -51.395  26.560  35.097  0.00  0.00     0.302 C 
ATOM     20  O   UNL d   1     -52.144  26.819  35.065  0.00  0.00    -0.259 OA
BRANCH  19  21
ATOM     21  O   UNL d   1     -51.112  26.256  35.777  0.00  0.00    -0.271 OA
BRANCH  21  22
ATOM     22  C   UNL d   1     -51.471  26.545  36.427  0.00  0.00     0.126 C 
ATOM     23  C   UNL d   1     -51.187  26.370  37.145  0.00  0.00     0.029 C 
ENDBRANCH  21  22
ENDBRANCH  19  21
ENDBRANCH  14  19
ENDBRANCH   1  13
TORSDOF 4
ENDMDL
