MODEL 1
REMARK VINA RESULT:      14.2      0.000      0.000
REMARK  2 active torsions:
REMARK  status: ('A' for Active; 'I' for Inactive)
REMARK    1  A    between atoms: C_2  and  C_1 
REMARK       I    between atoms: N_7  and  C_2 
REMARK    2  A    between atoms: C_9  and  N_7 
ROOT
ATOM      1  C   UNL d   1      24.373  14.172  -0.616  0.00  0.00     0.280 C 
ATOM      2  N   UNL d   1      24.724  14.281  -1.353  0.00  0.00    -0.208 NA
ATOM      3  O   UNL d   1      24.368  14.795  -0.073  0.00  0.00    -0.265 OA
ENDROOT
BRANCH   1   4
ATOM      4  C   UNL d   1      24.030  13.447  -0.424  0.00  0.00     0.065 A 
ATOM      5  C   UNL d   1      23.222  13.305  -0.332  0.00  0.00     0.011 A 
ATOM      6  C   UNL d   1      23.133  12.512  -0.142  0.00  0.00     0.030 A 
ATOM      7  C   UNL d   1      22.565  13.791  -0.396  0.00  0.00     0.001 A 
ATOM      8  C   UNL d   1      22.377  12.198  -0.015  0.00  0.00     0.006 A 
ATOM      9  S   UNL d   1      23.880  12.165  -0.117  0.00  0.00    -0.086 SA
ATOM     10  C   UNL d   1      21.730  12.674  -0.077  0.00  0.00     0.001 A 
ATOM     11  C   UNL d   1      21.813  13.476  -0.268  0.00  0.00     0.000 A 
ATOM     12  C   UNL d   1      24.433  12.754  -0.294  0.00  0.00     0.040 A 
ENDBRANCH   1   4
BRANCH   2  13
ATOM     13  C   UNL d   1      24.731  13.655  -1.904  0.00  0.00     0.085 A 
ATOM     14  C   UNL d   1      24.761  12.877  -1.640  0.00  0.00     0.019 A 
ATOM     15  C   UNL d   1      24.768  12.255  -2.189  0.00  0.00     0.002 A 
ATOM     16  C   UNL d   1      24.744  12.414  -2.997  0.00  0.00     0.000 A 
ATOM     17  C   UNL d   1      24.714  13.203  -3.256  0.00  0.00     0.002 A 
ATOM     18  C   UNL d   1      24.751  11.782  -3.536  0.00  0.00     0.000 C 
ATOM     19  C   UNL d   1      24.707  13.822  -2.710  0.00  0.00     0.019 A 
ENDBRANCH   2  13
TORSDOF 2
ENDMDL
