MODEL 1
REMARK VINA RESULT:      -5.0      0.000      0.000
REMARK  5 active torsions:
REMARK  status: ('A' for Active; 'I' for Inactive)
REMARK    1  A    between atoms: C_3  and  S_1 
REMARK    2  A    between atoms: N_2  and  C_4 
REMARK    3  A    between atoms: N_5  and  C_16 
REMARK    4  A    between atoms: C_11  and  N_5 
REMARK    5  A    between atoms: C_17  and  C_11 
ROOT
ATOM      1  N   UNL d   1      57.149  -0.495  31.467  0.00  0.00    -0.244 NA
ENDROOT
BRANCH   1   2
ATOM      2  C   UNL d   1      56.638  -0.293  32.089  0.00  0.00     0.082 A 
ATOM      3  C   UNL d   1      56.419   0.480  32.211  0.00  0.00     0.020 A 
ATOM      4  C   UNL d   1      55.911   0.682  32.830  0.00  0.00     0.015 A 
ATOM      5  C   UNL d   1      55.632   0.082  33.321  0.00  0.00     0.107 A 
ATOM      6  C   UNL d   1      55.852  -0.692  33.199  0.00  0.00     0.015 A 
ATOM      7  C   UNL d   1      56.359  -0.895  32.581  0.00  0.00     0.020 A 
BRANCH   5   8
ATOM      8  S   UNL d   1      55.119   0.281  33.948  0.00  0.00     0.302 S 
ATOM      9  O   UNL d   1      54.473   0.238  33.427  0.00  0.00    -0.197 OA
ATOM     10  O   UNL d   1      54.600   0.477  34.562  0.00  0.00    -0.197 OA
ATOM     11  N   UNL d   1      55.759   0.322  34.461  0.00  0.00    -0.043 N 
ENDBRANCH   5   8
ENDBRANCH   1   2
BRANCH   1  12
ATOM     12  C   UNL d   1      57.419   0.073  30.952  0.00  0.00     0.099 C 
BRANCH  12  13
ATOM     13  C   UNL d   1      58.038  -0.085  30.426  0.00  0.00     0.019 A 
ATOM     14  C   UNL d   1      58.631   0.497  30.328  0.00  0.00     0.003 A 
ATOM     15  C   UNL d   1      59.250   0.338  29.801  0.00  0.00     0.024 A 
ATOM     16  C   UNL d   1      59.283  -0.385  29.376  0.00  0.00     0.127 A 
ATOM     17  C   UNL d   1      58.697  -0.937  29.485  0.00  0.00     0.024 A 
ATOM     18  C   UNL d   1      58.071  -0.809  30.000  0.00  0.00     0.003 A 
BRANCH  16  19
ATOM     19  N   UNL d   1      59.893  -0.558  28.848  0.00  0.00    -0.114 N 
ATOM     20  O   UNL d   1      60.494   0.007  28.717  0.00  0.00    -0.532 OA
ATOM     21  O   UNL d   1      59.901  -1.289  28.455  0.00  0.00    -0.532 OA
ENDBRANCH  16  19
ENDBRANCH  12  13
ENDBRANCH   1  12
TORSDOF 5
ENDMDL
MODEL 2
REMARK VINA RESULT:      -4.5      0.771      1.222
REMARK  5 active torsions:
REMARK  status: ('A' for Active; 'I' for Inactive)
REMARK    1  A    between atoms: C_3  and  S_1 
REMARK    2  A    between atoms: N_2  and  C_4 
REMARK    3  A    between atoms: N_5  and  C_16 
REMARK    4  A    between atoms: C_11  and  N_5 
REMARK    5  A    between atoms: C_17  and  C_11 
ROOT
ATOM      1  N   UNL d   1      56.909  -0.344  31.892  0.00  0.00    -0.244 NA
ENDROOT
BRANCH   1   2
ATOM      2  C   UNL d   1      56.449  -0.141  32.553  0.00  0.00     0.082 A 
ATOM      3  C   UNL d   1      55.752  -0.530  32.708  0.00  0.00     0.020 A 
ATOM      4  C   UNL d   1      55.294  -0.330  33.364  0.00  0.00     0.015 A 
ATOM      5  C   UNL d   1      55.560   0.273  33.859  0.00  0.00     0.107 A 
ATOM      6  C   UNL d   1      56.256   0.662  33.704  0.00  0.00     0.015 A 
ATOM      7  C   UNL d   1      56.715   0.463  33.048  0.00  0.00     0.020 A 
BRANCH   5   8
ATOM      8  S   UNL d   1      55.100   0.480  34.524  0.00  0.00     0.302 S 
ATOM      9  O   UNL d   1      55.746   0.312  35.017  0.00  0.00    -0.197 OA
ATOM     10  O   UNL d   1      54.653   0.682  35.191  0.00  0.00    -0.197 OA
ATOM     11  N   UNL d   1      54.462   0.645  34.034  0.00  0.00    -0.043 N 
ENDBRANCH   5   8
ENDBRANCH   1   2
BRANCH   1  12
ATOM     12  C   UNL d   1      57.039   0.195  31.297  0.00  0.00     0.099 C 
BRANCH  12  13
ATOM     13  C   UNL d   1      57.593   0.048  30.700  0.00  0.00     0.019 A 
ATOM     14  C   UNL d   1      57.758  -0.749  30.503  0.00  0.00     0.003 A 
ATOM     15  C   UNL d   1      58.313  -0.896  29.906  0.00  0.00     0.024 A 
ATOM     16  C   UNL d   1      58.700  -0.266  29.509  0.00  0.00     0.127 A 
ATOM     17  C   UNL d   1      58.526   0.500  29.715  0.00  0.00     0.024 A 
ATOM     18  C   UNL d   1      57.981   0.678  30.303  0.00  0.00     0.003 A 
BRANCH  16  19
ATOM     19  N   UNL d   1      59.255  -0.396  28.913  0.00  0.00    -0.114 N 
ATOM     20  O   UNL d   1      59.272  -1.135  28.522  0.00  0.00    -0.532 OA
ATOM     21  O   UNL d   1      59.787   0.206  28.709  0.00  0.00    -0.532 OA
ENDBRANCH  16  19
ENDBRANCH  12  13
ENDBRANCH   1  12
TORSDOF 5
ENDMDL
MODEL 3
REMARK VINA RESULT:      -3.3      1.601      5.384
REMARK  5 active torsions:
REMARK  status: ('A' for Active; 'I' for Inactive)
REMARK    1  A    between atoms: C_3  and  S_1 
REMARK    2  A    between atoms: N_2  and  C_4 
REMARK    3  A    between atoms: N_5  and  C_16 
REMARK    4  A    between atoms: C_11  and  N_5 
REMARK    5  A    between atoms: C_17  and  C_11 
ROOT
ATOM      1  N   UNL d   1      57.582   0.112  31.540  0.00  0.00    -0.244 NA
ENDROOT
BRANCH   1   2
ATOM      2  C   UNL d   1      58.119  -0.045  30.927  0.00  0.00     0.082 A 
ATOM      3  C   UNL d   1      58.587  -0.709  30.946  0.00  0.00     0.020 A 
ATOM      4  C   UNL d   1      59.121  -0.867  30.337  0.00  0.00     0.015 A 
ATOM      5  C   UNL d   1      59.169  -0.335  29.709  0.00  0.00     0.107 A 
ATOM      6  C   UNL d   1      58.700   0.329  29.690  0.00  0.00     0.015 A 
ATOM      7  C   UNL d   1      58.166   0.488  30.298  0.00  0.00     0.020 A 
BRANCH   5   8
ATOM      8  S   UNL d   1      59.707  -0.490  29.090  0.00  0.00     0.302 S 
ATOM      9  O   UNL d   1      60.338  -0.324  29.603  0.00  0.00    -0.197 OA
ATOM     10  O   UNL d   1      60.250  -0.641  28.484  0.00  0.00    -0.197 OA
ATOM     11  N   UNL d   1      59.081  -0.655  28.584  0.00  0.00    -0.043 N 
ENDBRANCH   5   8
ENDBRANCH   1   2
BRANCH   1  12
ATOM     12  C   UNL d   1      56.907  -0.332  31.623  0.00  0.00     0.099 C 
BRANCH  12  13
ATOM     13  C   UNL d   1      56.380  -0.197  32.247  0.00  0.00     0.019 A 
ATOM     14  C   UNL d   1      56.003  -0.859  32.594  0.00  0.00     0.003 A 
ATOM     15  C   UNL d   1      55.475  -0.724  33.218  0.00  0.00     0.024 A 
ATOM     16  C   UNL d   1      55.321   0.054  33.496  0.00  0.00     0.127 A 
ATOM     17  C   UNL d   1      55.697   0.682  33.145  0.00  0.00     0.024 A 
ATOM     18  C   UNL d   1      56.225   0.580  32.524  0.00  0.00     0.003 A 
BRANCH  16  19
ATOM     19  N   UNL d   1      54.799   0.204  34.116  0.00  0.00    -0.114 N 
ATOM     20  O   UNL d   1      53.978   0.108  33.994  0.00  0.00    -0.532 OA
ATOM     21  O   UNL d   1      55.095   0.449  34.852  0.00  0.00    -0.532 OA
ENDBRANCH  16  19
ENDBRANCH  12  13
ENDBRANCH   1  12
TORSDOF 5
ENDMDL
