MODEL 1
REMARK VINA RESULT:      58.2      0.000      0.000
REMARK  3 active torsions:
REMARK  status: ('A' for Active; 'I' for Inactive)
REMARK    1  A    between atoms: C_9  and  N_1 
REMARK       I    between atoms: C_8  and  N_2 
REMARK    2  A    between atoms: C_3  and  C_9 
REMARK    3  A    between atoms: C_13  and  C_8 
ROOT
ATOM      1  N   UNL d   1      13.848  13.177  -2.399  0.00  0.00    -0.194 N 
ATOM      2  C   UNL d   1      14.132  13.213  -1.093  0.00  0.00     0.055 A 
ATOM      3  N   UNL d   1      13.787  12.398  -2.095  0.00  0.00    -0.163 NA
ATOM      4  C   UNL d   1      14.058  13.666  -1.778  0.00  0.00     0.089 A 
ATOM      5  C   UNL d   1      13.716  13.394  -3.181  0.00  0.00     0.286 C 
ATOM      6  C   UNL d   1      13.965  12.432  -1.287  0.00  0.00     0.104 A 
ATOM      7  O   UNL d   1      13.798  14.194  -3.396  0.00  0.00    -0.265 OA
ATOM      8  C   UNL d   1      14.177  14.483  -1.838  0.00  0.00     0.021 C 
ATOM      9  C   UNL d   1      13.971  11.785  -0.770  0.00  0.00     0.023 C 
ENDROOT
BRANCH   2  10
ATOM     10  C   UNL d   1      14.338  13.501  -0.339  0.00  0.00     0.089 C 
BRANCH  10  11
ATOM     11  N   UNL d   1      14.884  14.118  -0.265  0.00  0.00    -0.240 N 
ATOM     12  C   UNL d   1      15.696  14.036  -0.212  0.00  0.00     0.267 A 
ATOM     13  C   UNL d   1      16.017  14.796  -0.146  0.00  0.00     0.061 A 
ATOM     14  O   UNL d   1      16.116  13.324  -0.224  0.00  0.00    -0.267 OA
ATOM     15  C   UNL d   1      16.796  15.051  -0.076  0.00  0.00     0.005 A 
ATOM     16  C   UNL d   1      15.407  15.340  -0.157  0.00  0.00     0.061 A 
ATOM     17  C   UNL d   1      16.963  15.855  -0.017  0.00  0.00     0.000 A 
ATOM     18  C   UNL d   1      16.348  16.406  -0.028  0.00  0.00     0.000 A 
ATOM     19  C   UNL d   1      15.568  16.150  -0.098  0.00  0.00     0.005 A 
ATOM     20  C   UNL d   1      14.696  14.926  -0.231  0.00  0.00     0.267 A 
ATOM     21  O   UNL d   1      13.938  15.259  -0.265  0.00  0.00    -0.267 OA
ENDBRANCH  10  11
ENDBRANCH   2  10
BRANCH   5  22
ATOM     22  C   UNL d   1      13.506  12.824  -3.737  0.00  0.00     0.087 A 
ATOM     23  S   UNL d   1      13.960  12.594  -4.388  0.00  0.00    -0.082 SA
ATOM     24  C   UNL d   1      13.539  12.012  -4.793  0.00  0.00     0.036 A 
ATOM     25  C   UNL d   1      12.835  11.882  -4.402  0.00  0.00     0.008 A 
ATOM     26  C   UNL d   1      12.812  12.387  -3.743  0.00  0.00     0.012 A 
ENDBRANCH   5  22
TORSDOF 3
ENDMDL
