MODEL 1
REMARK VINA RESULT:      -9.8      0.000      0.000
REMARK  4 active torsions:
REMARK  status: ('A' for Active; 'I' for Inactive)
REMARK    1  A    between atoms: C_8  and  S_1 
REMARK    2  A    between atoms: C_2  and  C_10 
REMARK    3  A    between atoms: C_6  and  C_14 
REMARK       I    between atoms: N_9  and  C_6 
REMARK    4  A    between atoms: C_23  and  N_9 
ROOT
ATOM      1  C   UNL d   1      51.783  33.959  53.254  0.00  0.00     0.024 A 
ATOM      2  C   UNL d   1      51.740  34.368  52.550  0.00  0.00     0.004 A 
ATOM      3  C   UNL d   1      51.098  33.707  53.634  0.00  0.00     0.004 A 
ATOM      4  C   UNL d   1      50.312  34.281  52.591  0.00  0.00     0.085 A 
ATOM      5  C   UNL d   1      50.358  33.866  53.305  0.00  0.00     0.019 A 
ATOM      6  C   UNL d   1      51.004  34.532  52.214  0.00  0.00     0.019 A 
ENDROOT
BRANCH   4   7
ATOM      7  N   UNL d   1      49.573  34.445  52.254  0.00  0.00    -0.208 NA
ATOM      8  C   UNL d   1      49.127  35.075  52.540  0.00  0.00     0.279 C 
ATOM      9  O   UNL d   1      49.405  35.543  53.156  0.00  0.00    -0.265 OA
BRANCH   8  10
ATOM     10  C   UNL d   1      48.395  35.238  52.206  0.00  0.00     0.058 A 
ATOM     11  C   UNL d   1      48.240  35.024  51.423  0.00  0.00     0.005 A 
ATOM     12  C   UNL d   1      47.511  35.186  51.091  0.00  0.00     0.013 A 
ATOM     13  C   UNL d   1      46.918  35.569  51.542  0.00  0.00     0.107 A 
ATOM     14  C   UNL d   1      47.069  35.783  52.323  0.00  0.00     0.013 A 
ATOM     15  C   UNL d   1      47.808  35.619  52.661  0.00  0.00     0.005 A 
BRANCH  13  16
ATOM     16  S   UNL d   1      46.178  35.733  51.205  0.00  0.00     0.302 S 
ATOM     17  O   UNL d   1      46.177  36.469  51.566  0.00  0.00    -0.197 OA
ATOM     18  O   UNL d   1      46.190  34.990  50.846  0.00  0.00    -0.197 OA
ATOM     19  N   UNL d   1      45.446  35.888  50.867  0.00  0.00    -0.043 N 
ENDBRANCH  13  16
ENDBRANCH   8  10
ENDBRANCH   4   7
BRANCH   1  20
ATOM     20  C   UNL d   1      52.523  33.797  53.587  0.00  0.00     0.112 A 
ATOM     21  S   UNL d   1      52.861  34.197  54.239  0.00  0.00    -0.047 SA
ATOM     22  C   UNL d   1      53.606  33.858  54.387  0.00  0.00     0.130 A 
ATOM     23  N   UNL d   1      54.185  34.020  54.952  0.00  0.00    -0.236 NA
ATOM     24  C   UNL d   1      53.729  33.251  53.831  0.00  0.00     0.106 A 
ATOM     25  C   UNL d   1      54.886  33.581  54.966  0.00  0.00     0.100 A 
ATOM     26  C   UNL d   1      55.007  32.972  54.405  0.00  0.00     0.022 A 
ATOM     27  C   UNL d   1      54.427  32.813  53.843  0.00  0.00     0.023 A 
ATOM     28  N   UNL d   1      53.049  33.221  53.337  0.00  0.00    -0.237 NA
ENDBRANCH   1  20
TORSDOF 4
ENDMDL
MODEL 2
REMARK VINA RESULT:      -9.1      1.902      6.582
REMARK  4 active torsions:
REMARK  status: ('A' for Active; 'I' for Inactive)
REMARK    1  A    between atoms: C_8  and  S_1 
REMARK    2  A    between atoms: C_2  and  C_10 
REMARK    3  A    between atoms: C_6  and  C_14 
REMARK       I    between atoms: N_9  and  C_6 
REMARK    4  A    between atoms: C_23  and  N_9 
ROOT
ATOM      1  C   UNL d   1      48.508  35.157  52.128  0.00  0.00     0.024 A 
ATOM      2  C   UNL d   1      48.841  35.345  52.849  0.00  0.00     0.004 A 
ATOM      3  C   UNL d   1      48.930  34.721  51.573  0.00  0.00     0.004 A 
ATOM      4  C   UNL d   1      50.038  34.658  52.470  0.00  0.00     0.085 A 
ATOM      5  C   UNL d   1      49.698  34.469  51.740  0.00  0.00     0.019 A 
ATOM      6  C   UNL d   1      49.608  35.097  53.024  0.00  0.00     0.019 A 
ENDROOT
BRANCH   4   7
ATOM      7  N   UNL d   1      50.808  34.408  52.646  0.00  0.00    -0.208 NA
ATOM      8  C   UNL d   1      50.922  33.725  53.091  0.00  0.00     0.279 C 
ATOM      9  O   UNL d   1      50.281  33.287  53.362  0.00  0.00    -0.265 OA
BRANCH   8  10
ATOM     10  C   UNL d   1      51.685  33.477  53.265  0.00  0.00     0.058 A 
ATOM     11  C   UNL d   1      51.979  32.778  52.938  0.00  0.00     0.005 A 
ATOM     12  C   UNL d   1      52.738  32.532  53.112  0.00  0.00     0.013 A 
ATOM     13  C   UNL d   1      53.223  32.987  53.622  0.00  0.00     0.107 A 
ATOM     14  C   UNL d   1      52.933  33.685  53.949  0.00  0.00     0.013 A 
ATOM     15  C   UNL d   1      52.163  33.935  53.773  0.00  0.00     0.005 A 
BRANCH  13  16
ATOM     16  S   UNL d   1      53.994  32.737  53.798  0.00  0.00     0.302 S 
ATOM     17  O   UNL d   1      54.249  33.012  53.069  0.00  0.00    -0.197 OA
ATOM     18  O   UNL d   1      53.725  32.464  54.529  0.00  0.00    -0.197 OA
ATOM     19  N   UNL d   1      54.754  32.487  53.980  0.00  0.00    -0.043 N 
ENDBRANCH  13  16
ENDBRANCH   8  10
ENDBRANCH   4   7
BRANCH   1  20
ATOM     20  C   UNL d   1      47.738  35.409  51.956  0.00  0.00     0.112 A 
ATOM     21  S   UNL d   1      47.327  36.019  52.354  0.00  0.00    -0.047 SA
ATOM     22  C   UNL d   1      46.575  36.087  52.004  0.00  0.00     0.130 A 
ATOM     23  N   UNL d   1      45.936  36.585  52.159  0.00  0.00    -0.236 NA
ATOM     24  C   UNL d   1      46.520  35.523  51.394  0.00  0.00     0.106 A 
ATOM     25  C   UNL d   1      45.243  36.525  51.711  0.00  0.00     0.100 A 
ATOM     26  C   UNL d   1      45.193  35.957  51.098  0.00  0.00     0.022 A 
ATOM     27  C   UNL d   1      45.832  35.461  50.946  0.00  0.00     0.023 A 
ATOM     28  N   UNL d   1      47.251  35.105  51.373  0.00  0.00    -0.237 NA
ENDBRANCH   1  20
TORSDOF 4
ENDMDL
