MODEL 1
REMARK VINA RESULT:      11.5      0.000      0.000
REMARK  5 active torsions:
REMARK  status: ('A' for Active; 'I' for Inactive)
REMARK    1  A    between atoms: C_6  and  C_1 
REMARK    2  A    between atoms: C_8  and  N_3 
REMARK    3  A    between atoms: O_7  and  C_6 
REMARK    4  A    between atoms: C_9  and  O_7 
REMARK    5  A    between atoms: O_16  and  C_10 
ROOT
ATOM      1  C   UNL d   1      46.055 -17.671  44.454  0.00  0.00     0.173 A 
ATOM      2  N   UNL d   1      46.159 -18.287  44.955  0.00  0.00    -0.225 NA
ATOM      3  N   UNL d   1      46.143 -17.889  43.683  0.00  0.00    -0.287 N 
ATOM      4  C   UNL d   1      46.324 -18.739  43.679  0.00  0.00     0.083 A 
ATOM      5  C   UNL d   1      46.334 -18.979  44.446  0.00  0.00     0.099 A 
ATOM      6  C   UNL d   1      46.475 -19.299  43.094  0.00  0.00     0.019 A 
ATOM      7  C   UNL d   1      46.496 -19.795  44.683  0.00  0.00     0.021 A 
ATOM      8  C   UNL d   1      46.636 -20.090  43.253  0.00  0.00     0.002 A 
ATOM      9  C   UNL d   1      46.646 -20.330  44.020  0.00  0.00     0.002 A 
ENDROOT
BRANCH   1  10
ATOM     10  C   UNL d   1      45.900 -16.899  44.259  0.00  0.00     0.160 C 
BRANCH  10  11
ATOM     11  O   UNL d   1      45.642 -16.373  44.857  0.00  0.00    -0.302 OA
BRANCH  11  12
ATOM     12  C   UNL d   1      45.588 -15.553  44.699  0.00  0.00     0.100 A 
ATOM     13  C   UNL d   1      46.201 -15.164  44.284  0.00  0.00     0.027 A 
ATOM     14  C   UNL d   1      46.147 -14.344  44.127  0.00  0.00     0.026 A 
ATOM     15  C   UNL d   1      45.501 -13.927  44.376  0.00  0.00     0.094 A 
ATOM     16  C   UNL d   1      44.887 -14.316  44.791  0.00  0.00     0.026 A 
ATOM     17  C   UNL d   1      44.942 -15.136  44.948  0.00  0.00     0.027 A 
BRANCH  15  18
ATOM     18  O   UNL d   1      45.635 -13.135  44.124  0.00  0.00    -0.328 OA
ATOM     19  C   UNL d   1      45.136 -12.774  43.549  0.00  0.00     0.181 C 
ENDBRANCH  15  18
ENDBRANCH  11  12
ENDBRANCH  10  11
ENDBRANCH   1  10
BRANCH   3  20
ATOM     20  C   UNL d   1      46.050 -17.314  43.132  0.00  0.00     0.082 C 
ATOM     21  C   UNL d   1      45.999 -17.484  42.326  0.00  0.00     0.021 C 
ENDBRANCH   3  20
TORSDOF 5
ENDMDL
