MODEL 1
REMARK VINA RESULT:       0.6      0.000      0.000
REMARK  1 active torsions:
REMARK  status: ('A' for Active; 'I' for Inactive)
REMARK    1  A    between atoms: C_4  and  C_1 
ROOT
ATOM      1  C   UNL d   1      46.441 -19.209  43.641  0.00  0.00     0.164 A 
ATOM      2  O   UNL d   1      46.511 -19.937  43.261  0.00  0.00    -0.301 OA
ATOM      3  C   UNL d   1      46.437 -18.619  43.068  0.00  0.00     0.033 A 
ATOM      4  C   UNL d   1      46.550 -19.796  42.448  0.00  0.00     0.100 A 
ATOM      5  C   UNL d   1      46.504 -18.977  42.329  0.00  0.00     0.025 A 
ATOM      6  C   UNL d   1      46.621 -20.300  41.802  0.00  0.00     0.025 A 
ATOM      7  C   UNL d   1      46.529 -18.667  41.564  0.00  0.00     0.002 A 
ATOM      8  C   UNL d   1      46.601 -19.179  40.909  0.00  0.00     0.000 A 
ATOM      9  C   UNL d   1      46.647 -19.994  41.028  0.00  0.00     0.002 A 
ENDROOT
BRANCH   1  10
ATOM     10  C   UNL d   1      46.387 -19.102  44.453  0.00  0.00     0.235 C 
ATOM     11  O   UNL d   1      46.449 -19.764  44.955  0.00  0.00    -0.642 OA
ATOM     12  O   UNL d   1      46.271 -18.350  44.773  0.00  0.00    -0.642 OA
ENDBRANCH   1  10
TORSDOF 1
ENDMDL
MODEL 2
REMARK VINA RESULT:       0.7      7.238      7.749
REMARK  1 active torsions:
REMARK  status: ('A' for Active; 'I' for Inactive)
REMARK    1  A    between atoms: C_4  and  C_1 
ROOT
ATOM      1  C   UNL d   1      45.506 -15.066  36.901  0.00  0.00     0.164 A 
ATOM      2  O   UNL d   1      44.803 -14.660  37.048  0.00  0.00    -0.301 OA
ATOM      3  C   UNL d   1      45.317 -15.812  36.610  0.00  0.00     0.033 A 
ATOM      4  C   UNL d   1      44.177 -15.158  36.846  0.00  0.00     0.100 A 
ATOM      5  C   UNL d   1      44.496 -15.873  36.574  0.00  0.00     0.025 A 
ATOM      6  C   UNL d   1      43.360 -15.058  36.873  0.00  0.00     0.025 A 
ATOM      7  C   UNL d   1      43.996 -16.484  36.330  0.00  0.00     0.002 A 
ATOM      8  C   UNL d   1      43.169 -16.382  36.358  0.00  0.00     0.000 A 
ATOM      9  C   UNL d   1      42.852 -15.671  36.629  0.00  0.00     0.002 A 
ENDROOT
BRANCH   1  10
ATOM     10  C   UNL d   1      46.261 -14.767  37.028  0.00  0.00     0.235 C 
ATOM     11  O   UNL d   1      46.635 -14.338  36.420  0.00  0.00    -0.642 OA
ATOM     12  O   UNL d   1      46.647 -14.889  37.747  0.00  0.00    -0.642 OA
ENDBRANCH   1  10
TORSDOF 1
ENDMDL
MODEL 3
REMARK VINA RESULT:       0.9      7.548      7.805
REMARK  1 active torsions:
REMARK  status: ('A' for Active; 'I' for Inactive)
REMARK    1  A    between atoms: C_4  and  C_1 
ROOT
ATOM      1  C   UNL d   1      43.993 -15.563  36.714  0.00  0.00     0.164 A 
ATOM      2  O   UNL d   1      44.217 -14.935  37.199  0.00  0.00    -0.301 OA
ATOM      3  C   UNL d   1      44.666 -15.849  36.336  0.00  0.00     0.033 A 
ATOM      4  C   UNL d   1      45.032 -14.832  37.121  0.00  0.00     0.100 A 
ATOM      5  C   UNL d   1      45.311 -15.400  36.585  0.00  0.00     0.025 A 
ATOM      6  C   UNL d   1      45.558 -14.300  37.463  0.00  0.00     0.025 A 
ATOM      7  C   UNL d   1      46.114 -15.433  36.395  0.00  0.00     0.002 A 
ATOM      8  C   UNL d   1      46.646 -14.894  36.743  0.00  0.00     0.000 A 
ATOM      9  C   UNL d   1      46.369 -14.328  37.276  0.00  0.00     0.002 A 
ENDROOT
BRANCH   1  10
ATOM     10  C   UNL d   1      43.227 -15.847  36.629  0.00  0.00     0.235 C 
ATOM     11  O   UNL d   1      43.109 -16.615  36.330  0.00  0.00    -0.642 OA
ATOM     12  O   UNL d   1      42.579 -15.379  36.837  0.00  0.00    -0.642 OA
ENDBRANCH   1  10
TORSDOF 1
ENDMDL
MODEL 4
REMARK VINA RESULT:       2.0      1.369      2.880
REMARK  1 active torsions:
REMARK  status: ('A' for Active; 'I' for Inactive)
REMARK    1  A    between atoms: C_4  and  C_1 
ROOT
ATOM      1  C   UNL d   1      46.160 -18.937  42.082  0.00  0.00     0.164 A 
ATOM      2  O   UNL d   1      46.168 -18.416  42.721  0.00  0.00    -0.301 OA
ATOM      3  C   UNL d   1      46.304 -19.696  42.367  0.00  0.00     0.033 A 
ATOM      4  C   UNL d   1      46.317 -18.855  43.404  0.00  0.00     0.100 A 
ATOM      5  C   UNL d   1      46.401 -19.650  43.184  0.00  0.00     0.025 A 
ATOM      6  C   UNL d   1      46.388 -18.639  44.195  0.00  0.00     0.025 A 
ATOM      7  C   UNL d   1      46.556 -20.224  43.757  0.00  0.00     0.002 A 
ATOM      8  C   UNL d   1      46.627 -20.006  44.558  0.00  0.00     0.000 A 
ATOM      9  C   UNL d   1      46.543 -19.215  44.777  0.00  0.00     0.002 A 
ENDROOT
BRANCH   1  10
ATOM     10  C   UNL d   1      46.030 -18.725  41.300  0.00  0.00     0.235 C 
ATOM     11  O   UNL d   1      45.288 -18.418  41.080  0.00  0.00    -0.642 OA
ATOM     12  O   UNL d   1      46.625 -18.814  40.734  0.00  0.00    -0.642 OA
ENDBRANCH   1  10
TORSDOF 1
ENDMDL
