MODEL 1
REMARK VINA RESULT:      50.3      0.000      0.000
REMARK  6 active torsions:
REMARK  status: ('A' for Active; 'I' for Inactive)
REMARK    1  A    between atoms: S_10  and  C_5 
REMARK    2  A    between atoms: C_11  and  N_8 
REMARK    3  A    between atoms: C_15  and  S_10 
REMARK    4  A    between atoms: C_16  and  C_11 
REMARK    5  A    between atoms: C_17  and  C_15 
REMARK    6  A    between atoms: C_23  and  C_16 
ROOT
ATOM      1  C   UNL d   1      13.649  13.585  -3.733  0.00  0.00     0.174 A 
ATOM      2  C   UNL d   1      13.546  13.056  -3.103  0.00  0.00     0.159 A 
ATOM      3  N   UNL d   1      14.010  14.258  -3.438  0.00  0.00    -0.203 NA
ATOM      4  N   UNL d   1      13.393  13.368  -4.486  0.00  0.00    -0.239 N 
ATOM      5  C   UNL d   1      14.127  14.136  -2.629  0.00  0.00     0.181 A 
ATOM      6  C   UNL d   1      13.031  12.626  -4.639  0.00  0.00     0.358 A 
ATOM      7  N   UNL d   1      12.929  12.097  -4.010  0.00  0.00    -0.152 NA
ATOM      8  N   UNL d   1      13.861  13.401  -2.338  0.00  0.00    -0.279 N 
ATOM      9  C   UNL d   1      13.189  12.309  -3.227  0.00  0.00     0.302 A 
ATOM     10  O   UNL d   1      12.770  12.401  -5.401  0.00  0.00    -0.244 OA
ATOM     11  O   UNL d   1      13.086  11.779  -2.597  0.00  0.00    -0.263 OA
ATOM     12  C   UNL d   1      13.495  13.898  -5.116  0.00  0.00     0.105 C 
ENDROOT
BRANCH   5  13
ATOM     13  S   UNL d   1      14.490  14.795  -2.296  0.00  0.00    -0.049 SA
BRANCH  13  14
ATOM     14  C   UNL d   1      14.612  15.580  -2.533  0.00  0.00     0.038 C 
BRANCH  14  15
ATOM     15  C   UNL d   1      14.922  16.129  -2.000  0.00  0.00     0.007 A 
ATOM     16  C   UNL d   1      15.073  15.901  -1.224  0.00  0.00     0.001 A 
ATOM     17  C   UNL d   1      15.383  16.449  -0.692  0.00  0.00     0.000 A 
ATOM     18  C   UNL d   1      15.542  17.223  -0.939  0.00  0.00     0.000 A 
ATOM     19  C   UNL d   1      15.388  17.446  -1.722  0.00  0.00     0.000 A 
ATOM     20  C   UNL d   1      15.854  17.774  -0.404  0.00  0.00     0.000 C 
ATOM     21  C   UNL d   1      15.078  16.893  -2.250  0.00  0.00     0.001 A 
ENDBRANCH  14  15
ENDBRANCH  13  14
ENDBRANCH   5  13
BRANCH   8  22
ATOM     22  C   UNL d   1      13.945  13.210  -1.540  0.00  0.00     0.082 C 
BRANCH  22  23
ATOM     23  C   UNL d   1      14.584  12.754  -1.286  0.00  0.00     0.019 C 
BRANCH  23  24
ATOM     24  C   UNL d   1      14.622  12.487  -0.507  0.00  0.00     0.002 C 
ATOM     25  C   UNL d   1      15.351  12.383  -0.135  0.00  0.00     0.000 C 
ATOM     26  C   UNL d   1      13.928  12.319  -0.090  0.00  0.00     0.000 C 
ENDBRANCH  23  24
ENDBRANCH  22  23
ENDBRANCH   8  22
TORSDOF 6
ENDMDL
MODEL 2
REMARK VINA RESULT:      50.3      1.458      3.239
REMARK  6 active torsions:
REMARK  status: ('A' for Active; 'I' for Inactive)
REMARK    1  A    between atoms: S_10  and  C_5 
REMARK    2  A    between atoms: C_11  and  N_8 
REMARK    3  A    between atoms: C_15  and  S_10 
REMARK    4  A    between atoms: C_16  and  C_11 
REMARK    5  A    between atoms: C_17  and  C_15 
REMARK    6  A    between atoms: C_23  and  C_16 
ROOT
ATOM      1  C   UNL d   1      14.615  13.485  -1.674  0.00  0.00     0.174 A 
ATOM      2  C   UNL d   1      14.099  13.022  -2.128  0.00  0.00     0.159 A 
ATOM      3  N   UNL d   1      14.698  14.208  -2.049  0.00  0.00    -0.203 NA
ATOM      4  N   UNL d   1      14.933  13.172  -0.981  0.00  0.00    -0.239 N 
ATOM      5  C   UNL d   1      14.231  14.183  -2.731  0.00  0.00     0.181 A 
ATOM      6  C   UNL d   1      14.752  12.396  -0.717  0.00  0.00     0.358 A 
ATOM      7  N   UNL d   1      14.236  11.932  -1.170  0.00  0.00    -0.152 NA
ATOM      8  N   UNL d   1      13.820  13.468  -2.854  0.00  0.00    -0.279 N 
ATOM      9  C   UNL d   1      13.901  12.244  -1.889  0.00  0.00     0.302 A 
ATOM     10  O   UNL d   1      15.071  12.073  -0.015  0.00  0.00    -0.244 OA
ATOM     11  O   UNL d   1      13.385  11.781  -2.342  0.00  0.00    -0.263 OA
ATOM     12  C   UNL d   1      15.449  13.636  -0.527  0.00  0.00     0.105 C 
ENDROOT
BRANCH   5  13
ATOM     13  S   UNL d   1      14.289  14.896  -3.137  0.00  0.00    -0.049 SA
BRANCH  13  14
ATOM     14  C   UNL d   1      14.381  15.690  -2.917  0.00  0.00     0.038 C 
BRANCH  14  15
ATOM     15  C   UNL d   1      14.677  16.237  -3.459  0.00  0.00     0.007 A 
ATOM     16  C   UNL d   1      14.562  16.114  -4.265  0.00  0.00     0.001 A 
ATOM     17  C   UNL d   1      14.858  16.661  -4.807  0.00  0.00     0.000 A 
ATOM     18  C   UNL d   1      15.269  17.328  -4.540  0.00  0.00     0.000 A 
ATOM     19  C   UNL d   1      15.381  17.446  -3.728  0.00  0.00     0.000 A 
ATOM     20  C   UNL d   1      15.566  17.878  -5.085  0.00  0.00     0.000 C 
ATOM     21  C   UNL d   1      15.083  16.896  -3.190  0.00  0.00     0.001 A 
ENDBRANCH  14  15
ENDBRANCH  13  14
ENDBRANCH   5  13
BRANCH   8  22
ATOM     22  C   UNL d   1      13.335  13.370  -3.514  0.00  0.00     0.082 C 
BRANCH  22  23
ATOM     23  C   UNL d   1      13.216  12.620  -3.837  0.00  0.00     0.019 C 
BRANCH  23  24
ATOM     24  C   UNL d   1      12.997  12.536  -4.626  0.00  0.00     0.002 C 
ATOM     25  C   UNL d   1      12.770  13.192  -5.070  0.00  0.00     0.000 C 
ATOM     26  C   UNL d   1      13.002  11.789  -4.983  0.00  0.00     0.000 C 
ENDBRANCH  23  24
ENDBRANCH  22  23
ENDBRANCH   8  22
TORSDOF 6
ENDMDL
