MODEL 1
REMARK VINA RESULT:      -5.7      0.000      0.000
REMARK  6 active torsions:
REMARK  status: ('A' for Active; 'I' for Inactive)
REMARK    1  A    between atoms: C_12  and  N_1 
REMARK    2  A    between atoms: C_9  and  C_23 
REMARK       I    between atoms: N_10  and  C_9 
REMARK    3  A    between atoms: C_13  and  N_10 
REMARK    4  A    between atoms: C_22  and  C_12 
REMARK    5  A    between atoms: O_21  and  C_15 
REMARK    6  A    between atoms: C_23  and  C_22 
ROOT
ATOM      1  C   UNL d   1     -47.974  12.830  23.335  0.00  0.00     0.085 C 
ENDROOT
BRANCH   1   2
ATOM      2  N   UNL d   1     -48.677  13.042  22.948  0.00  0.00    -0.249 N 
ATOM      3  C   UNL d   1     -49.100  12.457  22.548  0.00  0.00     0.208 A 
ATOM      4  N   UNL d   1     -49.806  12.657  22.157  0.00  0.00    -0.218 NA
ATOM      5  S   UNL d   1     -48.808  11.678  22.546  0.00  0.00    -0.038 SA
ATOM      6  C   UNL d   1     -50.087  13.427  22.164  0.00  0.00     0.088 A 
ATOM      7  C   UNL d   1     -49.662  14.015  22.567  0.00  0.00     0.074 A 
ATOM      8  C   UNL d   1     -50.784  13.624  21.778  0.00  0.00     0.019 A 
ATOM      9  C   UNL d   1     -48.962  13.823  22.955  0.00  0.00     0.268 A 
ATOM     10  C   UNL d   1     -49.940  14.790  22.576  0.00  0.00     0.006 A 
ATOM     11  O   UNL d   1     -48.539  14.408  23.356  0.00  0.00    -0.267 OA
ATOM     12  C   UNL d   1     -50.641  14.984  22.187  0.00  0.00     0.000 A 
ATOM     13  C   UNL d   1     -51.064  14.399  21.787  0.00  0.00     0.002 A 
ENDBRANCH   1   2
BRANCH   1  14
ATOM     14  C   UNL d   1     -47.244  12.997  22.976  0.00  0.00     0.024 C 
BRANCH  14  15
ATOM     15  C   UNL d   1     -46.543  12.697  23.308  0.00  0.00     0.064 C 
BRANCH  15  16
ATOM     16  C   UNL d   1     -45.812  12.841  22.933  0.00  0.00     0.279 C 
ATOM     17  N   UNL d   1     -45.376  12.221  22.630  0.00  0.00    -0.208 NA
ATOM     18  O   UNL d   1     -45.526  13.626  22.867  0.00  0.00    -0.265 OA
BRANCH  17  19
ATOM     19  C   UNL d   1     -44.641  12.365  22.253  0.00  0.00     0.085 A 
ATOM     20  C   UNL d   1     -44.581  12.905  21.629  0.00  0.00     0.021 A 
ATOM     21  C   UNL d   1     -43.853  13.039  21.266  0.00  0.00     0.026 A 
ATOM     22  C   UNL d   1     -43.180  12.631  21.528  0.00  0.00     0.094 A 
ATOM     23  C   UNL d   1     -43.238  12.092  22.150  0.00  0.00     0.026 A 
ATOM     24  C   UNL d   1     -43.979  11.961  22.514  0.00  0.00     0.021 A 
BRANCH  22  25
ATOM     25  O   UNL d   1     -42.448  12.759  21.170  0.00  0.00    -0.328 OA
ATOM     26  C   UNL d   1     -42.098  13.502  21.218  0.00  0.00     0.181 C 
ENDBRANCH  22  25
ENDBRANCH  17  19
ENDBRANCH  15  16
ENDBRANCH  14  15
ENDBRANCH   1  14
TORSDOF 6
ENDMDL
MODEL 2
REMARK VINA RESULT:      -4.6      8.036      9.472
REMARK  6 active torsions:
REMARK  status: ('A' for Active; 'I' for Inactive)
REMARK    1  A    between atoms: C_12  and  N_1 
REMARK    2  A    between atoms: C_9  and  C_23 
REMARK       I    between atoms: N_10  and  C_9 
REMARK    3  A    between atoms: C_13  and  N_10 
REMARK    4  A    between atoms: C_22  and  C_12 
REMARK    5  A    between atoms: O_21  and  C_15 
REMARK    6  A    between atoms: C_23  and  C_22 
ROOT
ATOM      1  C   UNL d   1     -40.030  14.447  20.526  0.00  0.00     0.085 C 
ENDROOT
BRANCH   1   2
ATOM      2  N   UNL d   1     -39.634  14.401  21.254  0.00  0.00    -0.249 N 
ATOM      3  C   UNL d   1     -39.704  15.029  21.783  0.00  0.00     0.208 A 
ATOM      4  N   UNL d   1     -39.311  14.995  22.515  0.00  0.00    -0.218 NA
ATOM      5  S   UNL d   1     -40.169  15.686  21.570  0.00  0.00    -0.038 SA
ATOM      6  C   UNL d   1     -38.855  14.344  22.717  0.00  0.00     0.088 A 
ATOM      7  C   UNL d   1     -38.785  13.712  22.184  0.00  0.00     0.074 A 
ATOM      8  C   UNL d   1     -38.468  14.310  23.440  0.00  0.00     0.019 A 
ATOM      9  C   UNL d   1     -39.171  13.741  21.458  0.00  0.00     0.268 A 
ATOM     10  C   UNL d   1     -38.327  13.056  22.383  0.00  0.00     0.006 A 
ATOM     11  O   UNL d   1     -39.101  13.112  20.929  0.00  0.00    -0.267 OA
ATOM     12  C   UNL d   1     -37.940  13.026  23.110  0.00  0.00     0.000 A 
ATOM     13  C   UNL d   1     -38.010  13.654  23.640  0.00  0.00     0.002 A 
ENDBRANCH   1   2
BRANCH   1  14
ATOM     14  C   UNL d   1     -39.657  14.808  19.879  0.00  0.00     0.024 C 
BRANCH  14  15
ATOM     15  C   UNL d   1     -40.038  14.827  19.141  0.00  0.00     0.064 C 
BRANCH  15  16
ATOM     16  C   UNL d   1     -39.585  14.820  18.440  0.00  0.00     0.279 C 
ATOM     17  N   UNL d   1     -39.822  14.368  17.802  0.00  0.00    -0.208 NA
ATOM     18  O   UNL d   1     -38.886  15.280  18.392  0.00  0.00    -0.265 OA
BRANCH  17  19
ATOM     19  C   UNL d   1     -39.366  14.361  17.098  0.00  0.00     0.085 A 
ATOM     20  C   UNL d   1     -39.178  15.064  16.705  0.00  0.00     0.021 A 
ATOM     21  C   UNL d   1     -38.729  15.045  16.013  0.00  0.00     0.026 A 
ATOM     22  C   UNL d   1     -38.468  14.318  15.712  0.00  0.00     0.094 A 
ATOM     23  C   UNL d   1     -38.655  13.615  16.102  0.00  0.00     0.026 A 
ATOM     24  C   UNL d   1     -39.110  13.642  16.803  0.00  0.00     0.021 A 
BRANCH  22  25
ATOM     25  O   UNL d   1     -38.019  14.290  15.020  0.00  0.00    -0.328 OA
ATOM     26  C   UNL d   1     -38.009  13.601  14.572  0.00  0.00     0.181 C 
ENDBRANCH  22  25
ENDBRANCH  17  19
ENDBRANCH  15  16
ENDBRANCH  14  15
ENDBRANCH   1  14
TORSDOF 6
ENDMDL
MODEL 3
REMARK VINA RESULT:      -4.4      3.360      7.394
REMARK  6 active torsions:
REMARK  status: ('A' for Active; 'I' for Inactive)
REMARK    1  A    between atoms: C_12  and  N_1 
REMARK    2  A    between atoms: C_9  and  C_23 
REMARK       I    between atoms: N_10  and  C_9 
REMARK    3  A    between atoms: C_13  and  N_10 
REMARK    4  A    between atoms: C_22  and  C_12 
REMARK    5  A    between atoms: O_21  and  C_15 
REMARK    6  A    between atoms: C_23  and  C_22 
ROOT
ATOM      1  C   UNL d   1     -41.216  13.918  20.676  0.00  0.00     0.085 C 
ENDROOT
BRANCH   1   2
ATOM      2  N   UNL d   1     -40.878  14.412  20.101  0.00  0.00    -0.249 N 
ATOM      3  C   UNL d   1     -40.495  15.100  20.347  0.00  0.00     0.208 A 
ATOM      4  N   UNL d   1     -40.153  15.603  19.781  0.00  0.00    -0.218 NA
ATOM      5  S   UNL d   1     -40.461  15.274  21.160  0.00  0.00    -0.038 SA
ATOM      6  C   UNL d   1     -40.191  15.425  18.982  0.00  0.00     0.088 A 
ATOM      7  C   UNL d   1     -40.576  14.732  18.734  0.00  0.00     0.074 A 
ATOM      8  C   UNL d   1     -39.852  15.922  18.423  0.00  0.00     0.019 A 
ATOM      9  C   UNL d   1     -40.917  14.230  19.291  0.00  0.00     0.268 A 
ATOM     10  C   UNL d   1     -40.616  14.549  17.932  0.00  0.00     0.006 A 
ATOM     11  O   UNL d   1     -41.299  13.542  19.045  0.00  0.00    -0.267 OA
ATOM     12  C   UNL d   1     -40.275  15.051  17.374  0.00  0.00     0.000 A 
ATOM     13  C   UNL d   1     -39.892  15.739  17.620  0.00  0.00     0.002 A 
ENDBRANCH   1   2
BRANCH   1  14
ATOM     14  C   UNL d   1     -42.042  13.855  20.727  0.00  0.00     0.024 C 
BRANCH  14  15
ATOM     15  C   UNL d   1     -42.385  13.180  21.069  0.00  0.00     0.064 C 
BRANCH  15  16
ATOM     16  C   UNL d   1     -43.134  13.233  21.432  0.00  0.00     0.279 C 
ATOM     17  N   UNL d   1     -43.586  12.562  21.541  0.00  0.00    -0.208 NA
ATOM     18  O   UNL d   1     -43.422  13.978  21.683  0.00  0.00    -0.265 OA
BRANCH  17  19
ATOM     19  C   UNL d   1     -44.340  12.615  21.906  0.00  0.00     0.085 A 
ATOM     20  C   UNL d   1     -44.905  13.156  21.639  0.00  0.00     0.021 A 
ATOM     21  C   UNL d   1     -45.643  13.199  22.006  0.00  0.00     0.026 A 
ATOM     22  C   UNL d   1     -45.816  12.699  22.643  0.00  0.00     0.094 A 
ATOM     23  C   UNL d   1     -45.253  12.159  22.912  0.00  0.00     0.026 A 
ATOM     24  C   UNL d   1     -44.507  12.120  22.536  0.00  0.00     0.021 A 
BRANCH  22  25
ATOM     25  O   UNL d   1     -46.551  12.736  23.016  0.00  0.00    -0.328 OA
ATOM     26  C   UNL d   1     -46.815  13.453  23.321  0.00  0.00     0.181 C 
ENDBRANCH  22  25
ENDBRANCH  17  19
ENDBRANCH  15  16
ENDBRANCH  14  15
ENDBRANCH   1  14
TORSDOF 6
ENDMDL
MODEL 4
REMARK VINA RESULT:      -4.3      1.661      2.189
REMARK  6 active torsions:
REMARK  status: ('A' for Active; 'I' for Inactive)
REMARK    1  A    between atoms: C_12  and  N_1 
REMARK    2  A    between atoms: C_9  and  C_23 
REMARK       I    between atoms: N_10  and  C_9 
REMARK    3  A    between atoms: C_13  and  N_10 
REMARK    4  A    between atoms: C_22  and  C_12 
REMARK    5  A    between atoms: O_21  and  C_15 
REMARK    6  A    between atoms: C_23  and  C_22 
ROOT
ATOM      1  C   UNL d   1     -47.581  13.968  22.317  0.00  0.00     0.085 C 
ENDROOT
BRANCH   1   2
ATOM      2  N   UNL d   1     -48.360  13.929  22.601  0.00  0.00    -0.249 N 
ATOM      3  C   UNL d   1     -48.761  14.633  22.756  0.00  0.00     0.208 A 
ATOM      4  N   UNL d   1     -49.541  14.607  23.040  0.00  0.00    -0.218 NA
ATOM      5  S   UNL d   1     -48.371  15.356  22.622  0.00  0.00    -0.038 SA
ATOM      6  C   UNL d   1     -49.918  13.890  23.169  0.00  0.00     0.088 A 
ATOM      7  C   UNL d   1     -49.515  13.182  23.013  0.00  0.00     0.074 A 
ATOM      8  C   UNL d   1     -50.688  13.865  23.451  0.00  0.00     0.019 A 
ATOM      9  C   UNL d   1     -48.742  13.202  22.731  0.00  0.00     0.268 A 
ATOM     10  C   UNL d   1     -49.890  12.459  23.141  0.00  0.00     0.006 A 
ATOM     11  O   UNL d   1     -48.342  12.497  22.576  0.00  0.00    -0.267 OA
ATOM     12  C   UNL d   1     -50.664  12.438  23.424  0.00  0.00     0.000 A 
ATOM     13  C   UNL d   1     -51.064  13.143  23.579  0.00  0.00     0.002 A 
ENDBRANCH   1   2
BRANCH   1  14
ATOM     14  C   UNL d   1     -46.950  13.793  22.827  0.00  0.00     0.024 C 
BRANCH  14  15
ATOM     15  C   UNL d   1     -46.206  13.601  22.513  0.00  0.00     0.064 C 
BRANCH  15  16
ATOM     16  C   UNL d   1     -45.760  12.982  22.850  0.00  0.00     0.279 C 
ATOM     17  N   UNL d   1     -45.280  12.518  22.379  0.00  0.00    -0.208 NA
ATOM     18  O   UNL d   1     -45.808  12.836  23.673  0.00  0.00    -0.265 OA
BRANCH  17  19
ATOM     19  C   UNL d   1     -44.832  11.895  22.718  0.00  0.00     0.085 A 
ATOM     20  C   UNL d   1     -45.194  11.311  23.178  0.00  0.00     0.021 A 
ATOM     21  C   UNL d   1     -44.743  10.703  23.506  0.00  0.00     0.026 A 
ATOM     22  C   UNL d   1     -43.925  10.679  23.374  0.00  0.00     0.094 A 
ATOM     23  C   UNL d   1     -43.561  11.260  22.915  0.00  0.00     0.026 A 
ATOM     24  C   UNL d   1     -44.024  11.874  22.585  0.00  0.00     0.021 A 
BRANCH  22  25
ATOM     25  O   UNL d   1     -43.467  10.075  23.698  0.00  0.00    -0.328 OA
ATOM     26  C   UNL d   1     -43.577   9.301  23.442  0.00  0.00     0.181 C 
ENDBRANCH  22  25
ENDBRANCH  17  19
ENDBRANCH  15  16
ENDBRANCH  14  15
ENDBRANCH   1  14
TORSDOF 6
ENDMDL
MODEL 5
REMARK VINA RESULT:      -4.1      1.514      2.863
REMARK  6 active torsions:
REMARK  status: ('A' for Active; 'I' for Inactive)
REMARK    1  A    between atoms: C_12  and  N_1 
REMARK    2  A    between atoms: C_9  and  C_23 
REMARK       I    between atoms: N_10  and  C_9 
REMARK    3  A    between atoms: C_13  and  N_10 
REMARK    4  A    between atoms: C_22  and  C_12 
REMARK    5  A    between atoms: O_21  and  C_15 
REMARK    6  A    between atoms: C_23  and  C_22 
ROOT
ATOM      1  C   UNL d   1     -45.086  12.788  22.756  0.00  0.00     0.085 C 
ENDROOT
BRANCH   1   2
ATOM      2  N   UNL d   1     -45.898  12.953  22.803  0.00  0.00    -0.249 N 
ATOM      3  C   UNL d   1     -46.417  12.337  22.982  0.00  0.00     0.208 A 
ATOM      4  N   UNL d   1     -47.232  12.489  23.032  0.00  0.00    -0.218 NA
ATOM      5  S   UNL d   1     -46.109  11.574  23.109  0.00  0.00    -0.038 SA
ATOM      6  C   UNL d   1     -47.528  13.244  22.905  0.00  0.00     0.088 A 
ATOM      7  C   UNL d   1     -47.006  13.863  22.725  0.00  0.00     0.074 A 
ATOM      8  C   UNL d   1     -48.333  13.394  22.954  0.00  0.00     0.019 A 
ATOM      9  C   UNL d   1     -46.197  13.718  22.674  0.00  0.00     0.268 A 
ATOM     10  C   UNL d   1     -47.298  14.623  22.597  0.00  0.00     0.006 A 
ATOM     11  O   UNL d   1     -45.678  14.334  22.495  0.00  0.00    -0.267 OA
ATOM     12  C   UNL d   1     -48.108  14.769  22.647  0.00  0.00     0.000 A 
ATOM     13  C   UNL d   1     -48.627  14.153  22.826  0.00  0.00     0.002 A 
ENDBRANCH   1   2
BRANCH   1  14
ATOM     14  C   UNL d   1     -44.697  12.853  22.026  0.00  0.00     0.024 C 
BRANCH  14  15
ATOM     15  C   UNL d   1     -43.943  12.516  21.928  0.00  0.00     0.064 C 
BRANCH  15  16
ATOM     16  C   UNL d   1     -43.378  12.897  21.446  0.00  0.00     0.279 C 
ATOM     17  N   UNL d   1     -42.737  13.273  21.784  0.00  0.00    -0.208 NA
ATOM     18  O   UNL d   1     -43.471  12.892  20.614  0.00  0.00    -0.265 OA
BRANCH  17  19
ATOM     19  C   UNL d   1     -42.169  13.656  21.300  0.00  0.00     0.085 A 
ATOM     20  C   UNL d   1     -42.227  14.463  21.131  0.00  0.00     0.021 A 
ATOM     21  C   UNL d   1     -41.662  14.828  20.653  0.00  0.00     0.026 A 
ATOM     22  C   UNL d   1     -41.036  14.384  20.343  0.00  0.00     0.094 A 
ATOM     23  C   UNL d   1     -40.975  13.578  20.510  0.00  0.00     0.026 A 
ATOM     24  C   UNL d   1     -41.551  13.214  20.994  0.00  0.00     0.021 A 
BRANCH  22  25
ATOM     25  O   UNL d   1     -40.466  14.741  19.864  0.00  0.00    -0.328 OA
ATOM     26  C   UNL d   1     -40.386  14.501  19.082  0.00  0.00     0.181 C 
ENDBRANCH  22  25
ENDBRANCH  17  19
ENDBRANCH  15  16
ENDBRANCH  14  15
ENDBRANCH   1  14
TORSDOF 6
ENDMDL
MODEL 6
REMARK VINA RESULT:      -3.9      3.078      7.482
REMARK  6 active torsions:
REMARK  status: ('A' for Active; 'I' for Inactive)
REMARK    1  A    between atoms: C_12  and  N_1 
REMARK    2  A    between atoms: C_9  and  C_23 
REMARK       I    between atoms: N_10  and  C_9 
REMARK    3  A    between atoms: C_13  and  N_10 
REMARK    4  A    between atoms: C_22  and  C_12 
REMARK    5  A    between atoms: O_21  and  C_15 
REMARK    6  A    between atoms: C_23  and  C_22 
ROOT
ATOM      1  C   UNL d   1     -41.562  14.021  20.753  0.00  0.00     0.085 C 
ENDROOT
BRANCH   1   2
ATOM      2  N   UNL d   1     -40.937  14.487  21.037  0.00  0.00    -0.249 N 
ATOM      3  C   UNL d   1     -40.995  15.307  20.974  0.00  0.00     0.208 A 
ATOM      4  N   UNL d   1     -40.375  15.785  21.255  0.00  0.00    -0.218 NA
ATOM      5  S   UNL d   1     -41.676  15.638  20.629  0.00  0.00    -0.038 SA
ATOM      6  C   UNL d   1     -39.708  15.450  21.594  0.00  0.00     0.088 A 
ATOM      7  C   UNL d   1     -39.650  14.625  21.658  0.00  0.00     0.074 A 
ATOM      8  C   UNL d   1     -39.096  15.921  21.872  0.00  0.00     0.019 A 
ATOM      9  C   UNL d   1     -40.261  14.147  21.381  0.00  0.00     0.268 A 
ATOM     10  C   UNL d   1     -38.981  14.284  21.998  0.00  0.00     0.006 A 
ATOM     11  O   UNL d   1     -40.203  13.327  21.444  0.00  0.00    -0.267 OA
ATOM     12  C   UNL d   1     -38.369  14.762  22.275  0.00  0.00     0.000 A 
ATOM     13  C   UNL d   1     -38.426  15.582  22.212  0.00  0.00     0.002 A 
ENDBRANCH   1   2
BRANCH   1  14
ATOM     14  C   UNL d   1     -42.088  13.669  21.290  0.00  0.00     0.024 C 
BRANCH  14  15
ATOM     15  C   UNL d   1     -42.715  13.201  21.009  0.00  0.00     0.064 C 
BRANCH  15  16
ATOM     16  C   UNL d   1     -43.316  12.956  21.532  0.00  0.00     0.279 C 
ATOM     17  N   UNL d   1     -44.076  13.244  21.450  0.00  0.00    -0.208 NA
ATOM     18  O   UNL d   1     -43.138  12.410  22.143  0.00  0.00    -0.265 OA
BRANCH  17  19
ATOM     19  C   UNL d   1     -44.680  12.997  21.977  0.00  0.00     0.085 A 
ATOM     20  C   UNL d   1     -44.713  12.218  22.252  0.00  0.00     0.021 A 
ATOM     21  C   UNL d   1     -45.313  11.987  22.769  0.00  0.00     0.026 A 
ATOM     22  C   UNL d   1     -45.882  12.537  23.013  0.00  0.00     0.094 A 
ATOM     23  C   UNL d   1     -45.851  13.315  22.740  0.00  0.00     0.026 A 
ATOM     24  C   UNL d   1     -45.241  13.543  22.216  0.00  0.00     0.021 A 
BRANCH  22  25
ATOM     25  O   UNL d   1     -46.485  12.314  23.530  0.00  0.00    -0.328 OA
ATOM     26  C   UNL d   1     -47.270  12.415  23.305  0.00  0.00     0.181 C 
ENDBRANCH  22  25
ENDBRANCH  17  19
ENDBRANCH  15  16
ENDBRANCH  14  15
ENDBRANCH   1  14
TORSDOF 6
ENDMDL
