MODEL 1
REMARK VINA RESULT:      -6.3      0.000      0.000
REMARK  2 active torsions:
REMARK  status: ('A' for Active; 'I' for Inactive)
REMARK    1  A    between atoms: S_2  and  N_1 
REMARK    2  A    between atoms: C_8  and  S_2 
ROOT
ATOM      1  S   UNL d   1     -41.569-122.590 -52.847  0.00  0.00     0.273 S 
ATOM      2  O   UNL d   1     -41.152-121.886 -52.789  0.00  0.00    -0.200 OA
ATOM      3  O   UNL d   1     -41.991-123.296 -52.914  0.00  0.00    -0.200 OA
ENDROOT
BRANCH   1   4
ATOM      4  N   UNL d   1     -41.676-122.439 -53.651  0.00  0.00    -0.207 N 
ATOM      5  C   UNL d   1     -42.317-121.942 -53.825  0.00  0.00     0.148 A 
ATOM      6  N   UNL d   1     -42.574-121.684 -54.573  0.00  0.00    -0.198 NA
ATOM      7  C   UNL d   1     -42.268-121.850 -55.304  0.00  0.00     0.066 A 
ATOM      8  C   UNL d   1     -41.811-122.277 -54.358  0.00  0.00     0.169 A 
ATOM      9  C   UNL d   1     -41.623-122.319 -55.496  0.00  0.00     0.066 A 
ATOM     10  N   UNL d   1     -41.123-122.739 -54.989  0.00  0.00    -0.198 NA
ATOM     11  C   UNL d   1     -41.149-122.791 -54.170  0.00  0.00     0.148 A 
ENDBRANCH   1   4
BRANCH   1  12
ATOM     12  C   UNL d   1     -41.458-122.733 -52.043  0.00  0.00     0.104 A 
ATOM     13  C   UNL d   1     -41.317-122.104 -51.527  0.00  0.00     0.014 A 
ATOM     14  C   UNL d   1     -41.206-122.247 -50.724  0.00  0.00     0.012 A 
ATOM     15  C   UNL d   1     -41.235-123.018 -50.434  0.00  0.00     0.058 A 
ATOM     16  C   UNL d   1     -41.376-123.648 -50.949  0.00  0.00     0.012 A 
ATOM     17 CL   UNL d   1     -41.123-123.152 -49.628  0.00  0.00    -0.082 Cl
ATOM     18  C   UNL d   1     -41.488-123.505 -51.752  0.00  0.00     0.014 A 
ENDBRANCH   1  12
TORSDOF 2
ENDMDL
MODEL 2
REMARK VINA RESULT:      -5.8      1.918      3.627
REMARK  2 active torsions:
REMARK  status: ('A' for Active; 'I' for Inactive)
REMARK    1  A    between atoms: S_2  and  N_1 
REMARK    2  A    between atoms: C_8  and  S_2 
ROOT
ATOM      1  S   UNL d   1     -41.611-122.549 -52.874  0.00  0.00     0.273 S 
ATOM      2  O   UNL d   1     -42.094-123.210 -52.917  0.00  0.00    -0.200 OA
ATOM      3  O   UNL d   1     -41.123-121.886 -52.821  0.00  0.00    -0.200 OA
ENDROOT
BRANCH   1   4
ATOM      4  N   UNL d   1     -41.484-122.717 -52.076  0.00  0.00    -0.207 N 
ATOM      5  C   UNL d   1     -41.550-122.062 -51.572  0.00  0.00     0.148 A 
ATOM      6  N   UNL d   1     -41.456-122.042 -50.746  0.00  0.00    -0.198 NA
ATOM      7  C   UNL d   1     -41.279-122.646 -50.237  0.00  0.00     0.066 A 
ATOM      8  C   UNL d   1     -41.378-122.820 -51.353  0.00  0.00     0.169 A 
ATOM      9  C   UNL d   1     -41.147-123.438 -50.406  0.00  0.00     0.066 A 
ATOM     10  N   UNL d   1     -41.161-123.816 -51.141  0.00  0.00    -0.198 NA
ATOM     11  C   UNL d   1     -41.311-123.494 -51.880  0.00  0.00     0.148 A 
ENDBRANCH   1   4
BRANCH   1  12
ATOM     12  C   UNL d   1     -41.743-122.389 -53.671  0.00  0.00     0.104 A 
ATOM     13  C   UNL d   1     -42.391-121.931 -53.898  0.00  0.00     0.014 A 
ATOM     14  C   UNL d   1     -42.523-121.771 -54.696  0.00  0.00     0.012 A 
ATOM     15  C   UNL d   1     -42.007-122.067 -55.267  0.00  0.00     0.058 A 
ATOM     16  C   UNL d   1     -41.359-122.525 -55.041  0.00  0.00     0.012 A 
ATOM     17 CL   UNL d   1     -42.147-121.902 -56.063  0.00  0.00    -0.082 Cl
ATOM     18  C   UNL d   1     -41.227-122.685 -54.243  0.00  0.00     0.014 A 
ENDBRANCH   1  12
TORSDOF 2
ENDMDL
MODEL 3
REMARK VINA RESULT:      -5.4      1.637      2.236
REMARK  2 active torsions:
REMARK  status: ('A' for Active; 'I' for Inactive)
REMARK    1  A    between atoms: S_2  and  N_1 
REMARK    2  A    between atoms: C_8  and  S_2 
ROOT
ATOM      1  S   UNL d   1     -41.676-122.946 -50.881  0.00  0.00     0.273 S 
ATOM      2  O   UNL d   1     -41.131-123.557 -50.827  0.00  0.00    -0.200 OA
ATOM      3  O   UNL d   1     -42.223-122.332 -50.944  0.00  0.00    -0.200 OA
ENDROOT
BRANCH   1   4
ATOM      4  N   UNL d   1     -41.530-122.911 -51.692  0.00  0.00    -0.207 N 
ATOM      5  C   UNL d   1     -41.324-122.158 -51.972  0.00  0.00     0.148 A 
ATOM      6  N   UNL d   1     -41.143-121.935 -52.753  0.00  0.00    -0.198 NA
ATOM      7  C   UNL d   1     -41.124-122.390 -53.422  0.00  0.00     0.066 A 
ATOM      8  C   UNL d   1     -41.390-122.832 -52.412  0.00  0.00     0.169 A 
ATOM      9  C   UNL d   1     -41.279-123.192 -53.503  0.00  0.00     0.066 A 
ATOM     10  N   UNL d   1     -41.493-123.736 -52.919  0.00  0.00    -0.198 NA
ATOM     11  C   UNL d   1     -41.604-123.608 -52.116  0.00  0.00     0.148 A 
ENDBRANCH   1   4
BRANCH   1  12
ATOM     12  C   UNL d   1     -41.816-122.988 -50.070  0.00  0.00     0.104 A 
ATOM     13  C   UNL d   1     -42.589-122.962 -49.782  0.00  0.00     0.014 A 
ATOM     14  C   UNL d   1     -42.729-123.003 -48.971  0.00  0.00     0.012 A 
ATOM     15  C   UNL d   1     -42.097-123.071 -48.447  0.00  0.00     0.058 A 
ATOM     16  C   UNL d   1     -41.323-123.097 -48.733  0.00  0.00     0.012 A 
ATOM     17 CL   UNL d   1     -42.246-123.112 -47.637  0.00  0.00    -0.082 Cl
ATOM     18  C   UNL d   1     -41.183-123.056 -49.544  0.00  0.00     0.014 A 
ENDBRANCH   1  12
TORSDOF 2
ENDMDL
MODEL 4
REMARK VINA RESULT:      -5.1      2.499      4.119
REMARK  2 active torsions:
REMARK  status: ('A' for Active; 'I' for Inactive)
REMARK    1  A    between atoms: S_2  and  N_1 
REMARK    2  A    between atoms: C_8  and  S_2 
ROOT
ATOM      1  S   UNL d   1     -41.605-123.073 -50.918  0.00  0.00     0.273 S 
ATOM      2  O   UNL d   1     -42.082-123.732 -51.020  0.00  0.00    -0.200 OA
ATOM      3  O   UNL d   1     -41.126-122.410 -50.806  0.00  0.00    -0.200 OA
ENDROOT
BRANCH   1   4
ATOM      4  N   UNL d   1     -41.731-123.130 -50.104  0.00  0.00    -0.207 N 
ATOM      5  C   UNL d   1     -42.442-122.792 -49.842  0.00  0.00     0.148 A 
ATOM      6  N   UNL d   1     -42.734-122.756 -49.065  0.00  0.00    -0.198 NA
ATOM      7  C   UNL d   1     -42.402-123.036 -48.381  0.00  0.00     0.066 A 
ATOM      8  C   UNL d   1     -41.887-123.157 -49.383  0.00  0.00     0.169 A 
ATOM      9  C   UNL d   1     -41.690-123.430 -48.280  0.00  0.00     0.066 A 
ATOM     10  N   UNL d   1     -41.132-123.639 -48.852  0.00  0.00    -0.198 NA
ATOM     11  C   UNL d   1     -41.153-123.504 -49.661  0.00  0.00     0.148 A 
ENDBRANCH   1   4
BRANCH   1  12
ATOM     12  C   UNL d   1     -41.484-123.023 -51.731  0.00  0.00     0.104 A 
ATOM     13  C   UNL d   1     -41.597-122.306 -52.122  0.00  0.00     0.014 A 
ATOM     14  C   UNL d   1     -41.476-122.256 -52.936  0.00  0.00     0.012 A 
ATOM     15  C   UNL d   1     -41.241-122.924 -53.359  0.00  0.00     0.058 A 
ATOM     16  C   UNL d   1     -41.128-123.642 -52.969  0.00  0.00     0.012 A 
ATOM     17 CL   UNL d   1     -41.123-122.865 -54.174  0.00  0.00    -0.082 Cl
ATOM     18  C   UNL d   1     -41.249-123.691 -52.155  0.00  0.00     0.014 A 
ENDBRANCH   1  12
TORSDOF 2
ENDMDL
