MODEL 1
REMARK VINA RESULT:      -8.8      0.000      0.000
REMARK  7 active torsions:
REMARK  status: ('A' for Active; 'I' for Inactive)
REMARK    1  A    between atoms: N_2  and  S_1 
REMARK    2  A    between atoms: C_3  and  S_1 
REMARK    3  A    between atoms: C_9  and  N_2 
REMARK    4  A    between atoms: C_6  and  O_7 
REMARK    5  A    between atoms: O_7  and  C_14 
REMARK    6  A    between atoms: C_13  and  C_9 
REMARK    7  A    between atoms: O_17  and  C_10 
ROOT
ATOM      1  C   UNL d   1      50.543  34.174  52.657  0.00  0.00     0.105 A 
ATOM      2  C   UNL d   1      50.617  33.488  53.097  0.00  0.00     0.015 A 
ATOM      3  C   UNL d   1      51.213  34.524  52.318  0.00  0.00     0.015 A 
ATOM      4  C   UNL d   1      52.024  33.500  52.865  0.00  0.00     0.100 A 
ATOM      5  C   UNL d   1      51.355  33.150  53.203  0.00  0.00     0.025 A 
ATOM      6  C   UNL d   1      51.949  34.185  52.424  0.00  0.00     0.025 A 
ENDROOT
BRANCH   1   7
ATOM      7  S   UNL d   1      49.794  34.510  52.555  0.00  0.00     0.285 S 
ATOM      8  O   UNL d   1      49.428  34.485  51.814  0.00  0.00    -0.198 OA
ATOM      9  O   UNL d   1      49.415  34.868  53.193  0.00  0.00    -0.198 OA
BRANCH   7  10
ATOM     10  N   UNL d   1      49.065  34.892  52.656  0.00  0.00    -0.155 NA
BRANCH  10  11
ATOM     11  C   UNL d   1      49.006  35.539  53.184  0.00  0.00     0.131 C 
BRANCH  11  12
ATOM     12  C   UNL d   1      48.277  35.929  53.271  0.00  0.00     0.101 A 
ATOM     13  N   UNL d   1      47.901  36.242  52.605  0.00  0.00    -0.242 NA
ATOM     14  C   UNL d   1      47.178  36.631  52.681  0.00  0.00     0.099 A 
ATOM     15  C   UNL d   1      46.825  36.709  53.433  0.00  0.00     0.021 A 
ATOM     16  C   UNL d   1      47.213  36.389  54.102  0.00  0.00     0.003 A 
ATOM     17  C   UNL d   1      47.935  36.002  54.018  0.00  0.00     0.021 A 
ENDBRANCH  11  12
ENDBRANCH  10  11
ENDBRANCH   7  10
ENDBRANCH   1   7
BRANCH   4  18
ATOM     18  O   UNL d   1      52.772  33.155  52.973  0.00  0.00    -0.305 OA
BRANCH  18  19
ATOM     19  C   UNL d   1      53.184  33.261  53.684  0.00  0.00     0.122 A 
ATOM     20  C   UNL d   1      53.580  32.627  54.026  0.00  0.00     0.117 A 
ATOM     21  C   UNL d   1      53.990  32.735  54.733  0.00  0.00     0.026 A 
ATOM     22  C   UNL d   1      54.003  33.472  55.092  0.00  0.00     0.002 A 
ATOM     23  C   UNL d   1      53.605  34.108  54.747  0.00  0.00     0.002 A 
ATOM     24  C   UNL d   1      53.195  34.000  54.040  0.00  0.00     0.027 A 
BRANCH  20  25
ATOM     25  O   UNL d   1      53.562  31.894  53.661  0.00  0.00    -0.326 OA
ATOM     26  C   UNL d   1      54.001  31.275  53.954  0.00  0.00     0.181 C 
ENDBRANCH  20  25
ENDBRANCH  18  19
ENDBRANCH   4  18
TORSDOF 7
ENDMDL
MODEL 2
REMARK VINA RESULT:      -7.8      1.655      5.560
REMARK  7 active torsions:
REMARK  status: ('A' for Active; 'I' for Inactive)
REMARK    1  A    between atoms: N_2  and  S_1 
REMARK    2  A    between atoms: C_3  and  S_1 
REMARK    3  A    between atoms: C_9  and  N_2 
REMARK    4  A    between atoms: C_6  and  O_7 
REMARK    5  A    between atoms: O_7  and  C_14 
REMARK    6  A    between atoms: C_13  and  C_9 
REMARK    7  A    between atoms: O_17  and  C_10 
ROOT
ATOM      1  C   UNL d   1      51.231  33.995  52.695  0.00  0.00     0.105 A 
ATOM      2  C   UNL d   1      51.123  34.382  51.982  0.00  0.00     0.015 A 
ATOM      3  C   UNL d   1      50.577  33.793  53.161  0.00  0.00     0.015 A 
ATOM      4  C   UNL d   1      49.713  34.367  52.197  0.00  0.00     0.100 A 
ATOM      5  C   UNL d   1      50.367  34.569  51.731  0.00  0.00     0.025 A 
ATOM      6  C   UNL d   1      49.822  33.980  52.909  0.00  0.00     0.025 A 
ENDROOT
BRANCH   1   7
ATOM      7  S   UNL d   1      51.999  33.809  52.942  0.00  0.00     0.285 S 
ATOM      8  O   UNL d   1      52.414  33.196  52.576  0.00  0.00    -0.198 OA
ATOM      9  O   UNL d   1      52.347  34.238  53.554  0.00  0.00    -0.198 OA
BRANCH   7  10
ATOM     10  N   UNL d   1      52.734  33.781  53.325  0.00  0.00    -0.155 NA
BRANCH  10  11
ATOM     11  C   UNL d   1      52.768  33.819  54.161  0.00  0.00     0.131 C 
BRANCH  11  12
ATOM     12  C   UNL d   1      53.498  33.711  54.544  0.00  0.00     0.101 A 
ATOM     13  N   UNL d   1      53.985  34.362  54.685  0.00  0.00    -0.242 NA
ATOM     14  C   UNL d   1      54.710  34.265  55.064  0.00  0.00     0.099 A 
ATOM     15  C   UNL d   1      54.954  33.505  55.307  0.00  0.00     0.021 A 
ATOM     16  C   UNL d   1      54.453  32.850  55.160  0.00  0.00     0.003 A 
ATOM     17  C   UNL d   1      53.730  32.955  54.781  0.00  0.00     0.021 A 
ENDBRANCH  11  12
ENDBRANCH  10  11
ENDBRANCH   7  10
ENDBRANCH   1   7
BRANCH   4  18
ATOM     18  O   UNL d   1      48.947  34.557  51.939  0.00  0.00    -0.305 OA
BRANCH  18  19
ATOM     19  C   UNL d   1      48.528  35.178  52.293  0.00  0.00     0.122 A 
ATOM     20  C   UNL d   1      47.841  35.460  51.940  0.00  0.00     0.117 A 
ATOM     21  C   UNL d   1      47.425  36.079  52.294  0.00  0.00     0.026 A 
ATOM     22  C   UNL d   1      47.696  36.410  52.993  0.00  0.00     0.002 A 
ATOM     23  C   UNL d   1      48.386  36.125  53.346  0.00  0.00     0.002 A 
ATOM     24  C   UNL d   1      48.802  35.506  52.993  0.00  0.00     0.027 A 
BRANCH  20  25
ATOM     25  O   UNL d   1      47.577  35.124  51.241  0.00  0.00    -0.326 OA
ATOM     26  C   UNL d   1      46.840  35.305  50.949  0.00  0.00     0.181 C 
ENDBRANCH  20  25
ENDBRANCH  18  19
ENDBRANCH   4  18
TORSDOF 7
ENDMDL
MODEL 3
REMARK VINA RESULT:      -7.6      2.157      5.853
REMARK  7 active torsions:
REMARK  status: ('A' for Active; 'I' for Inactive)
REMARK    1  A    between atoms: N_2  and  S_1 
REMARK    2  A    between atoms: C_3  and  S_1 
REMARK    3  A    between atoms: C_9  and  N_2 
REMARK    4  A    between atoms: C_6  and  O_7 
REMARK    5  A    between atoms: O_7  and  C_14 
REMARK    6  A    between atoms: C_13  and  C_9 
REMARK    7  A    between atoms: O_17  and  C_10 
ROOT
ATOM      1  C   UNL d   1      51.647  33.330  53.009  0.00  0.00     0.105 A 
ATOM      2  C   UNL d   1      51.788  33.969  52.518  0.00  0.00     0.015 A 
ATOM      3  C   UNL d   1      50.904  33.235  53.364  0.00  0.00     0.015 A 
ATOM      4  C   UNL d   1      50.452  34.419  52.733  0.00  0.00     0.100 A 
ATOM      5  C   UNL d   1      51.194  34.514  52.378  0.00  0.00     0.025 A 
ATOM      6  C   UNL d   1      50.311  33.780  53.223  0.00  0.00     0.025 A 
ENDROOT
BRANCH   1   7
ATOM      7  S   UNL d   1      52.253  32.783  53.146  0.00  0.00     0.285 S 
ATOM      8  O   UNL d   1      52.776  32.895  53.775  0.00  0.00    -0.198 OA
ATOM      9  O   UNL d   1      52.332  32.127  52.653  0.00  0.00    -0.198 OA
BRANCH   7  10
ATOM     10  N   UNL d   1      52.776  32.141  53.115  0.00  0.00    -0.155 NA
BRANCH  10  11
ATOM     11  C   UNL d   1      52.497  31.390  52.869  0.00  0.00     0.131 C 
BRANCH  11  12
ATOM     12  C   UNL d   1      52.851  30.704  53.176  0.00  0.00     0.101 A 
ATOM     13  N   UNL d   1      52.379  30.055  53.374  0.00  0.00    -0.242 NA
ATOM     14  C   UNL d   1      52.722  29.370  53.679  0.00  0.00     0.099 A 
ATOM     15  C   UNL d   1      53.548  29.331  53.787  0.00  0.00     0.021 A 
ATOM     16  C   UNL d   1      54.018  29.993  53.584  0.00  0.00     0.003 A 
ATOM     17  C   UNL d   1      53.670  30.674  53.280  0.00  0.00     0.021 A 
ENDBRANCH  11  12
ENDBRANCH  10  11
ENDBRANCH   7  10
ENDBRANCH   1   7
BRANCH   4  18
ATOM     18  O   UNL d   1      49.850  34.973  52.589  0.00  0.00    -0.305 OA
BRANCH  18  19
ATOM     19  C   UNL d   1      49.318  34.863  51.964  0.00  0.00     0.122 A 
ATOM     20  C   UNL d   1      48.569  35.199  52.001  0.00  0.00     0.117 A 
ATOM     21  C   UNL d   1      48.040  35.088  51.378  0.00  0.00     0.026 A 
ATOM     22  C   UNL d   1      48.261  34.644  50.725  0.00  0.00     0.002 A 
ATOM     23  C   UNL d   1      49.014  34.307  50.690  0.00  0.00     0.002 A 
ATOM     24  C   UNL d   1      49.543  34.418  51.313  0.00  0.00     0.027 A 
BRANCH  20  25
ATOM     25  O   UNL d   1      48.355  35.642  52.657  0.00  0.00    -0.326 OA
ATOM     26  C   UNL d   1      47.669  36.079  52.655  0.00  0.00     0.181 C 
ENDBRANCH  20  25
ENDBRANCH  18  19
ENDBRANCH   4  18
TORSDOF 7
ENDMDL
