MODEL 1
REMARK VINA RESULT:      86.3      0.000      0.000
REMARK  8 active torsions:
REMARK  status: ('A' for Active; 'I' for Inactive)
REMARK    1  A    between atoms: C_10  and  C_3 
REMARK       I    between atoms: N_14  and  C_10 
REMARK    2  A    between atoms: C_12  and  C_13 
REMARK       I    between atoms: N_21  and  C_12 
REMARK    3  A    between atoms: C_29  and  N_14 
REMARK    4  A    between atoms: C_28  and  N_21 
REMARK    5  A    between atoms: O_30  and  C_22 
REMARK    6  A    between atoms: C_23  and  C_31 
REMARK    7  A    between atoms: C_31  and  C_28 
REMARK    8  A    between atoms: C_32  and  O_30 
ROOT
ATOM      1  N   UNL d   1     -50.807  25.740  33.821  0.00  0.00    -0.277 N 
ATOM      2  C   UNL d   1     -51.638  25.773  33.770  0.00  0.00     0.163 A 
ATOM      3  C   UNL d   1     -51.927  25.011  33.909  0.00  0.00     0.124 A 
ATOM      4  C   UNL d   1     -50.593  24.958  33.990  0.00  0.00     0.152 A 
ATOM      5  N   UNL d   1     -52.013  26.487  33.607  0.00  0.00    -0.190 NA
ATOM      6  S   UNL d   1     -51.291  24.511  34.043  0.00  0.00    -0.051 SA
ATOM      7  C   UNL d   1     -50.359  26.421  33.707  0.00  0.00     0.071 A 
ATOM      8  C   UNL d   1     -50.734  27.136  33.544  0.00  0.00     0.074 A 
ATOM      9  C   UNL d   1     -51.565  27.169  33.493  0.00  0.00     0.282 A 
ATOM     10  C   UNL d   1     -49.532  26.388  33.758  0.00  0.00     0.023 A 
ATOM     11  C   UNL d   1     -49.085  27.070  33.644  0.00  0.00     0.059 A 
ATOM     12  S   UNL d   1     -49.820  24.681  34.086  0.00  0.00    -0.052 SA
ATOM     13  C   UNL d   1     -50.286  27.822  33.429  0.00  0.00     0.006 A 
ATOM     14  O   UNL d   1     -51.944  27.895  33.327  0.00  0.00    -0.265 OA
ATOM     15  C   UNL d   1     -49.459  27.789  33.480  0.00  0.00     0.005 A 
ENDROOT
BRANCH  11  16
ATOM     16  C   UNL d   1     -48.262  27.037  33.694  0.00  0.00     0.279 C 
ATOM     17  O   UNL d   1     -47.848  26.437  33.309  0.00  0.00    -0.265 OA
ATOM     18  N   UNL d   1     -47.852  27.603  34.128  0.00  0.00    -0.206 NA
BRANCH  18  19
ATOM     19  C   UNL d   1     -48.265  28.203  34.513  0.00  0.00     0.102 C 
BRANCH  19  20
ATOM     20  C   UNL d   1     -47.981  28.511  35.219  0.00  0.00     0.021 C 
BRANCH  20  21
ATOM     21  C   UNL d   1     -47.738  29.302  35.252  0.00  0.00     0.002 A 
ATOM     22  C   UNL d   1     -47.491  29.619  35.970  0.00  0.00     0.002 A 
ATOM     23  C   UNL d   1     -47.248  30.404  36.010  0.00  0.00     0.025 A 
ATOM     24  C   UNL d   1     -47.252  30.873  35.331  0.00  0.00     0.100 A 
ATOM     25  C   UNL d   1     -47.499  30.556  34.612  0.00  0.00     0.025 A 
ATOM     26  C   UNL d   1     -47.742  29.770  34.573  0.00  0.00     0.002 A 
BRANCH  24  27
ATOM     27  O   UNL d   1     -47.007  31.662  35.373  0.00  0.00    -0.305 OA
BRANCH  27  28
ATOM     28  C   UNL d   1     -47.527  32.265  35.164  0.00  0.00     0.123 C 
ATOM     29  C   UNL d   1     -47.601  32.494  34.369  0.00  0.00     0.029 C 
ENDBRANCH  27  28
ENDBRANCH  24  27
ENDBRANCH  20  21
ENDBRANCH  19  20
ENDBRANCH  18  19
ENDBRANCH  11  16
BRANCH   3  30
ATOM     30  C   UNL d   1     -52.726  24.797  33.909  0.00  0.00     0.288 C 
ATOM     31  N   UNL d   1     -53.000  24.231  33.374  0.00  0.00    -0.207 NA
ATOM     32  O   UNL d   1     -53.250  25.145  34.440  0.00  0.00    -0.265 OA
BRANCH  31  33
ATOM     33  C   UNL d   1     -53.798  24.014  33.372  0.00  0.00     0.085 C 
ATOM     34  C   UNL d   1     -54.011  23.225  33.326  0.00  0.00     0.021 C 
ATOM     35  C   UNL d   1     -54.384  24.595  33.415  0.00  0.00     0.021 C 
ENDBRANCH  31  33
ENDBRANCH   3  30
TORSDOF 8
ENDMDL
