MODEL 1
REMARK VINA RESULT:      55.3      0.000      0.000
REMARK  5 active torsions:
REMARK  status: ('A' for Active; 'I' for Inactive)
REMARK    1  A    between atoms: C_10  and  N_6 
REMARK    2  A    between atoms: S_13  and  C_9 
REMARK    3  A    between atoms: C_14  and  C_10 
REMARK    4  A    between atoms: C_22  and  S_13 
REMARK    5  A    between atoms: C_24  and  C_22 
ROOT
ATOM      1  C   UNL d   1     -54.711-101.589 -42.343  0.00  0.00     0.174 A 
ATOM      2  C   UNL d   1     -54.711-100.769 -42.264  0.00  0.00     0.158 A 
ATOM      3  N   UNL d   1     -54.711-101.768 -43.138  0.00  0.00    -0.203 NA
ATOM      4  N   UNL d   1     -54.711-102.060 -41.670  0.00  0.00    -0.240 N 
ATOM      5  N   UNL d   1     -54.712-100.908 -40.822  0.00  0.00    -0.223 N 
ATOM      6  N   UNL d   1     -54.711-100.369 -43.062  0.00  0.00    -0.279 N 
ATOM      7  C   UNL d   1     -54.711-101.728 -40.901  0.00  0.00     0.343 A 
ATOM      8  C   UNL d   1     -54.712-100.419 -41.512  0.00  0.00     0.287 A 
ATOM      9  C   UNL d   1     -54.711-101.038 -43.544  0.00  0.00     0.181 A 
ATOM     10  O   UNL d   1     -54.712-102.200 -40.215  0.00  0.00    -0.245 OA
ATOM     11  O   UNL d   1     -54.712 -99.598 -41.432  0.00  0.00    -0.265 OA
ATOM     12  C   UNL d   1     -54.711-102.880 -41.749  0.00  0.00     0.105 C 
ATOM     13  C   UNL d   1     -54.712-100.558 -40.069  0.00  0.00     0.107 C 
ENDROOT
BRANCH   6  14
ATOM     14  C   UNL d   1     -54.711 -99.569 -43.253  0.00  0.00     0.082 C 
BRANCH  14  15
ATOM     15  C   UNL d   1     -55.161 -99.306 -43.892  0.00  0.00     0.018 A 
ATOM     16  C   UNL d   1     -55.965 -99.163 -43.798  0.00  0.00     0.002 A 
ATOM     17  C   UNL d   1     -56.421 -98.899 -44.430  0.00  0.00     0.000 A 
ATOM     18  C   UNL d   1     -57.222 -98.774 -44.271  0.00  0.00     0.000 C 
ATOM     19  C   UNL d   1     -56.062 -98.777 -45.171  0.00  0.00     0.000 A 
ATOM     20  C   UNL d   1     -55.253 -98.922 -45.264  0.00  0.00     0.000 A 
ATOM     21  C   UNL d   1     -54.804 -99.185 -44.628  0.00  0.00     0.002 A 
ENDBRANCH  14  15
ENDBRANCH   6  14
BRANCH   9  22
ATOM     22  S   UNL d   1     -54.711-100.959 -44.365  0.00  0.00    -0.046 SA
BRANCH  22  23
ATOM     23  C   UNL d   1     -54.872-101.269 -45.110  0.00  0.00     0.084 C 
BRANCH  23  24
ATOM     24  C   UNL d   1     -54.729-102.064 -45.262  0.00  0.00     0.241 C 
ATOM     25  O   UNL d   1     -55.352-102.561 -45.466  0.00  0.00    -0.283 OA
ENDBRANCH  23  24
ENDBRANCH  22  23
ENDBRANCH   9  22
TORSDOF 5
ENDMDL
