MODEL 1
REMARK VINA RESULT:      -9.7      0.000      0.000
REMARK  4 active torsions:
REMARK  status: ('A' for Active; 'I' for Inactive)
REMARK    1  A    between atoms: N_14  and  C_2 
REMARK       I    between atoms: C_9  and  N_11 
REMARK    2  A    between atoms: C_13  and  C_9 
REMARK    3  A    between atoms: C_10  and  C_17 
REMARK       I    between atoms: N_12  and  C_10 
REMARK    4  A    between atoms: C_30  and  N_14 
ROOT
ATOM      1  C   UNL d   1      51.653  34.352  53.271  0.00  0.00     0.057 A 
ATOM      2  C   UNL d   1      51.925  34.123  52.512  0.00  0.00     0.006 A 
ATOM      3  C   UNL d   1      52.002  34.034  53.947  0.00  0.00     0.006 A 
ATOM      4  C   UNL d   1      52.891  33.262  53.130  0.00  0.00     0.084 A 
ATOM      5  C   UNL d   1      52.542  33.580  52.454  0.00  0.00     0.019 A 
ATOM      6  C   UNL d   1      52.622  33.488  53.881  0.00  0.00     0.019 A 
ENDROOT
BRANCH   1   7
ATOM      7  C   UNL d   1      51.031  34.899  53.364  0.00  0.00     0.265 C 
ATOM      8  N   UNL d   1      50.304  34.777  52.987  0.00  0.00    -0.270 N 
ATOM      9  C   UNL d   1      49.535  34.540  52.520  0.00  0.00     0.096 A 
ATOM     10  C   UNL d   1      49.525  34.908  52.750  0.00  0.00     0.096 A 
ATOM     11  C   UNL d   1      48.981  35.129  52.668  0.00  0.00     0.077 A 
ATOM     12  N   UNL d   1      48.220  35.428  52.546  0.00  0.00    -0.171 NA
ATOM     13  C   UNL d   1      47.629  35.994  52.663  0.00  0.00     0.267 C 
ATOM     14  C   UNL d   1      48.969  35.486  52.891  0.00  0.00     0.077 A 
ATOM     15  O   UNL d   1      47.769  36.645  53.137  0.00  0.00    -0.271 OA
ATOM     16  O   UNL d   1      51.143  35.571  53.839  0.00  0.00    -0.267 OA
BRANCH  13  17
ATOM     17  C   UNL d   1      46.898  35.894  52.299  0.00  0.00     0.151 A 
ATOM     18  O   UNL d   1      46.756  35.895  51.496  0.00  0.00    -0.301 OA
ATOM     19  C   UNL d   1      45.955  35.778  51.370  0.00  0.00     0.123 A 
ATOM     20  C   UNL d   1      45.597  35.705  52.108  0.00  0.00     0.029 A 
ATOM     21  C   UNL d   1      46.175  35.776  52.681  0.00  0.00     0.031 A 
ENDBRANCH  13  17
ENDBRANCH   1   7
BRANCH   4  22
ATOM     22  N   UNL d   1      53.512  32.715  53.058  0.00  0.00    -0.221 NA
BRANCH  22  23
ATOM     23  C   UNL d   1      53.373  31.909  53.199  0.00  0.00     0.194 A 
ATOM     24  S   UNL d   1      53.704  31.481  53.801  0.00  0.00    -0.046 SA
ATOM     25  C   UNL d   1      53.420  30.696  53.743  0.00  0.00     0.062 A 
ATOM     26  C   UNL d   1      53.450  29.946  54.082  0.00  0.00     0.107 A 
ATOM     27  C   UNL d   1      52.912  30.659  53.097  0.00  0.00     0.102 A 
ATOM     28  S   UNL d   1      52.966  29.451  53.649  0.00  0.00     0.213 S 
ATOM     29  C   UNL d   1      52.631  29.884  53.039  0.00  0.00     0.118 A 
ATOM     30  O   UNL d   1      53.239  28.913  54.219  0.00  0.00    -0.217 OA
ATOM     31  O   UNL d   1      52.514  28.847  53.300  0.00  0.00    -0.217 OA
ATOM     32  N   UNL d   1      52.880  31.415  52.754  0.00  0.00    -0.220 NA
ENDBRANCH  22  23
ENDBRANCH   4  22
TORSDOF 4
ENDMDL
MODEL 2
REMARK VINA RESULT:      -9.0      3.021      7.091
REMARK  4 active torsions:
REMARK  status: ('A' for Active; 'I' for Inactive)
REMARK    1  A    between atoms: N_14  and  C_2 
REMARK       I    between atoms: C_9  and  N_11 
REMARK    2  A    between atoms: C_13  and  C_9 
REMARK    3  A    between atoms: C_10  and  C_17 
REMARK       I    between atoms: N_12  and  C_10 
REMARK    4  A    between atoms: C_30  and  N_14 
ROOT
ATOM      1  C   UNL d   1      49.030  34.938  52.031  0.00  0.00     0.057 A 
ATOM      2  C   UNL d   1      48.981  35.507  52.645  0.00  0.00     0.006 A 
ATOM      3  C   UNL d   1      48.395  34.836  51.513  0.00  0.00     0.006 A 
ATOM      4  C   UNL d   1      47.662  35.856  52.204  0.00  0.00     0.084 A 
ATOM      5  C   UNL d   1      48.295  35.957  52.721  0.00  0.00     0.019 A 
ATOM      6  C   UNL d   1      47.710  35.294  51.596  0.00  0.00     0.019 A 
ENDROOT
BRANCH   1   7
ATOM      7  C   UNL d   1      49.708  34.466  51.926  0.00  0.00     0.265 C 
ATOM      8  N   UNL d   1      50.258  34.378  52.540  0.00  0.00    -0.270 N 
ATOM      9  C   UNL d   1      50.804  34.351  53.293  0.00  0.00     0.096 A 
ATOM     10  C   UNL d   1      50.930  34.125  52.945  0.00  0.00     0.096 A 
ATOM     11  C   UNL d   1      51.441  33.869  53.102  0.00  0.00     0.077 A 
ATOM     12  N   UNL d   1      52.153  33.518  53.332  0.00  0.00    -0.171 NA
ATOM     13  C   UNL d   1      52.813  33.041  53.188  0.00  0.00     0.267 C 
ATOM     14  C   UNL d   1      51.566  33.649  52.765  0.00  0.00     0.077 A 
ATOM     15  O   UNL d   1      52.909  32.676  52.464  0.00  0.00    -0.271 OA
ATOM     16  O   UNL d   1      49.834  34.082  51.202  0.00  0.00    -0.267 OA
BRANCH  13  17
ATOM     17  C   UNL d   1      53.373  32.938  53.783  0.00  0.00     0.151 A 
ATOM     18  O   UNL d   1      53.307  32.439  54.424  0.00  0.00    -0.301 OA
ATOM     19  C   UNL d   1      53.986  32.505  54.879  0.00  0.00     0.123 A 
ATOM     20  C   UNL d   1      54.477  33.055  54.512  0.00  0.00     0.029 A 
ATOM     21  C   UNL d   1      54.102  33.322  53.837  0.00  0.00     0.031 A 
ENDBRANCH  13  17
ENDBRANCH   1   7
BRANCH   4  22
ATOM     22  N   UNL d   1      46.976  36.316  52.291  0.00  0.00    -0.221 NA
BRANCH  22  23
ATOM     23  C   UNL d   1      46.454  36.168  52.919  0.00  0.00     0.194 A 
ATOM     24  S   UNL d   1      46.365  36.642  53.568  0.00  0.00    -0.046 SA
ATOM     25  C   UNL d   1      45.786  36.293  54.063  0.00  0.00     0.062 A 
ATOM     26  C   UNL d   1      45.375  36.373  54.772  0.00  0.00     0.107 A 
ATOM     27  C   UNL d   1      45.529  35.601  53.699  0.00  0.00     0.102 A 
ATOM     28  S   UNL d   1      44.868  35.737  54.844  0.00  0.00     0.213 S 
ATOM     29  C   UNL d   1      44.957  35.257  54.187  0.00  0.00     0.118 A 
ATOM     30  O   UNL d   1      44.690  36.138  55.549  0.00  0.00    -0.217 OA
ATOM     31  O   UNL d   1      44.314  35.150  55.042  0.00  0.00    -0.217 OA
ATOM     32  N   UNL d   1      45.943  35.519  52.984  0.00  0.00    -0.220 NA
ENDBRANCH  22  23
ENDBRANCH   4  22
TORSDOF 4
ENDMDL
MODEL 3
REMARK VINA RESULT:      -8.4      2.031      2.430
REMARK  4 active torsions:
REMARK  status: ('A' for Active; 'I' for Inactive)
REMARK    1  A    between atoms: N_14  and  C_2 
REMARK       I    between atoms: C_9  and  N_11 
REMARK    2  A    between atoms: C_13  and  C_9 
REMARK    3  A    between atoms: C_10  and  C_17 
REMARK       I    between atoms: N_12  and  C_10 
REMARK    4  A    between atoms: C_30  and  N_14 
ROOT
ATOM      1  C   UNL d   1      50.332  34.508  52.926  0.00  0.00     0.057 A 
ATOM      2  C   UNL d   1      50.306  33.750  53.283  0.00  0.00     0.006 A 
ATOM      3  C   UNL d   1      51.009  34.748  52.519  0.00  0.00     0.006 A 
ATOM      4  C   UNL d   1      51.636  33.493  52.815  0.00  0.00     0.084 A 
ATOM      5  C   UNL d   1      50.960  33.254  53.222  0.00  0.00     0.019 A 
ATOM      6  C   UNL d   1      51.664  34.243  52.461  0.00  0.00     0.019 A 
ENDROOT
BRANCH   1   7
ATOM      7  C   UNL d   1      49.688  35.034  52.969  0.00  0.00     0.265 C 
ATOM      8  N   UNL d   1      49.016  34.915  52.499  0.00  0.00    -0.270 N 
ATOM      9  C   UNL d   1      48.318  34.685  51.929  0.00  0.00     0.096 A 
ATOM     10  C   UNL d   1      48.268  35.039  52.175  0.00  0.00     0.096 A 
ATOM     11  C   UNL d   1      47.732  35.252  52.037  0.00  0.00     0.077 A 
ATOM     12  N   UNL d   1      46.983  35.538  51.837  0.00  0.00    -0.171 NA
ATOM     13  C   UNL d   1      46.364  36.082  51.909  0.00  0.00     0.267 C 
ATOM     14  C   UNL d   1      47.681  35.595  52.274  0.00  0.00     0.077 A 
ATOM     15  O   UNL d   1      46.425  36.709  52.429  0.00  0.00    -0.271 OA
ATOM     16  O   UNL d   1      49.719  35.680  53.488  0.00  0.00    -0.267 OA
BRANCH  13  17
ATOM     17  C   UNL d   1      45.687  35.985  51.453  0.00  0.00     0.151 A 
ATOM     18  O   UNL d   1      45.297  35.283  51.314  0.00  0.00    -0.301 OA
ATOM     19  C   UNL d   1      44.651  35.431  50.832  0.00  0.00     0.123 A 
ATOM     20  C   UNL d   1      44.643  36.239  50.672  0.00  0.00     0.029 A 
ATOM     21  C   UNL d   1      45.279  36.581  51.053  0.00  0.00     0.031 A 
ENDBRANCH  13  17
ENDBRANCH   1   7
BRANCH   4  22
ATOM     22  N   UNL d   1      52.290  32.984  52.760  0.00  0.00    -0.221 NA
BRANCH  22  23
ATOM     23  C   UNL d   1      52.929  33.070  53.283  0.00  0.00     0.194 A 
ATOM     24  S   UNL d   1      53.703  33.141  53.061  0.00  0.00    -0.046 SA
ATOM     25  C   UNL d   1      54.164  33.215  53.756  0.00  0.00     0.062 A 
ATOM     26  C   UNL d   1      54.930  33.305  54.046  0.00  0.00     0.107 A 
ATOM     27  C   UNL d   1      53.653  33.189  54.400  0.00  0.00     0.102 A 
ATOM     28  S   UNL d   1      54.891  33.333  54.860  0.00  0.00     0.213 S 
ATOM     29  C   UNL d   1      54.107  33.262  55.087  0.00  0.00     0.118 A 
ATOM     30  O   UNL d   1      55.711  33.413  54.758  0.00  0.00    -0.217 OA
ATOM     31  O   UNL d   1      54.994  33.377  55.684  0.00  0.00    -0.217 OA
ATOM     32  N   UNL d   1      52.880  33.098  54.110  0.00  0.00    -0.220 NA
ENDBRANCH  22  23
ENDBRANCH   4  22
TORSDOF 4
ENDMDL
MODEL 4
REMARK VINA RESULT:      -7.6      2.133      2.606
REMARK  4 active torsions:
REMARK  status: ('A' for Active; 'I' for Inactive)
REMARK    1  A    between atoms: N_14  and  C_2 
REMARK       I    between atoms: C_9  and  N_11 
REMARK    2  A    between atoms: C_13  and  C_9 
REMARK    3  A    between atoms: C_10  and  C_17 
REMARK       I    between atoms: N_12  and  C_10 
REMARK    4  A    between atoms: C_30  and  N_14 
ROOT
ATOM      1  C   UNL d   1      51.073  33.811  52.304  0.00  0.00     0.057 A 
ATOM      2  C   UNL d   1      50.945  33.082  52.696  0.00  0.00     0.006 A 
ATOM      3  C   UNL d   1      51.842  34.088  52.189  0.00  0.00     0.006 A 
ATOM      4  C   UNL d   1      52.362  32.926  52.849  0.00  0.00     0.084 A 
ATOM      5  C   UNL d   1      51.594  32.650  52.963  0.00  0.00     0.019 A 
ATOM      6  C   UNL d   1      52.489  33.648  52.461  0.00  0.00     0.019 A 
ENDROOT
BRANCH   1   7
ATOM      7  C   UNL d   1      50.439  34.272  52.021  0.00  0.00     0.265 C 
ATOM      8  N   UNL d   1      49.834  34.515  52.534  0.00  0.00    -0.270 N 
ATOM      9  C   UNL d   1      49.216  34.729  53.195  0.00  0.00     0.096 A 
ATOM     10  C   UNL d   1      49.141  34.876  52.794  0.00  0.00     0.096 A 
ATOM     11  C   UNL d   1      48.632  35.179  52.831  0.00  0.00     0.077 A 
ATOM     12  N   UNL d   1      47.923  35.598  52.896  0.00  0.00    -0.171 NA
ATOM     13  C   UNL d   1      47.311  36.054  52.577  0.00  0.00     0.267 C 
ATOM     14  C   UNL d   1      48.557  35.323  52.443  0.00  0.00     0.077 A 
ATOM     15  O   UNL d   1      47.314  36.252  51.784  0.00  0.00    -0.271 OA
ATOM     16  O   UNL d   1      50.413  34.489  51.221  0.00  0.00    -0.267 OA
BRANCH  13  17
ATOM     17  C   UNL d   1      46.700  36.307  53.066  0.00  0.00     0.151 A 
ATOM     18  O   UNL d   1      46.749  36.434  53.870  0.00  0.00    -0.301 OA
ATOM     19  C   UNL d   1      46.017  36.682  54.143  0.00  0.00     0.123 A 
ATOM     20  C   UNL d   1      45.509  36.709  53.495  0.00  0.00     0.029 A 
ATOM     21  C   UNL d   1      45.927  36.479  52.832  0.00  0.00     0.031 A 
ENDBRANCH  13  17
ENDBRANCH   1   7
BRANCH   4  22
ATOM     22  N   UNL d   1      53.008  32.482  53.123  0.00  0.00    -0.221 NA
BRANCH  22  23
ATOM     23  C   UNL d   1      53.520  32.802  53.693  0.00  0.00     0.194 A 
ATOM     24  S   UNL d   1      54.258  33.093  53.540  0.00  0.00    -0.046 SA
ATOM     25  C   UNL d   1      54.584  33.360  54.264  0.00  0.00     0.062 A 
ATOM     26  C   UNL d   1      55.245  33.705  54.615  0.00  0.00     0.107 A 
ATOM     27  C   UNL d   1      54.028  33.224  54.855  0.00  0.00     0.102 A 
ATOM     28  S   UNL d   1      55.097  33.781  55.414  0.00  0.00     0.213 S 
ATOM     29  C   UNL d   1      54.349  33.486  55.570  0.00  0.00     0.118 A 
ATOM     30  O   UNL d   1      55.861  34.104  55.383  0.00  0.00    -0.217 OA
ATOM     31  O   UNL d   1      55.077  33.916  56.234  0.00  0.00    -0.217 OA
ATOM     32  N   UNL d   1      53.361  32.875  54.503  0.00  0.00    -0.220 NA
ENDBRANCH  22  23
ENDBRANCH   4  22
TORSDOF 4
ENDMDL
