MODEL 1
REMARK VINA RESULT:      43.8      0.000      0.000
REMARK  2 active torsions:
REMARK  status: ('A' for Active; 'I' for Inactive)
REMARK    1  A    between atoms: C_9  and  C_2 
REMARK    2  A    between atoms: C_12  and  C_7 
ROOT
ATOM      1  N   UNL d   1     -50.641  25.101  33.399  0.00  0.00    -0.186 N 
ATOM      2  C   UNL d   1     -51.158  24.452  33.419  0.00  0.00     0.187 A 
ATOM      3  N   UNL d   1     -50.781  25.907  33.421  0.00  0.00    -0.162 NA
ATOM      4  C   UNL d   1     -49.869  24.809  33.348  0.00  0.00     0.217 A 
ATOM      5  N   UNL d   1     -50.702  23.768  33.381  0.00  0.00    -0.127 NA
ATOM      6  N   UNL d   1     -49.906  23.988  33.336  0.00  0.00    -0.120 NA
ATOM      7  C   UNL d   1     -50.149  26.441  33.392  0.00  0.00     0.108 A 
ATOM      8  S   UNL d   1     -49.234  25.335  33.318  0.00  0.00    -0.045 SA
ATOM      9  C   UNL d   1     -49.374  26.154  33.340  0.00  0.00     0.059 A 
ENDROOT
BRANCH   2  10
ATOM     10  C   UNL d   1     -51.987  24.495  33.470  0.00  0.00     0.038 A 
ATOM     11  C   UNL d   1     -52.418  23.823  33.682  0.00  0.00     0.003 A 
ATOM     12  C   UNL d   1     -53.233  23.858  33.733  0.00  0.00     0.000 A 
ATOM     13  C   UNL d   1     -53.656  23.190  33.944  0.00  0.00     0.000 C 
ATOM     14  C   UNL d   1     -53.614  24.573  33.571  0.00  0.00     0.000 A 
ATOM     15  C   UNL d   1     -53.186  25.242  33.360  0.00  0.00     0.000 A 
ATOM     16  C   UNL d   1     -52.369  25.200  33.310  0.00  0.00     0.003 A 
ENDBRANCH   2  10
BRANCH   7  17
ATOM     17  C   UNL d   1     -50.285  27.253  33.413  0.00  0.00     0.020 A 
ATOM     18  C   UNL d   1     -49.656  27.774  33.542  0.00  0.00     0.002 A 
ATOM     19  C   UNL d   1     -49.801  28.587  33.562  0.00  0.00     0.000 A 
ATOM     20  C   UNL d   1     -50.559  28.879  33.456  0.00  0.00     0.000 A 
ATOM     21  C   UNL d   1     -51.189  28.356  33.328  0.00  0.00     0.000 A 
ATOM     22  C   UNL d   1     -51.051  27.537  33.306  0.00  0.00     0.002 A 
ENDBRANCH   7  17
TORSDOF 2
ENDMDL
