MODEL 1
REMARK VINA RESULT:      -4.3      0.000      0.000
REMARK  2 active torsions:
REMARK  status: ('A' for Active; 'I' for Inactive)
REMARK    1  A    between atoms: C_7  and  C_1 
REMARK    2  A    between atoms: C_9  and  C_1 
ROOT
ATOM      1  C   UNL d   1      56.048   0.117  33.168  0.00  0.00     0.240 A 
ATOM      2  S   UNL d   1      56.868   0.196  33.158  0.00  0.00    -0.043 SA
ATOM      3  N   UNL d   1      55.631   0.226  33.871  0.00  0.00    -0.199 NA
ATOM      4  C   UNL d   1      57.266   0.385  33.850  0.00  0.00     0.181 A 
ATOM      5  N   UNL d   1      56.852   0.498  34.569  0.00  0.00    -0.236 N 
ATOM      6  C   UNL d   1      56.033   0.415  34.564  0.00  0.00     0.352 A 
ATOM      7  N   UNL d   1      58.078   0.499  34.006  0.00  0.00    -0.219 NA
ATOM      8  O   UNL d   1      55.611   0.524  35.264  0.00  0.00    -0.244 OA
ATOM      9  C   UNL d   1      57.405   0.679  35.153  0.00  0.00     0.107 A 
ATOM     10  C   UNL d   1      58.157   0.680  34.808  0.00  0.00     0.120 A 
ENDROOT
BRANCH   1  11
ATOM     11  C   UNL d   1      55.229   0.037  33.177  0.00  0.00     0.429 C 
ATOM     12  F   UNL d   1      54.480  -0.033  33.184  0.00  0.00    -0.167 F 
ATOM     13  F   UNL d   1      54.754  -0.654  33.335  0.00  0.00    -0.167 F 
ATOM     14  F   UNL d   1      54.629   0.635  33.028  0.00  0.00    -0.167 F 
ENDBRANCH   1  11
BRANCH   1  15
ATOM     15  C   UNL d   1      56.473   0.009  32.469  0.00  0.00     0.016 A 
ATOM     16  C   UNL d   1      56.724   0.661  32.041  0.00  0.00    -0.001 A 
ATOM     17  C   UNL d   1      57.148   0.553  31.342  0.00  0.00    -0.000 A 
ATOM     18  C   UNL d   1      57.322  -0.208  31.071  0.00  0.00    -0.000 A 
ATOM     19  C   UNL d   1      57.065  -0.860  31.509  0.00  0.00    -0.000 A 
ATOM     20  C   UNL d   1      57.747  -0.317  30.372  0.00  0.00    -0.000 C 
ATOM     21  C   UNL d   1      56.645  -0.753  32.200  0.00  0.00    -0.001 A 
ENDBRANCH   1  15
TORSDOF 2
ENDMDL
MODEL 2
REMARK VINA RESULT:      -3.1      3.446      4.396
REMARK  2 active torsions:
REMARK  status: ('A' for Active; 'I' for Inactive)
REMARK    1  A    between atoms: C_7  and  C_1 
REMARK    2  A    between atoms: C_9  and  C_1 
ROOT
ATOM      1  C   UNL d   1      58.414   0.053  29.954  0.00  0.00     0.240 A 
ATOM      2  S   UNL d   1      58.646   0.192  30.732  0.00  0.00    -0.043 SA
ATOM      3  N   UNL d   1      58.968   0.097  29.344  0.00  0.00    -0.199 NA
ATOM      4  C   UNL d   1      59.428   0.373  30.897  0.00  0.00     0.181 A 
ATOM      5  N   UNL d   1      59.998   0.420  30.286  0.00  0.00    -0.236 N 
ATOM      6  C   UNL d   1      59.753   0.279  29.512  0.00  0.00     0.352 A 
ATOM      7  N   UNL d   1      59.816   0.537  31.617  0.00  0.00    -0.219 NA
ATOM      8  O   UNL d   1      60.303   0.322  28.899  0.00  0.00    -0.244 OA
ATOM      9  C   UNL d   1      60.723   0.610  30.630  0.00  0.00     0.107 A 
ATOM     10  C   UNL d   1      60.611   0.682  31.447  0.00  0.00     0.120 A 
ENDROOT
BRANCH   1  11
ATOM     11  C   UNL d   1      58.182  -0.085  29.176  0.00  0.00     0.429 C 
ATOM     12  F   UNL d   1      57.969  -0.209  28.465  0.00  0.00    -0.167 F 
ATOM     13  F   UNL d   1      58.151  -0.820  28.743  0.00  0.00    -0.167 F 
ATOM     14  F   UNL d   1      57.907   0.480  28.589  0.00  0.00    -0.167 F 
ENDBRANCH   1  11
BRANCH   1  15
ATOM     15  C   UNL d   1      57.866   0.012  30.569  0.00  0.00     0.016 A 
ATOM     16  C   UNL d   1      57.751  -0.698  30.963  0.00  0.00    -0.001 A 
ATOM     17  C   UNL d   1      57.203  -0.740  31.578  0.00  0.00    -0.000 A 
ATOM     18  C   UNL d   1      56.770  -0.071  31.799  0.00  0.00    -0.000 A 
ATOM     19  C   UNL d   1      56.892   0.639  31.396  0.00  0.00    -0.000 A 
ATOM     20  C   UNL d   1      56.222  -0.113  32.415  0.00  0.00    -0.000 C 
ATOM     21  C   UNL d   1      57.434   0.680  30.788  0.00  0.00    -0.001 A 
ENDBRANCH   1  15
TORSDOF 2
ENDMDL
MODEL 3
REMARK VINA RESULT:      -2.4      3.430      4.479
REMARK  2 active torsions:
REMARK  status: ('A' for Active; 'I' for Inactive)
REMARK    1  A    between atoms: C_7  and  C_1 
REMARK    2  A    between atoms: C_9  and  C_1 
ROOT
ATOM      1  C   UNL d   1      58.675  -1.174  29.736  0.00  0.00     0.240 A 
ATOM      2  S   UNL d   1      58.800  -0.401  29.992  0.00  0.00    -0.043 SA
ATOM      3  N   UNL d   1      58.064  -1.623  30.061  0.00  0.00    -0.199 NA
ATOM      4  C   UNL d   1      58.315  -0.081  30.570  0.00  0.00     0.181 A 
ATOM      5  N   UNL d   1      57.692  -0.528  30.907  0.00  0.00    -0.236 N 
ATOM      6  C   UNL d   1      57.579  -1.300  30.642  0.00  0.00     0.352 A 
ATOM      7  N   UNL d   1      58.309   0.671  30.932  0.00  0.00    -0.219 NA
ATOM      8  O   UNL d   1      56.969  -1.753  30.964  0.00  0.00    -0.244 OA
ATOM      9  C   UNL d   1      57.314  -0.054  31.465  0.00  0.00     0.107 A 
ATOM     10  C   UNL d   1      57.692   0.682  31.480  0.00  0.00     0.120 A 
ENDROOT
BRANCH   1  11
ATOM     11  C   UNL d   1      58.550  -1.947  29.480  0.00  0.00     0.429 C 
ATOM     12  F   UNL d   1      58.435  -2.652  29.243  0.00  0.00    -0.167 F 
ATOM     13  F   UNL d   1      58.740  -2.683  29.867  0.00  0.00    -0.167 F 
ATOM     14  F   UNL d   1      58.193  -2.218  28.746  0.00  0.00    -0.167 F 
ENDBRANCH   1  11
BRANCH   1  15
ATOM     15  C   UNL d   1      59.284  -0.719  29.416  0.00  0.00     0.016 A 
ATOM     16  C   UNL d   1      59.128  -0.219  28.784  0.00  0.00    -0.001 A 
ATOM     17  C   UNL d   1      59.737   0.236  28.464  0.00  0.00    -0.000 A 
ATOM     18  C   UNL d   1      60.502   0.192  28.775  0.00  0.00    -0.000 A 
ATOM     19  C   UNL d   1      60.648  -0.314  29.411  0.00  0.00    -0.000 A 
ATOM     20  C   UNL d   1      61.110   0.647  28.455  0.00  0.00    -0.000 C 
ATOM     21  C   UNL d   1      60.046  -0.764  29.728  0.00  0.00    -0.001 A 
ENDBRANCH   1  15
TORSDOF 2
ENDMDL
MODEL 4
REMARK VINA RESULT:      -1.7      1.775      3.061
REMARK  2 active torsions:
REMARK  status: ('A' for Active; 'I' for Inactive)
REMARK    1  A    between atoms: C_7  and  C_1 
REMARK    2  A    between atoms: C_9  and  C_1 
ROOT
ATOM      1  C   UNL d   1      56.034  -1.017  32.925  0.00  0.00     0.240 A 
ATOM      2  S   UNL d   1      56.410  -0.305  33.100  0.00  0.00    -0.043 SA
ATOM      3  N   UNL d   1      56.239  -1.436  32.244  0.00  0.00    -0.199 NA
ATOM      4  C   UNL d   1      56.987  -0.016  32.595  0.00  0.00     0.181 A 
ATOM      5  N   UNL d   1      57.203  -0.433  31.902  0.00  0.00    -0.236 N 
ATOM      6  C   UNL d   1      56.819  -1.143  31.739  0.00  0.00     0.352 A 
ATOM      7  N   UNL d   1      57.454   0.675  32.629  0.00  0.00    -0.219 NA
ATOM      8  O   UNL d   1      57.021  -1.565  31.059  0.00  0.00    -0.244 OA
ATOM      9  C   UNL d   1      57.792  -0.000  31.520  0.00  0.00     0.107 A 
ATOM     10  C   UNL d   1      57.946   0.680  31.965  0.00  0.00     0.120 A 
ENDROOT
BRANCH   1  11
ATOM     11  C   UNL d   1      55.658  -1.728  32.750  0.00  0.00     0.429 C 
ATOM     12  F   UNL d   1      55.316  -2.380  32.593  0.00  0.00    -0.167 F 
ATOM     13  F   UNL d   1      55.027  -1.886  32.198  0.00  0.00    -0.167 F 
ATOM     14  F   UNL d   1      55.803  -2.508  33.082  0.00  0.00    -0.167 F 
ENDBRANCH   1  11
BRANCH   1  15
ATOM     15  C   UNL d   1      55.835  -0.592  33.604  0.00  0.00     0.016 A 
ATOM     16  C   UNL d   1      56.294  -0.667  34.279  0.00  0.00    -0.001 A 
ATOM     17  C   UNL d   1      56.094  -0.243  34.957  0.00  0.00    -0.000 A 
ATOM     18  C   UNL d   1      55.436   0.257  34.961  0.00  0.00    -0.000 A 
ATOM     19  C   UNL d   1      54.980   0.326  34.276  0.00  0.00    -0.000 A 
ATOM     20  C   UNL d   1      55.236   0.682  35.639  0.00  0.00    -0.000 C 
ATOM     21  C   UNL d   1      55.177  -0.094  33.604  0.00  0.00    -0.001 A 
ENDBRANCH   1  15
TORSDOF 2
ENDMDL
