MODEL 1
REMARK VINA RESULT:      45.0      0.000      0.000
REMARK  4 active torsions:
REMARK  status: ('A' for Active; 'I' for Inactive)
REMARK    1  A    between atoms: C_7  and  C_1 
REMARK    2  A    between atoms: C_8  and  C_2 
REMARK    3  A    between atoms: C_10  and  C_4 
REMARK    4  A    between atoms: O_13  and  C_7 
ROOT
ATOM      1  C   UNL d   1     -58.604 -98.930 -44.744  0.00  0.00     0.086 A 
ATOM      2  C   UNL d   1     -58.444 -98.931 -43.333  0.00  0.00     0.064 A 
ATOM      3  C   UNL d   1     -59.270 -98.816 -43.239  0.00  0.00     0.205 A 
ATOM      4  C   UNL d   1     -58.127 -98.986 -44.089  0.00  0.00     0.012 A 
ATOM      5  C   UNL d   1     -59.431 -98.816 -44.650  0.00  0.00     0.107 A 
ATOM      6  O   UNL d   1     -59.756 -98.760 -43.903  0.00  0.00    -0.288 OA
ATOM      7  N   UNL d   1     -59.624 -98.756 -42.468  0.00  0.00    -0.121 N 
ATOM      8  C   UNL d   1     -59.951 -98.755 -45.337  0.00  0.00     0.027 C 
ENDROOT
BRANCH   4   9
ATOM      9  C   UNL d   1     -57.330 -99.096 -44.180  0.00  0.00     0.000 A 
ATOM     10  C   UNL d   1     -56.912 -99.543 -43.639  0.00  0.00     0.000 A 
ATOM     11  C   UNL d   1     -56.110 -99.654 -43.731  0.00  0.00     0.000 A 
ATOM     12  C   UNL d   1     -55.712 -99.320 -44.364  0.00  0.00     0.000 A 
ATOM     13  C   UNL d   1     -56.136 -98.867 -44.912  0.00  0.00     0.000 A 
ATOM     14  C   UNL d   1     -56.938 -98.756 -44.821  0.00  0.00     0.000 A 
ENDBRANCH   4   9
BRANCH   2  15
ATOM     15  C   UNL d   1     -57.964 -98.986 -42.657  0.00  0.00     0.126 C 
ATOM     16  N   UNL d   1     -58.302 -98.921 -41.902  0.00  0.00    -0.146 N 
ENDBRANCH   2  15
BRANCH   1  17
ATOM     17  C   UNL d   1     -58.291 -98.985 -45.527  0.00  0.00     0.298 C 
ATOM     18  O   UNL d   1     -57.489 -99.111 -45.639  0.00  0.00    -0.259 OA
BRANCH  17  19
ATOM     19  O   UNL d   1     -58.805 -98.910 -46.169  0.00  0.00    -0.296 OA
ATOM     20  C   UNL d   1     -58.594 -99.204 -46.920  0.00  0.00     0.185 C 
ENDBRANCH  17  19
ENDBRANCH   1  17
TORSDOF 4
ENDMDL
