MODEL 1
REMARK VINA RESULT:      96.9      0.000      0.000
REMARK  3 active torsions:
REMARK  status: ('A' for Active; 'I' for Inactive)
REMARK    1  A    between atoms: N_5  and  C_1 
REMARK    2  A    between atoms: C_9  and  C_2 
REMARK       I    between atoms: C_8  and  N_5 
REMARK    3  A    between atoms: C_13  and  C_8 
ROOT
ATOM      1  C   UNL d   1     -54.894-101.488 -39.291  0.00  0.00     0.156 A 
ATOM      2  C   UNL d   1     -55.002-100.705 -39.537  0.00  0.00     0.091 A 
ATOM      3  N   UNL d   1     -54.819-102.091 -39.855  0.00  0.00    -0.289 N 
ATOM      4  C   UNL d   1     -55.036-100.528 -40.347  0.00  0.00     0.201 A 
ATOM      5  C   UNL d   1     -54.962-101.130 -40.905  0.00  0.00     0.055 A 
ATOM      6  C   UNL d   1     -54.854-101.912 -40.660  0.00  0.00     0.069 A 
ATOM      7  O   UNL d   1     -55.145 -99.746 -40.593  0.00  0.00    -0.286 OA
ATOM      8  C   UNL d   1     -54.711-102.873 -39.609  0.00  0.00     0.101 C 
ATOM      9  C   UNL d   1     -54.997-100.951 -41.710  0.00  0.00     0.005 A 
ATOM     10  C   UNL d   1     -54.780-102.514 -41.218  0.00  0.00     0.018 A 
ATOM     11  C   UNL d   1     -54.921-101.563 -42.274  0.00  0.00     0.000 A 
ATOM     12  C   UNL d   1     -54.814-102.338 -42.030  0.00  0.00     0.002 A 
ENDROOT
BRANCH   1  13
ATOM     13  N   UNL d   1     -54.858-101.676 -38.476  0.00  0.00    -0.190 NA
ATOM     14  C   UNL d   1     -55.460-102.094 -38.092  0.00  0.00     0.280 C 
ATOM     15  O   UNL d   1     -56.116-102.329 -38.534  0.00  0.00    -0.265 OA
BRANCH  14  16
ATOM     16  C   UNL d   1     -55.419-102.276 -37.288  0.00  0.00     0.058 A 
ATOM     17  C   UNL d   1     -54.762-102.032 -36.849  0.00  0.00     0.005 A 
ATOM     18  C   UNL d   1     -54.720-102.214 -36.046  0.00  0.00     0.000 A 
ATOM     19  C   UNL d   1     -55.331-102.638 -35.689  0.00  0.00     0.000 A 
ATOM     20  C   UNL d   1     -55.984-102.879 -36.135  0.00  0.00     0.000 A 
ATOM     21  C   UNL d   1     -56.026-102.696 -36.938  0.00  0.00     0.005 A 
ENDBRANCH  14  16
ENDBRANCH   1  13
BRANCH   2  22
ATOM     22  C   UNL d   1     -55.076-100.103 -38.979  0.00  0.00     0.087 A 
ATOM     23  N   UNL d   1     -55.512-100.232 -38.292  0.00  0.00    -0.244 NA
ATOM     24  C   UNL d   1     -55.587 -99.624 -37.725  0.00  0.00     0.099 A 
ATOM     25  C   UNL d   1     -55.218 -98.888 -37.864  0.00  0.00     0.021 A 
ATOM     26  C   UNL d   1     -54.785 -98.766 -38.551  0.00  0.00     0.003 A 
ATOM     27  C   UNL d   1     -54.713 -99.372 -39.108  0.00  0.00     0.019 A 
ENDBRANCH   2  22
TORSDOF 3
ENDMDL
