MODEL 1
REMARK VINA RESULT:      43.5      0.000      0.000
REMARK  9 active torsions:
REMARK  status: ('A' for Active; 'I' for Inactive)
REMARK    1  A    between atoms: N_2  and  S_1 
REMARK    2  A    between atoms: C_5  and  S_1 
REMARK    3  A    between atoms: C_15  and  C_3 
REMARK       I    between atoms: C_4  and  N_11 
REMARK    4  A    between atoms: C_7  and  C_4 
REMARK       I    between atoms: N_22  and  C_7 
REMARK    5  A    between atoms: N_8  and  C_28 
REMARK    6  A    between atoms: N_11  and  C_15 
REMARK    7  A    between atoms: C_30  and  N_22 
REMARK    8  A    between atoms: C_28  and  C_29 
REMARK    9  A    between atoms: C_29  and  C_30 
ROOT
ATOM      1  N   UNL d   1      13.654  12.362  -4.106  0.00  0.00    -0.207 N 
ATOM      2  C   UNL d   1      13.456  13.060  -4.483  0.00  0.00     0.197 A 
ATOM      3  O   UNL d   1      13.435  12.938  -5.297  0.00  0.00    -0.285 OA
ATOM      4  C   UNL d   1      13.761  11.786  -4.693  0.00  0.00     0.120 A 
ATOM      5  C   UNL d   1      13.626  12.136  -5.434  0.00  0.00     0.144 A 
ENDROOT
BRANCH   2   6
ATOM      6  C   UNL d   1      13.300  13.781  -4.112  0.00  0.00     0.146 C 
BRANCH   6   7
ATOM      7  N   UNL d   1      12.886  14.373  -4.506  0.00  0.00    -0.199 NA
ATOM      8  C   UNL d   1      13.187  15.135  -4.528  0.00  0.00     0.337 C 
ATOM      9  O   UNL d   1      12.773  15.727  -4.922  0.00  0.00    -0.260 OA
BRANCH   8  10
ATOM     10  C   UNL d   1      13.903  15.315  -4.158  0.00  0.00     0.337 C 
ATOM     11  O   UNL d   1      14.612  15.124  -4.531  0.00  0.00    -0.260 OA
ATOM     12  N   UNL d   1      13.913  15.677  -3.433  0.00  0.00    -0.202 NA
BRANCH  12  13
ATOM     13  C   UNL d   1      14.628  15.859  -3.058  0.00  0.00     0.104 C 
BRANCH  13  14
ATOM     14  C   UNL d   1      14.687  16.502  -2.552  0.00  0.00     0.040 C 
BRANCH  14  15
ATOM     15  C   UNL d   1      15.271  16.540  -1.989  0.00  0.00     0.083 C 
BRANCH  15  16
ATOM     16  N   UNL d   1      15.166  16.208  -1.247  0.00  0.00    -0.285 N 
ATOM     17  C   UNL d   1      15.724  15.630  -1.046  0.00  0.00     0.183 A 
ATOM     18  N   UNL d   1      15.550  15.348  -0.291  0.00  0.00    -0.222 NA
ATOM     19  C   UNL d   1      14.880  15.752  -0.020  0.00  0.00     0.120 A 
ATOM     20  C   UNL d   1      14.644  16.281  -0.609  0.00  0.00     0.102 A 
ENDBRANCH  15  16
ENDBRANCH  14  15
ENDBRANCH  13  14
ENDBRANCH  12  13
ENDBRANCH   8  10
ENDBRANCH   6   7
ENDBRANCH   2   6
BRANCH   1  21
ATOM     21  S   UNL d   1      13.734  12.246  -3.298  0.00  0.00     0.273 S 
ATOM     22  O   UNL d   1      14.467  12.617  -3.317  0.00  0.00    -0.200 OA
ATOM     23  O   UNL d   1      13.002  11.875  -3.278  0.00  0.00    -0.200 OA
BRANCH  21  24
ATOM     24  C   UNL d   1      13.814  12.130  -2.489  0.00  0.00     0.104 A 
ATOM     25  C   UNL d   1      13.146  11.931  -2.028  0.00  0.00     0.013 A 
ATOM     26  C   UNL d   1      13.226  11.815  -1.218  0.00  0.00     0.007 A 
ATOM     27  C   UNL d   1      13.973  11.895  -0.856  0.00  0.00     0.035 A 
ATOM     28  C   UNL d   1      14.632  12.091  -1.318  0.00  0.00     0.007 A 
ATOM     29 BR   UNL d   1      14.057  11.779  -0.044  0.00  0.00    -0.049 Br
ATOM     30  C   UNL d   1      14.551  12.207  -2.126  0.00  0.00     0.013 A 
ENDBRANCH  21  24
ENDBRANCH   1  21
TORSDOF 9
ENDMDL
