MODEL 1
REMARK VINA RESULT:      -2.9      0.000      0.000
REMARK  6 active torsions:
REMARK  status: ('A' for Active; 'I' for Inactive)
REMARK    1  A    between atoms: C_3  and  S_1 
REMARK    2  A    between atoms: N_5  and  S_1 
REMARK    3  A    between atoms: S_2  and  N_6 
REMARK    4  A    between atoms: C_4  and  S_2 
REMARK    5  A    between atoms: O_25  and  C_15 
REMARK    6  A    between atoms: O_26  and  C_16 
ROOT
ATOM      1  N   UNL d   1      32.686  20.862 -21.274  0.00  0.00    -0.226 N 
ATOM      2  N   UNL d   1      32.800  19.509 -22.205  0.00  0.00    -0.226 N 
ATOM      3  C   UNL d   1      33.184  20.249 -21.036  0.00  0.00     0.111 A 
ATOM      4  C   UNL d   1      32.303  20.131 -22.434  0.00  0.00     0.111 A 
ATOM      5  C   UNL d   1      33.240  19.568 -21.508  0.00  0.00     0.111 A 
ATOM      6  C   UNL d   1      32.245  20.805 -21.971  0.00  0.00     0.111 A 
ENDROOT
BRANCH   1   7
ATOM      7  S   UNL d   1      32.629  21.548 -20.800  0.00  0.00     0.273 S 
ATOM      8  O   UNL d   1      33.240  22.106 -20.820  0.00  0.00    -0.200 OA
ATOM      9  O   UNL d   1      31.976  21.667 -20.319  0.00  0.00    -0.200 OA
BRANCH   7  10
ATOM     10  C   UNL d   1      32.571  22.225 -20.329  0.00  0.00     0.126 A 
ATOM     11  C   UNL d   1      32.228  22.906 -20.631  0.00  0.00     0.106 A 
ATOM     12  C   UNL d   1      32.173  23.579 -20.154  0.00  0.00     0.025 A 
ATOM     13  C   UNL d   1      32.461  23.565 -19.379  0.00  0.00     0.002 A 
ATOM     14  C   UNL d   1      32.806  22.872 -19.082  0.00  0.00     0.001 A 
ATOM     15  C   UNL d   1      32.863  22.203 -19.551  0.00  0.00     0.015 A 
ATOM     16  C   UNL d   1      33.096  22.859 -18.301  0.00  0.00     0.000 C 
BRANCH  11  17
ATOM     17  O   UNL d   1      31.941  22.922 -21.400  0.00  0.00    -0.327 OA
ATOM     18  C   UNL d   1      32.008  23.612 -21.849  0.00  0.00     0.181 C 
ENDBRANCH  11  17
ENDBRANCH   7  10
ENDBRANCH   1   7
BRANCH   2  19
ATOM     19  S   UNL d   1      32.858  18.830 -22.672  0.00  0.00     0.273 S 
ATOM     20  O   UNL d   1      32.961  18.900 -23.490  0.00  0.00    -0.200 OA
ATOM     21  O   UNL d   1      32.814  18.082 -22.328  0.00  0.00    -0.200 OA
BRANCH  19  22
ATOM     22  C   UNL d   1      32.920  18.169 -23.165  0.00  0.00     0.126 A 
ATOM     23  C   UNL d   1      33.026  18.271 -23.975  0.00  0.00     0.106 A 
ATOM     24  C   UNL d   1      33.087  17.617 -24.463  0.00  0.00     0.025 A 
ATOM     25  C   UNL d   1      33.042  16.857 -24.144  0.00  0.00     0.002 A 
ATOM     26  C   UNL d   1      32.935  16.758 -23.332  0.00  0.00     0.001 A 
ATOM     27  C   UNL d   1      32.874  17.424 -22.845  0.00  0.00     0.015 A 
ATOM     28  C   UNL d   1      32.889  16.008 -23.006  0.00  0.00     0.000 C 
BRANCH  23  29
ATOM     29  O   UNL d   1      33.072  19.030 -24.294  0.00  0.00    -0.327 OA
ATOM     30  C   UNL d   1      33.240  19.130 -25.095  0.00  0.00     0.181 C 
ENDBRANCH  23  29
ENDBRANCH  19  22
ENDBRANCH   2  19
TORSDOF 6
ENDMDL
MODEL 2
REMARK VINA RESULT:      -2.4      1.412      1.814
REMARK  6 active torsions:
REMARK  status: ('A' for Active; 'I' for Inactive)
REMARK    1  A    between atoms: C_3  and  S_1 
REMARK    2  A    between atoms: N_5  and  S_1 
REMARK    3  A    between atoms: S_2  and  N_6 
REMARK    4  A    between atoms: C_4  and  S_2 
REMARK    5  A    between atoms: O_25  and  C_15 
REMARK    6  A    between atoms: O_26  and  C_16 
ROOT
ATOM      1  N   UNL d   1      32.698  20.169 -22.381  0.00  0.00    -0.226 N 
ATOM      2  N   UNL d   1      32.449  18.751 -23.178  0.00  0.00    -0.226 N 
ATOM      3  C   UNL d   1      32.150  20.143 -22.997  0.00  0.00     0.111 A 
ATOM      4  C   UNL d   1      32.996  18.789 -22.558  0.00  0.00     0.111 A 
ATOM      5  C   UNL d   1      32.026  19.426 -23.398  0.00  0.00     0.111 A 
ATOM      6  C   UNL d   1      33.121  19.494 -22.160  0.00  0.00     0.111 A 
ENDROOT
BRANCH   1   7
ATOM      7  S   UNL d   1      32.822  20.891 -21.978  0.00  0.00     0.273 S 
ATOM      8  O   UNL d   1      32.533  20.980 -21.208  0.00  0.00    -0.200 OA
ATOM      9  O   UNL d   1      33.227  21.504 -22.342  0.00  0.00    -0.200 OA
BRANCH   7  10
ATOM     10  C   UNL d   1      32.947  21.606 -21.582  0.00  0.00     0.126 A 
ATOM     11  C   UNL d   1      33.113  22.287 -22.008  0.00  0.00     0.106 A 
ATOM     12  C   UNL d   1      33.236  22.998 -21.605  0.00  0.00     0.025 A 
ATOM     13  C   UNL d   1      33.193  23.022 -20.780  0.00  0.00     0.002 A 
ATOM     14  C   UNL d   1      33.025  22.328 -20.357  0.00  0.00     0.001 A 
ATOM     15  C   UNL d   1      32.902  21.622 -20.752  0.00  0.00     0.015 A 
ATOM     16  C   UNL d   1      32.982  22.354 -19.526  0.00  0.00     0.000 C 
BRANCH  11  17
ATOM     17  O   UNL d   1      33.156  22.265 -22.828  0.00  0.00    -0.327 OA
ATOM     18  C   UNL d   1      33.238  22.968 -23.253  0.00  0.00     0.181 C 
ENDBRANCH  11  17
ENDBRANCH   7  10
ENDBRANCH   1   7
BRANCH   2  19
ATOM     19  S   UNL d   1      32.323  18.039 -23.579  0.00  0.00     0.273 S 
ATOM     20  O   UNL d   1      32.011  17.389 -23.174  0.00  0.00    -0.200 OA
ATOM     21  O   UNL d   1      32.507  17.973 -24.380  0.00  0.00    -0.200 OA
BRANCH  19  22
ATOM     22  C   UNL d   1      32.186  17.314 -23.952  0.00  0.00     0.126 A 
ATOM     23  C   UNL d   1      31.456  17.165 -24.302  0.00  0.00     0.106 A 
ATOM     24  C   UNL d   1      31.320  16.447 -24.671  0.00  0.00     0.025 A 
ATOM     25  C   UNL d   1      31.913  15.875 -24.692  0.00  0.00     0.002 A 
ATOM     26  C   UNL d   1      32.644  16.026 -24.341  0.00  0.00     0.001 A 
ATOM     27  C   UNL d   1      32.774  16.754 -23.970  0.00  0.00     0.015 A 
ATOM     28  C   UNL d   1      33.239  15.465 -24.357  0.00  0.00     0.000 C 
BRANCH  23  29
ATOM     29  O   UNL d   1      30.862  17.738 -24.280  0.00  0.00    -0.327 OA
ATOM     30  C   UNL d   1      30.155  17.612 -24.686  0.00  0.00     0.181 C 
ENDBRANCH  23  29
ENDBRANCH  19  22
ENDBRANCH   2  19
TORSDOF 6
ENDMDL
MODEL 3
REMARK VINA RESULT:      -2.3      1.395      5.589
REMARK  6 active torsions:
REMARK  status: ('A' for Active; 'I' for Inactive)
REMARK    1  A    between atoms: C_3  and  S_1 
REMARK    2  A    between atoms: N_5  and  S_1 
REMARK    3  A    between atoms: S_2  and  N_6 
REMARK    4  A    between atoms: C_4  and  S_2 
REMARK    5  A    between atoms: O_25  and  C_15 
REMARK    6  A    between atoms: O_26  and  C_16 
ROOT
ATOM      1  N   UNL d   1      32.442  18.554 -22.964  0.00  0.00    -0.226 N 
ATOM      2  N   UNL d   1      32.721  19.962 -22.159  0.00  0.00    -0.226 N 
ATOM      3  C   UNL d   1      32.885  18.540 -22.268  0.00  0.00     0.111 A 
ATOM      4  C   UNL d   1      32.279  19.964 -22.858  0.00  0.00     0.111 A 
ATOM      5  C   UNL d   1      33.024  19.252 -21.863  0.00  0.00     0.111 A 
ATOM      6  C   UNL d   1      32.139  19.264 -23.260  0.00  0.00     0.111 A 
ENDROOT
BRANCH   1   7
ATOM      7  S   UNL d   1      32.302  17.838 -23.371  0.00  0.00     0.273 S 
ATOM      8  O   UNL d   1      32.195  17.852 -24.192  0.00  0.00    -0.200 OA
ATOM      9  O   UNL d   1      32.270  17.128 -22.962  0.00  0.00    -0.200 OA
BRANCH   7  10
ATOM     10  C   UNL d   1      32.163  17.127 -23.771  0.00  0.00     0.126 A 
ATOM     11  C   UNL d   1      31.435  16.757 -23.708  0.00  0.00     0.106 A 
ATOM     12  C   UNL d   1      31.303  16.046 -24.110  0.00  0.00     0.025 A 
ATOM     13  C   UNL d   1      31.903  15.713 -24.572  0.00  0.00     0.002 A 
ATOM     14  C   UNL d   1      32.637  16.095 -24.630  0.00  0.00     0.001 A 
ATOM     15  C   UNL d   1      32.771  16.798 -24.233  0.00  0.00     0.015 A 
ATOM     16  C   UNL d   1      33.240  15.758 -25.096  0.00  0.00     0.000 C 
BRANCH  11  17
ATOM     17  O   UNL d   1      30.838  17.086 -23.249  0.00  0.00    -0.327 OA
ATOM     18  C   UNL d   1      30.052  16.869 -23.381  0.00  0.00     0.181 C 
ENDBRANCH  11  17
ENDBRANCH   7  10
ENDBRANCH   1   7
BRANCH   2  19
ATOM     19  S   UNL d   1      32.862  20.669 -21.753  0.00  0.00     0.273 S 
ATOM     20  O   UNL d   1      32.630  21.388 -22.089  0.00  0.00    -0.200 OA
ATOM     21  O   UNL d   1      33.232  20.661 -21.017  0.00  0.00    -0.200 OA
BRANCH  19  22
ATOM     22  C   UNL d   1      32.989  21.392 -21.373  0.00  0.00     0.126 A 
ATOM     23  C   UNL d   1      33.068  22.080 -21.817  0.00  0.00     0.106 A 
ATOM     24  C   UNL d   1      33.194  22.796 -21.440  0.00  0.00     0.025 A 
ATOM     25  C   UNL d   1      33.241  22.827 -20.617  0.00  0.00     0.002 A 
ATOM     26  C   UNL d   1      33.161  22.136 -20.175  0.00  0.00     0.001 A 
ATOM     27  C   UNL d   1      33.034  21.416 -20.562  0.00  0.00     0.015 A 
ATOM     28  C   UNL d   1      33.206  22.156 -19.357  0.00  0.00     0.000 C 
BRANCH  23  29
ATOM     29  O   UNL d   1      33.022  22.049 -22.640  0.00  0.00    -0.327 OA
ATOM     30  C   UNL d   1      33.217  22.713 -23.088  0.00  0.00     0.181 C 
ENDBRANCH  23  29
ENDBRANCH  19  22
ENDBRANCH   2  19
TORSDOF 6
ENDMDL
MODEL 4
REMARK VINA RESULT:      -1.5      0.818      5.465
REMARK  6 active torsions:
REMARK  status: ('A' for Active; 'I' for Inactive)
REMARK    1  A    between atoms: C_3  and  S_1 
REMARK    2  A    between atoms: N_5  and  S_1 
REMARK    3  A    between atoms: S_2  and  N_6 
REMARK    4  A    between atoms: C_4  and  S_2 
REMARK    5  A    between atoms: O_25  and  C_15 
REMARK    6  A    between atoms: O_26  and  C_16 
ROOT
ATOM      1  N   UNL d   1      32.477  19.488 -22.460  0.00  0.00    -0.226 N 
ATOM      2  N   UNL d   1      32.527  20.883 -21.588  0.00  0.00    -0.226 N 
ATOM      3  C   UNL d   1      33.181  19.918 -22.425  0.00  0.00     0.111 A 
ATOM      4  C   UNL d   1      31.827  20.444 -21.629  0.00  0.00     0.111 A 
ATOM      5  C   UNL d   1      33.203  20.622 -21.985  0.00  0.00     0.111 A 
ATOM      6  C   UNL d   1      31.800  19.749 -22.063  0.00  0.00     0.111 A 
ENDROOT
BRANCH   1   7
ATOM      7  S   UNL d   1      32.455  18.780 -22.903  0.00  0.00     0.273 S 
ATOM      8  O   UNL d   1      32.438  18.054 -22.507  0.00  0.00    -0.200 OA
ATOM      9  O   UNL d   1      32.450  18.805 -23.723  0.00  0.00    -0.200 OA
BRANCH   7  10
ATOM     10  C   UNL d   1      32.433  18.081 -23.345  0.00  0.00     0.126 A 
ATOM     11  C   UNL d   1      32.010  18.054 -24.047  0.00  0.00     0.106 A 
ATOM     12  C   UNL d   1      31.992  17.351 -24.483  0.00  0.00     0.025 A 
ATOM     13  C   UNL d   1      32.399  16.684 -24.213  0.00  0.00     0.002 A 
ATOM     14  C   UNL d   1      32.824  16.721 -23.502  0.00  0.00     0.001 A 
ATOM     15  C   UNL d   1      32.844  17.414 -23.068  0.00  0.00     0.015 A 
ATOM     16  C   UNL d   1      33.233  16.048 -23.232  0.00  0.00     0.000 C 
BRANCH  11  17
ATOM     17  O   UNL d   1      31.605  18.716 -24.316  0.00  0.00    -0.327 OA
ATOM     18  C   UNL d   1      31.149  18.667 -25.003  0.00  0.00     0.181 C 
ENDBRANCH  11  17
ENDBRANCH   7  10
ENDBRANCH   1   7
BRANCH   2  19
ATOM     19  S   UNL d   1      32.553  21.584 -21.150  0.00  0.00     0.273 S 
ATOM     20  O   UNL d   1      31.885  22.070 -21.112  0.00  0.00    -0.200 OA
ATOM     21  O   UNL d   1      33.241  21.802 -20.751  0.00  0.00    -0.200 OA
BRANCH  19  22
ATOM     22  C   UNL d   1      32.548  22.291 -20.721  0.00  0.00     0.126 A 
ATOM     23  C   UNL d   1      32.708  23.002 -21.102  0.00  0.00     0.106 A 
ATOM     24  C   UNL d   1      32.703  23.702 -20.677  0.00  0.00     0.025 A 
ATOM     25  C   UNL d   1      32.538  23.694 -19.869  0.00  0.00     0.002 A 
ATOM     26  C   UNL d   1      32.377  22.979 -19.490  0.00  0.00     0.001 A 
ATOM     27  C   UNL d   1      32.384  22.276 -19.926  0.00  0.00     0.015 A 
ATOM     28  C   UNL d   1      32.212  22.960 -18.688  0.00  0.00     0.000 C 
BRANCH  23  29
ATOM     29  O   UNL d   1      32.874  23.011 -21.910  0.00  0.00    -0.327 OA
ATOM     30  C   UNL d   1      33.162  23.698 -22.264  0.00  0.00     0.181 C 
ENDBRANCH  23  29
ENDBRANCH  19  22
ENDBRANCH   2  19
TORSDOF 6
ENDMDL
