MODEL 1
REMARK VINA RESULT:      42.6      0.000      0.000
REMARK  3 active torsions:
REMARK  status: ('A' for Active; 'I' for Inactive)
REMARK    1  A    between atoms: C_2  and  C_1 
REMARK    2  A    between atoms: N_5  and  C_2 
REMARK    3  A    between atoms: C_9  and  C_4 
ROOT
ATOM      1  C   UNL d   1      57.657  49.481  51.372  0.00  0.00     0.126 A 
ATOM      2  O   UNL d   1      58.327  49.361  50.907  0.00  0.00    -0.305 OA
ATOM      3  C   UNL d   1      58.987  49.502  51.384  0.00  0.00     0.100 A 
ATOM      4  C   UNL d   1      57.908  49.695  52.131  0.00  0.00     0.029 A 
ATOM      5  C   UNL d   1      58.719  49.708  52.139  0.00  0.00     0.027 A 
ENDROOT
BRANCH   1   6
ATOM      6  C   UNL d   1      56.861  49.422  51.195  0.00  0.00     0.143 C 
ATOM      7  S   UNL d   1      56.298  49.591  51.773  0.00  0.00    -0.057 SA
BRANCH   6   8
ATOM      8  N   UNL d   1      56.618  49.195  50.444  0.00  0.00    -0.290 N 
ATOM      9  C   UNL d   1      56.708  49.705  49.801  0.00  0.00     0.108 A 
ATOM     10  C   UNL d   1      56.462  49.472  49.047  0.00  0.00     0.142 A 
ATOM     11  O   UNL d   1      56.126  48.726  48.946  0.00  0.00    -0.300 OA
ATOM     12  C   UNL d   1      56.036  48.215  49.587  0.00  0.00     0.142 A 
ATOM     13  C   UNL d   1      56.283  48.454  50.332  0.00  0.00     0.108 A 
ENDBRANCH   6   8
ENDBRANCH   1   6
BRANCH   3  14
ATOM     14  C   UNL d   1      59.764  49.445  51.145  0.00  0.00     0.023 A 
ATOM     15  C   UNL d   1      60.325  49.122  51.656  0.00  0.00     0.003 A 
ATOM     16  C   UNL d   1      61.106  49.061  51.424  0.00  0.00     0.007 A 
ATOM     17  C   UNL d   1      61.343  49.323  50.676  0.00  0.00     0.035 A 
ATOM     18  C   UNL d   1      60.781  49.648  50.161  0.00  0.00     0.007 A 
ATOM     19 BR   UNL d   1      62.132  49.262  50.443  0.00  0.00    -0.049 Br
ATOM     20  C   UNL d   1      60.004  49.708  50.392  0.00  0.00     0.003 A 
ENDBRANCH   3  14
TORSDOF 3
ENDMDL
