MODEL 1
REMARK VINA RESULT:      13.9      0.000      0.000
REMARK  1 active torsions:
REMARK  status: ('A' for Active; 'I' for Inactive)
REMARK    1  A    between atoms: C_8  and  C_3 
ROOT
ATOM      1  C   UNL d   1      46.435 -19.664  42.509  0.00  0.00     0.199 A 
ATOM      2  C   UNL d   1      46.567 -18.405  42.961  0.00  0.00     0.199 A 
ATOM      3  C   UNL d   1      46.501 -18.879  42.281  0.00  0.00     0.078 A 
ATOM      4  C   UNL d   1      46.456 -19.709  43.331  0.00  0.00     0.042 A 
ATOM      5  C   UNL d   1      46.538 -18.929  43.611  0.00  0.00     0.042 A 
ATOM      6  O   UNL d   1      46.647 -17.557  42.979  0.00  0.00    -0.286 OA
ATOM      7  O   UNL d   1      46.356 -20.330  41.985  0.00  0.00    -0.286 OA
ATOM      8  C   UNL d   1      46.578 -18.773  44.420  0.00  0.00     0.003 A 
ATOM      9  C   UNL d   1      46.415 -20.328  43.862  0.00  0.00     0.003 A 
ATOM     10  C   UNL d   1      46.535 -19.410  44.954  0.00  0.00     0.000 A 
ATOM     11  C   UNL d   1      46.453 -20.190  44.674  0.00  0.00     0.000 A 
ENDROOT
BRANCH   3  12
ATOM     12  C   UNL d   1      46.501 -18.624  41.497  0.00  0.00     0.009 A 
ATOM     13  C   UNL d   1      46.352 -17.832  41.326  0.00  0.00     0.021 A 
ATOM     14  C   UNL d   1      46.351 -17.580  40.548  0.00  0.00     0.099 A 
ATOM     15  N   UNL d   1      46.494 -18.082  39.921  0.00  0.00    -0.242 NA
ATOM     16  C   UNL d   1      46.645 -18.890  40.113  0.00  0.00     0.099 A 
ATOM     17  C   UNL d   1      46.645 -19.145  40.898  0.00  0.00     0.021 A 
ENDBRANCH   3  12
TORSDOF 1
ENDMDL
MODEL 2
REMARK VINA RESULT:      16.2      7.061      7.515
REMARK  1 active torsions:
REMARK  status: ('A' for Active; 'I' for Inactive)
REMARK    1  A    between atoms: C_8  and  C_3 
ROOT
ATOM      1  C   UNL d   1      44.085 -16.112  36.535  0.00  0.00     0.199 A 
ATOM      2  C   UNL d   1      43.612 -14.889  36.831  0.00  0.00     0.199 A 
ATOM      3  C   UNL d   1      44.300 -15.346  36.735  0.00  0.00     0.078 A 
ATOM      4  C   UNL d   1      43.264 -16.162  36.499  0.00  0.00     0.042 A 
ATOM      5  C   UNL d   1      42.970 -15.404  36.683  0.00  0.00     0.042 A 
ATOM      6  O   UNL d   1      43.579 -14.064  37.040  0.00  0.00    -0.286 OA
ATOM      7  O   UNL d   1      44.621 -16.757  36.386  0.00  0.00    -0.286 OA
ATOM      8  C   UNL d   1      42.159 -15.259  36.697  0.00  0.00     0.003 A 
ATOM      9  C   UNL d   1      42.743 -16.769  36.330  0.00  0.00     0.003 A 
ATOM     10  C   UNL d   1      41.636 -15.882  36.524  0.00  0.00     0.000 A 
ATOM     11  C   UNL d   1      41.930 -16.640  36.340  0.00  0.00     0.000 A 
ENDROOT
BRANCH   3  12
ATOM     12  C   UNL d   1      45.080 -15.093  36.821  0.00  0.00     0.009 A 
ATOM     13  C   UNL d   1      45.260 -14.512  37.378  0.00  0.00     0.021 A 
ATOM     14  C   UNL d   1      46.033 -14.261  37.463  0.00  0.00     0.099 A 
ATOM     15  N   UNL d   1      46.647 -14.562  37.017  0.00  0.00    -0.242 NA
ATOM     16  C   UNL d   1      46.445 -15.155  36.452  0.00  0.00     0.099 A 
ATOM     17  C   UNL d   1      45.664 -15.409  36.366  0.00  0.00     0.021 A 
ENDBRANCH   3  12
TORSDOF 1
ENDMDL
MODEL 3
REMARK VINA RESULT:      16.5      0.591      1.424
REMARK  1 active torsions:
REMARK  status: ('A' for Active; 'I' for Inactive)
REMARK    1  A    between atoms: C_8  and  C_3 
ROOT
ATOM      1  C   UNL d   1      46.072 -18.358  42.920  0.00  0.00     0.199 A 
ATOM      2  C   UNL d   1      46.262 -19.628  42.522  0.00  0.00     0.199 A 
ATOM      3  C   UNL d   1      46.093 -18.855  42.267  0.00  0.00     0.078 A 
ATOM      4  C   UNL d   1      46.224 -18.798  43.599  0.00  0.00     0.042 A 
ATOM      5  C   UNL d   1      46.342 -19.585  43.353  0.00  0.00     0.042 A 
ATOM      6  O   UNL d   1      46.335 -20.318  42.028  0.00  0.00    -0.286 OA
ATOM      7  O   UNL d   1      45.917 -17.521  42.903  0.00  0.00    -0.286 OA
ATOM      8  C   UNL d   1      46.508 -20.178  43.901  0.00  0.00     0.003 A 
ATOM      9  C   UNL d   1      46.274 -18.609  44.392  0.00  0.00     0.003 A 
ATOM     10  C   UNL d   1      46.557 -19.977  44.707  0.00  0.00     0.000 A 
ATOM     11  C   UNL d   1      46.440 -19.190  44.953  0.00  0.00     0.000 A 
ENDROOT
BRANCH   3  12
ATOM     12  C   UNL d   1      45.965 -18.605  41.492  0.00  0.00     0.009 A 
ATOM     13  C   UNL d   1      45.245 -18.259  41.289  0.00  0.00     0.021 A 
ATOM     14  C   UNL d   1      45.118 -18.012  40.521  0.00  0.00     0.099 A 
ATOM     15  N   UNL d   1      45.680 -18.090  39.933  0.00  0.00    -0.242 NA
ATOM     16  C   UNL d   1      46.411 -18.446  40.158  0.00  0.00     0.099 A 
ATOM     17  C   UNL d   1      46.539 -18.696  40.934  0.00  0.00     0.021 A 
ENDBRANCH   3  12
TORSDOF 1
ENDMDL
