MODEL 1
REMARK VINA RESULT:      -3.2      0.000      0.000
REMARK  4 active torsions:
REMARK  status: ('A' for Active; 'I' for Inactive)
REMARK    1  A    between atoms: N_7  and  C_1 
REMARK    2  A    between atoms: C_12  and  N_4 
REMARK    3  A    between atoms: S_6  and  N_7 
REMARK    4  A    between atoms: C_11  and  S_6 
ROOT
ATOM      1  C   UNL d   1      31.312  16.707 -24.536  0.00  0.00     0.169 A 
ATOM      2  C   UNL d   1      31.469  17.520 -24.466  0.00  0.00     0.299 A 
ATOM      3  N   UNL d   1      32.492  16.855 -23.925  0.00  0.00    -0.238 N 
ATOM      4  N   UNL d   1      32.186  17.613 -24.095  0.00  0.00    -0.209 N 
ATOM      5  C   UNL d   1      31.909  16.302 -24.220  0.00  0.00     0.105 A 
ATOM      6  O   UNL d   1      30.961  18.139 -24.738  0.00  0.00    -0.263 OA
ATOM      7  C   UNL d   1      33.202  16.686 -23.554  0.00  0.00     0.120 C 
ATOM      8  C   UNL d   1      31.959  15.453 -24.182  0.00  0.00     0.022 C 
ENDROOT
BRANCH   1   9
ATOM      9  N   UNL d   1      30.616  16.347 -24.892  0.00  0.00    -0.152 NA
BRANCH   9  10
ATOM     10  S   UNL d   1      29.902  16.310 -24.485  0.00  0.00     0.285 S 
ATOM     11  O   UNL d   1      29.666  17.018 -24.832  0.00  0.00    -0.198 OA
ATOM     12  O   UNL d   1      30.149  15.575 -24.124  0.00  0.00    -0.198 OA
BRANCH  10  13
ATOM     13  C   UNL d   1      29.191  16.263 -24.072  0.00  0.00     0.105 A 
ATOM     14  C   UNL d   1      28.790  16.956 -23.845  0.00  0.00     0.013 A 
ATOM     15  C   UNL d   1      28.070  16.918 -23.427  0.00  0.00     0.001 A 
ATOM     16  C   UNL d   1      27.764  16.186 -23.243  0.00  0.00     0.000 A 
ATOM     17  C   UNL d   1      28.168  15.473 -23.471  0.00  0.00     0.001 A 
ATOM     18  C   UNL d   1      28.861  15.511 -23.874  0.00  0.00     0.013 A 
ENDBRANCH  10  13
ENDBRANCH   9  10
ENDBRANCH   1   9
BRANCH   4  19
ATOM     19  C   UNL d   1      32.536  18.341 -23.924  0.00  0.00     0.085 A 
ATOM     20  C   UNL d   1      32.890  18.791 -24.517  0.00  0.00     0.019 A 
ATOM     21  C   UNL d   1      33.241  19.524 -24.343  0.00  0.00     0.002 A 
ATOM     22  C   UNL d   1      33.238  19.802 -23.582  0.00  0.00     0.000 A 
ATOM     23  C   UNL d   1      32.886  19.355 -22.993  0.00  0.00     0.002 A 
ATOM     24  C   UNL d   1      32.536  18.629 -23.157  0.00  0.00     0.019 A 
ENDBRANCH   4  19
TORSDOF 4
ENDMDL
MODEL 2
REMARK VINA RESULT:      -2.9      1.515      4.186
REMARK  4 active torsions:
REMARK  status: ('A' for Active; 'I' for Inactive)
REMARK    1  A    between atoms: N_7  and  C_1 
REMARK    2  A    between atoms: C_12  and  N_4 
REMARK    3  A    between atoms: S_6  and  N_7 
REMARK    4  A    between atoms: C_11  and  S_6 
ROOT
ATOM      1  C   UNL d   1      32.389  17.304 -23.845  0.00  0.00     0.169 A 
ATOM      2  C   UNL d   1      31.659  17.440 -24.219  0.00  0.00     0.299 A 
ATOM      3  N   UNL d   1      31.573  16.286 -23.553  0.00  0.00    -0.238 N 
ATOM      4  N   UNL d   1      31.161  16.823 -24.043  0.00  0.00    -0.209 N 
ATOM      5  C   UNL d   1      32.351  16.625 -23.448  0.00  0.00     0.105 A 
ATOM      6  O   UNL d   1      31.475  18.111 -24.699  0.00  0.00    -0.263 OA
ATOM      7  C   UNL d   1      31.284  15.585 -23.243  0.00  0.00     0.120 C 
ATOM      8  C   UNL d   1      32.987  16.290 -22.991  0.00  0.00     0.022 C 
ENDROOT
BRANCH   1   9
ATOM      9  N   UNL d   1      33.084  17.812 -23.875  0.00  0.00    -0.152 NA
BRANCH   9  10
ATOM     10  S   UNL d   1      33.123  18.504 -23.432  0.00  0.00     0.285 S 
ATOM     11  O   UNL d   1      33.134  18.948 -24.125  0.00  0.00    -0.198 OA
ATOM     12  O   UNL d   1      33.111  18.041 -22.713  0.00  0.00    -0.198 OA
BRANCH  10  13
ATOM     13  C   UNL d   1      33.162  19.190 -22.979  0.00  0.00     0.105 A 
ATOM     14  C   UNL d   1      33.201  19.145 -22.150  0.00  0.00     0.013 A 
ATOM     15  C   UNL d   1      33.241  19.834 -21.682  0.00  0.00     0.001 A 
ATOM     16  C   UNL d   1      33.240  20.558 -22.056  0.00  0.00     0.000 A 
ATOM     17  C   UNL d   1      33.199  20.613 -22.903  0.00  0.00     0.001 A 
ATOM     18  C   UNL d   1      33.161  19.949 -23.352  0.00  0.00     0.013 A 
ENDBRANCH  10  13
ENDBRANCH   9  10
ENDBRANCH   1   9
BRANCH   4  19
ATOM     19  C   UNL d   1      30.383  16.755 -24.312  0.00  0.00     0.085 A 
ATOM     20  C   UNL d   1      29.801  17.284 -24.064  0.00  0.00     0.019 A 
ATOM     21  C   UNL d   1      29.019  17.214 -24.336  0.00  0.00     0.002 A 
ATOM     22  C   UNL d   1      28.822  16.620 -24.850  0.00  0.00     0.000 A 
ATOM     23  C   UNL d   1      29.401  16.095 -25.097  0.00  0.00     0.002 A 
ATOM     24  C   UNL d   1      30.177  16.157 -24.832  0.00  0.00     0.019 A 
ENDBRANCH   4  19
TORSDOF 4
ENDMDL
MODEL 3
REMARK VINA RESULT:      -1.9      2.016      4.562
REMARK  4 active torsions:
REMARK  status: ('A' for Active; 'I' for Inactive)
REMARK    1  A    between atoms: N_7  and  C_1 
REMARK    2  A    between atoms: C_12  and  N_4 
REMARK    3  A    between atoms: S_6  and  N_7 
REMARK    4  A    between atoms: C_11  and  S_6 
ROOT
ATOM      1  C   UNL d   1      32.609  18.638 -23.820  0.00  0.00     0.169 A 
ATOM      2  C   UNL d   1      32.387  17.912 -23.482  0.00  0.00     0.299 A 
ATOM      3  N   UNL d   1      31.591  18.142 -24.529  0.00  0.00    -0.238 N 
ATOM      4  N   UNL d   1      31.767  17.609 -23.912  0.00  0.00    -0.209 N 
ATOM      5  C   UNL d   1      32.147  18.786 -24.440  0.00  0.00     0.105 A 
ATOM      6  O   UNL d   1      32.749  17.558 -22.805  0.00  0.00    -0.263 OA
ATOM      7  C   UNL d   1      31.006  18.058 -25.097  0.00  0.00     0.120 C 
ATOM      8  C   UNL d   1      32.198  19.477 -24.936  0.00  0.00     0.022 C 
ENDROOT
BRANCH   1   9
ATOM      9  N   UNL d   1      33.241  19.158 -23.550  0.00  0.00    -0.152 NA
BRANCH   9  10
ATOM     10  S   UNL d   1      33.119  19.687 -22.931  0.00  0.00     0.285 S 
ATOM     11  O   UNL d   1      33.115  19.061 -22.396  0.00  0.00    -0.198 OA
ATOM     12  O   UNL d   1      33.123  20.336 -23.488  0.00  0.00    -0.198 OA
BRANCH  10  13
ATOM     13  C   UNL d   1      32.997  20.224 -22.319  0.00  0.00     0.105 A 
ATOM     14  C   UNL d   1      32.887  19.956 -21.540  0.00  0.00     0.013 A 
ATOM     15  C   UNL d   1      32.763  20.493 -20.914  0.00  0.00     0.001 A 
ATOM     16  C   UNL d   1      32.752  21.290 -21.081  0.00  0.00     0.000 A 
ATOM     17  C   UNL d   1      32.865  21.572 -21.875  0.00  0.00     0.001 A 
ATOM     18  C   UNL d   1      32.984  21.054 -22.477  0.00  0.00     0.013 A 
ENDBRANCH  10  13
ENDBRANCH   9  10
ENDBRANCH   1   9
BRANCH   4  19
ATOM     19  C   UNL d   1      31.390  16.892 -23.749  0.00  0.00     0.085 A 
ATOM     20  C   UNL d   1      31.749  16.173 -23.932  0.00  0.00     0.019 A 
ATOM     21  C   UNL d   1      31.368  15.453 -23.768  0.00  0.00     0.002 A 
ATOM     22  C   UNL d   1      30.634  15.454 -23.425  0.00  0.00     0.000 A 
ATOM     23  C   UNL d   1      30.277  16.169 -23.244  0.00  0.00     0.002 A 
ATOM     24  C   UNL d   1      30.648  16.885 -23.403  0.00  0.00     0.019 A 
ENDBRANCH   4  19
TORSDOF 4
ENDMDL
MODEL 4
REMARK VINA RESULT:      -1.7      1.746      3.002
REMARK  4 active torsions:
REMARK  status: ('A' for Active; 'I' for Inactive)
REMARK    1  A    between atoms: N_7  and  C_1 
REMARK    2  A    between atoms: C_12  and  N_4 
REMARK    3  A    between atoms: S_6  and  N_7 
REMARK    4  A    between atoms: C_11  and  S_6 
ROOT
ATOM      1  C   UNL d   1      33.126  18.704 -23.786  0.00  0.00     0.169 A 
ATOM      2  C   UNL d   1      33.087  18.939 -22.990  0.00  0.00     0.299 A 
ATOM      3  N   UNL d   1      33.188  20.039 -23.741  0.00  0.00    -0.238 N 
ATOM      4  N   UNL d   1      33.125  19.751 -22.959  0.00  0.00    -0.209 N 
ATOM      5  C   UNL d   1      33.186  19.345 -24.241  0.00  0.00     0.105 A 
ATOM      6  O   UNL d   1      33.020  18.415 -22.330  0.00  0.00    -0.263 OA
ATOM      7  C   UNL d   1      33.241  20.824 -23.970  0.00  0.00     0.120 C 
ATOM      8  C   UNL d   1      33.239  19.339 -25.091  0.00  0.00     0.022 C 
ENDROOT
BRANCH   1   9
ATOM      9  N   UNL d   1      33.105  17.897 -24.086  0.00  0.00    -0.152 NA
BRANCH   9  10
ATOM     10  S   UNL d   1      32.395  17.484 -24.142  0.00  0.00     0.285 S 
ATOM     11  O   UNL d   1      32.161  17.969 -24.764  0.00  0.00    -0.198 OA
ATOM     12  O   UNL d   1      32.641  16.981 -23.495  0.00  0.00    -0.198 OA
BRANCH  10  13
ATOM     13  C   UNL d   1      31.689  17.064 -24.189  0.00  0.00     0.105 A 
ATOM     14  C   UNL d   1      31.568  16.390 -23.717  0.00  0.00     0.013 A 
ATOM     15  C   UNL d   1      30.856  15.958 -23.757  0.00  0.00     0.001 A 
ATOM     16  C   UNL d   1      30.277  16.210 -24.272  0.00  0.00     0.000 A 
ATOM     17  C   UNL d   1      30.393  16.898 -24.758  0.00  0.00     0.001 A 
ATOM     18  C   UNL d   1      31.078  17.313 -24.718  0.00  0.00     0.013 A 
ENDBRANCH  10  13
ENDBRANCH   9  10
ENDBRANCH   1   9
BRANCH   4  19
ATOM     19  C   UNL d   1      33.103  20.196 -22.264  0.00  0.00     0.085 A 
ATOM     20  C   UNL d   1      32.947  21.006 -22.284  0.00  0.00     0.019 A 
ATOM     21  C   UNL d   1      32.926  21.452 -21.584  0.00  0.00     0.002 A 
ATOM     22  C   UNL d   1      33.059  21.092 -20.871  0.00  0.00     0.000 A 
ATOM     23  C   UNL d   1      33.213  20.287 -20.851  0.00  0.00     0.002 A 
ATOM     24  C   UNL d   1      33.236  19.838 -21.540  0.00  0.00     0.019 A 
ENDBRANCH   4  19
TORSDOF 4
ENDMDL
MODEL 5
REMARK VINA RESULT:      -1.3      1.210      4.312
REMARK  4 active torsions:
REMARK  status: ('A' for Active; 'I' for Inactive)
REMARK    1  A    between atoms: N_7  and  C_1 
REMARK    2  A    between atoms: C_12  and  N_4 
REMARK    3  A    between atoms: S_6  and  N_7 
REMARK    4  A    between atoms: C_11  and  S_6 
ROOT
ATOM      1  C   UNL d   1      31.095  17.320 -24.344  0.00  0.00     0.169 A 
ATOM      2  C   UNL d   1      30.601  16.712 -24.067  0.00  0.00     0.299 A 
ATOM      3  N   UNL d   1      29.841  17.598 -24.715  0.00  0.00    -0.238 N 
ATOM      4  N   UNL d   1      29.838  16.878 -24.290  0.00  0.00    -0.209 N 
ATOM      5  C   UNL d   1      30.658  17.851 -24.729  0.00  0.00     0.105 A 
ATOM      6  O   UNL d   1      30.859  16.038 -23.626  0.00  0.00    -0.263 OA
ATOM      7  C   UNL d   1      29.192  17.975 -25.043  0.00  0.00     0.120 C 
ATOM      8  C   UNL d   1      30.958  18.558 -25.097  0.00  0.00     0.022 C 
ENDROOT
BRANCH   1   9
ATOM      9  N   UNL d   1      31.948  17.378 -24.238  0.00  0.00    -0.152 NA
BRANCH   9  10
ATOM     10  S   UNL d   1      32.273  17.922 -23.713  0.00  0.00     0.285 S 
ATOM     11  O   UNL d   1      32.480  18.409 -24.343  0.00  0.00    -0.198 OA
ATOM     12  O   UNL d   1      32.057  17.414 -23.059  0.00  0.00    -0.198 OA
BRANCH  10  13
ATOM     13  C   UNL d   1      32.596  18.458 -23.179  0.00  0.00     0.105 A 
ATOM     14  C   UNL d   1      32.607  19.271 -23.354  0.00  0.00     0.013 A 
ATOM     15  C   UNL d   1      32.932  19.822 -22.819  0.00  0.00     0.001 A 
ATOM     16  C   UNL d   1      33.240  19.548 -22.116  0.00  0.00     0.000 A 
ATOM     17  C   UNL d   1      33.232  18.718 -21.929  0.00  0.00     0.001 A 
ATOM     18  C   UNL d   1      32.919  18.189 -22.445  0.00  0.00     0.013 A 
ENDBRANCH  10  13
ENDBRANCH   9  10
ENDBRANCH   1   9
BRANCH   4  19
ATOM     19  C   UNL d   1      29.184  16.404 -24.118  0.00  0.00     0.085 A 
ATOM     20  C   UNL d   1      28.812  15.964 -24.709  0.00  0.00     0.019 A 
ATOM     21  C   UNL d   1      28.154  15.488 -24.534  0.00  0.00     0.002 A 
ATOM     22  C   UNL d   1      27.871  15.453 -23.776  0.00  0.00     0.000 A 
ATOM     23  C   UNL d   1      28.241  15.890 -23.189  0.00  0.00     0.002 A 
ATOM     24  C   UNL d   1      28.893  16.364 -23.355  0.00  0.00     0.019 A 
ENDBRANCH   4  19
TORSDOF 4
ENDMDL
MODEL 6
REMARK VINA RESULT:      -0.7      2.022      3.348
REMARK  4 active torsions:
REMARK  status: ('A' for Active; 'I' for Inactive)
REMARK    1  A    between atoms: N_7  and  C_1 
REMARK    2  A    between atoms: C_12  and  N_4 
REMARK    3  A    between atoms: S_6  and  N_7 
REMARK    4  A    between atoms: C_11  and  S_6 
ROOT
ATOM      1  C   UNL d   1      33.183  19.084 -23.272  0.00  0.00     0.169 A 
ATOM      2  C   UNL d   1      33.163  19.874 -23.528  0.00  0.00     0.299 A 
ATOM      3  N   UNL d   1      33.211  19.874 -22.193  0.00  0.00    -0.238 N 
ATOM      4  N   UNL d   1      33.181  20.357 -22.875  0.00  0.00    -0.209 N 
ATOM      5  C   UNL d   1      33.211  19.070 -22.484  0.00  0.00     0.105 A 
ATOM      6  O   UNL d   1      33.131  20.123 -24.335  0.00  0.00    -0.263 OA
ATOM      7  C   UNL d   1      33.236  20.127 -21.415  0.00  0.00     0.120 C 
ATOM      8  C   UNL d   1      33.237  18.363 -22.008  0.00  0.00     0.022 C 
ENDROOT
BRANCH   1   9
ATOM      9  N   UNL d   1      33.174  18.381 -23.770  0.00  0.00    -0.152 NA
BRANCH   9  10
ATOM     10  S   UNL d   1      32.464  18.058 -24.034  0.00  0.00     0.285 S 
ATOM     11  O   UNL d   1      32.338  17.727 -23.291  0.00  0.00    -0.198 OA
ATOM     12  O   UNL d   1      32.598  18.402 -24.806  0.00  0.00    -0.198 OA
BRANCH  10  13
ATOM     13  C   UNL d   1      31.757  17.739 -24.308  0.00  0.00     0.105 A 
ATOM     14  C   UNL d   1      31.548  16.956 -24.121  0.00  0.00     0.013 A 
ATOM     15  C   UNL d   1      30.833  16.625 -24.395  0.00  0.00     0.001 A 
ATOM     16  C   UNL d   1      30.341  17.085 -24.852  0.00  0.00     0.000 A 
ATOM     17  C   UNL d   1      30.547  17.886 -25.048  0.00  0.00     0.001 A 
ATOM     18  C   UNL d   1      31.235  18.204 -24.784  0.00  0.00     0.013 A 
ENDBRANCH  10  13
ENDBRANCH   9  10
ENDBRANCH   1   9
BRANCH   4  19
ATOM     19  C   UNL d   1      33.169  21.182 -22.900  0.00  0.00     0.085 A 
ATOM     20  C   UNL d   1      33.086  21.626 -22.209  0.00  0.00     0.019 A 
ATOM     21  C   UNL d   1      33.075  22.456 -22.237  0.00  0.00     0.002 A 
ATOM     22  C   UNL d   1      33.146  22.838 -22.947  0.00  0.00     0.000 A 
ATOM     23  C   UNL d   1      33.229  22.397 -23.633  0.00  0.00     0.002 A 
ATOM     24  C   UNL d   1      33.241  21.574 -23.614  0.00  0.00     0.019 A 
ENDBRANCH   4  19
TORSDOF 4
ENDMDL
