MODEL 1
REMARK VINA RESULT:      -3.5      0.000      0.000
REMARK  4 active torsions:
REMARK  status: ('A' for Active; 'I' for Inactive)
REMARK    1  A    between atoms: N_4  and  S_1 
REMARK    2  A    between atoms: C_5  and  S_1 
REMARK    3  A    between atoms: S_2  and  N_3 
REMARK    4  A    between atoms: C_6  and  S_2 
ROOT
ATOM      1  N   UNL d   1     -41.781-122.606 -50.406  0.00  0.00    -0.226 N 
ATOM      2  N   UNL d   1     -41.624-122.743 -52.042  0.00  0.00    -0.226 N 
ATOM      3  C   UNL d   1     -42.128-122.029 -50.916  0.00  0.00     0.111 A 
ATOM      4  C   UNL d   1     -42.047-122.102 -51.725  0.00  0.00     0.111 A 
ATOM      5  C   UNL d   1     -41.283-123.310 -51.542  0.00  0.00     0.111 A 
ATOM      6  C   UNL d   1     -41.360-123.242 -50.717  0.00  0.00     0.111 A 
ENDROOT
BRANCH   1   7
ATOM      7  S   UNL d   1     -41.849-122.556 -49.546  0.00  0.00     0.277 S 
ATOM      8  O   UNL d   1     -41.123-122.146 -49.496  0.00  0.00    -0.199 OA
ATOM      9  O   UNL d   1     -41.933-122.517 -48.709  0.00  0.00    -0.199 OA
BRANCH   7  10
ATOM     10  C   UNL d   1     -42.590-122.973 -49.587  0.00  0.00     0.133 A 
ATOM     11  S   UNL d   1     -42.774-123.743 -49.675  0.00  0.00    -0.074 SA
ATOM     12  C   UNL d   1     -43.582-123.811 -49.675  0.00  0.00     0.036 A 
ATOM     13  C   UNL d   1     -43.924-123.074 -49.586  0.00  0.00     0.008 A 
ATOM     14  C   UNL d   1     -43.308-122.542 -49.530  0.00  0.00     0.020 A 
ENDBRANCH   7  10
ENDBRANCH   1   7
BRANCH   2  15
ATOM     15  S   UNL d   1     -41.544-122.814 -52.874  0.00  0.00     0.277 S 
ATOM     16  O   UNL d   1     -41.602-121.991 -52.943  0.00  0.00    -0.199 OA
ATOM     17  O   UNL d   1     -41.487-123.643 -52.785  0.00  0.00    -0.199 OA
BRANCH  15  18
ATOM     18  C   UNL d   1     -41.465-122.890 -53.692  0.00  0.00     0.133 A 
ATOM     19  S   UNL d   1     -41.266-123.528 -54.175  0.00  0.00    -0.074 SA
ATOM     20  C   UNL d   1     -41.277-123.263 -54.959  0.00  0.00     0.036 A 
ATOM     21  C   UNL d   1     -41.477-122.477 -54.956  0.00  0.00     0.008 A 
ATOM     22  C   UNL d   1     -41.596-122.232 -54.180  0.00  0.00     0.020 A 
ENDBRANCH  15  18
ENDBRANCH   2  15
TORSDOF 4
ENDMDL
MODEL 2
REMARK VINA RESULT:      -2.8      0.826      1.088
REMARK  4 active torsions:
REMARK  status: ('A' for Active; 'I' for Inactive)
REMARK    1  A    between atoms: N_4  and  S_1 
REMARK    2  A    between atoms: C_5  and  S_1 
REMARK    3  A    between atoms: S_2  and  N_3 
REMARK    4  A    between atoms: C_6  and  S_2 
ROOT
ATOM      1  N   UNL d   1     -41.815-123.186 -50.926  0.00  0.00    -0.226 N 
ATOM      2  N   UNL d   1     -41.774-122.834 -52.537  0.00  0.00    -0.226 N 
ATOM      3  C   UNL d   1     -41.717-122.388 -51.184  0.00  0.00     0.111 A 
ATOM      4  C   UNL d   1     -41.697-122.219 -51.983  0.00  0.00     0.111 A 
ATOM      5  C   UNL d   1     -41.871-123.618 -52.284  0.00  0.00     0.111 A 
ATOM      6  C   UNL d   1     -41.892-123.798 -51.473  0.00  0.00     0.111 A 
ENDROOT
BRANCH   1   7
ATOM      7  S   UNL d   1     -41.840-123.396 -50.089  0.00  0.00     0.277 S 
ATOM      8  O   UNL d   1     -41.123-123.818 -50.156  0.00  0.00    -0.199 OA
ATOM      9  O   UNL d   1     -41.882-123.591 -49.271  0.00  0.00    -0.199 OA
BRANCH   7  10
ATOM     10  C   UNL d   1     -42.573-122.969 -50.010  0.00  0.00     0.133 A 
ATOM     11  S   UNL d   1     -42.760-122.199 -50.082  0.00  0.00    -0.074 SA
ATOM     12  C   UNL d   1     -43.555-122.119 -49.943  0.00  0.00     0.036 A 
ATOM     13  C   UNL d   1     -43.885-122.848 -49.780  0.00  0.00     0.008 A 
ATOM     14  C   UNL d   1     -43.275-123.388 -49.820  0.00  0.00     0.020 A 
ENDBRANCH   7  10
ENDBRANCH   1   7
BRANCH   2  15
ATOM     15  S   UNL d   1     -41.752-122.656 -53.356  0.00  0.00     0.277 S 
ATOM     16  O   UNL d   1     -41.983-123.432 -53.525  0.00  0.00    -0.199 OA
ATOM     17  O   UNL d   1     -41.520-121.876 -53.166  0.00  0.00    -0.199 OA
BRANCH  15  18
ATOM     18  C   UNL d   1     -41.730-122.474 -54.161  0.00  0.00     0.133 A 
ATOM     19  S   UNL d   1     -41.268-122.757 -54.783  0.00  0.00    -0.074 SA
ATOM     20  C   UNL d   1     -41.501-122.361 -55.470  0.00  0.00     0.036 A 
ATOM     21  C   UNL d   1     -42.095-121.844 -55.273  0.00  0.00     0.008 A 
ATOM     22  C   UNL d   1     -42.247-121.903 -54.468  0.00  0.00     0.020 A 
ENDBRANCH  15  18
ENDBRANCH   2  15
TORSDOF 4
ENDMDL
MODEL 3
REMARK VINA RESULT:      -2.6      1.382      4.315
REMARK  4 active torsions:
REMARK  status: ('A' for Active; 'I' for Inactive)
REMARK    1  A    between atoms: N_4  and  S_1 
REMARK    2  A    between atoms: C_5  and  S_1 
REMARK    3  A    between atoms: S_2  and  N_3 
REMARK    4  A    between atoms: C_6  and  S_2 
ROOT
ATOM      1  N   UNL d   1     -41.579-123.050 -53.763  0.00  0.00    -0.226 N 
ATOM      2  N   UNL d   1     -41.697-123.021 -52.118  0.00  0.00    -0.226 N 
ATOM      3  C   UNL d   1     -41.130-122.492 -53.315  0.00  0.00     0.111 A 
ATOM      4  C   UNL d   1     -41.193-122.482 -52.501  0.00  0.00     0.111 A 
ATOM      5  C   UNL d   1     -42.137-123.569 -52.558  0.00  0.00     0.111 A 
ATOM      6  C   UNL d   1     -42.079-123.586 -53.387  0.00  0.00     0.111 A 
ENDROOT
BRANCH   1   7
ATOM      7  S   UNL d   1     -41.534-123.085 -54.625  0.00  0.00     0.277 S 
ATOM      8  O   UNL d   1     -41.123-123.811 -54.590  0.00  0.00    -0.199 OA
ATOM      9  O   UNL d   1     -41.501-123.102 -55.466  0.00  0.00    -0.199 OA
BRANCH   7  10
ATOM     10  C   UNL d   1     -41.953-122.346 -54.670  0.00  0.00     0.133 A 
ATOM     11  S   UNL d   1     -41.754-121.598 -54.482  0.00  0.00    -0.074 SA
ATOM     12  C   UNL d   1     -42.387-121.119 -54.647  0.00  0.00     0.036 A 
ATOM     13  C   UNL d   1     -43.002-121.564 -54.947  0.00  0.00     0.008 A 
ATOM     14  C   UNL d   1     -42.739-122.336 -54.965  0.00  0.00     0.020 A 
ENDBRANCH   7  10
ENDBRANCH   1   7
BRANCH   2  15
ATOM     15  S   UNL d   1     -41.758-123.007 -51.282  0.00  0.00     0.277 S 
ATOM     16  O   UNL d   1     -41.275-123.678 -51.242  0.00  0.00    -0.199 OA
ATOM     17  O   UNL d   1     -42.244-122.330 -51.342  0.00  0.00    -0.199 OA
BRANCH  15  18
ATOM     18  C   UNL d   1     -41.821-122.988 -50.459  0.00  0.00     0.133 A 
ATOM     19  S   UNL d   1     -42.460-123.092 -49.948  0.00  0.00    -0.074 SA
ATOM     20  C   UNL d   1     -42.178-123.007 -49.174  0.00  0.00     0.036 A 
ATOM     21  C   UNL d   1     -41.383-122.855 -49.211  0.00  0.00     0.008 A 
ATOM     22  C   UNL d   1     -41.148-122.839 -49.999  0.00  0.00     0.020 A 
ENDBRANCH  15  18
ENDBRANCH   2  15
TORSDOF 4
ENDMDL
MODEL 4
REMARK VINA RESULT:      -1.8      1.670      2.295
REMARK  4 active torsions:
REMARK  status: ('A' for Active; 'I' for Inactive)
REMARK    1  A    between atoms: N_4  and  S_1 
REMARK    2  A    between atoms: C_5  and  S_1 
REMARK    3  A    between atoms: S_2  and  N_3 
REMARK    4  A    between atoms: C_6  and  S_2 
ROOT
ATOM      1  N   UNL d   1     -42.788-123.211 -48.789  0.00  0.00    -0.226 N 
ATOM      2  N   UNL d   1     -42.189-122.933 -50.301  0.00  0.00    -0.226 N 
ATOM      3  C   UNL d   1     -42.891-122.456 -49.155  0.00  0.00     0.111 A 
ATOM      4  C   UNL d   1     -42.592-122.325 -49.904  0.00  0.00     0.111 A 
ATOM      5  C   UNL d   1     -42.088-123.674 -49.942  0.00  0.00     0.111 A 
ATOM      6  C   UNL d   1     -42.388-123.816 -49.181  0.00  0.00     0.111 A 
ENDROOT
BRANCH   1   7
ATOM      7  S   UNL d   1     -43.092-123.381 -47.999  0.00  0.00     0.277 S 
ATOM      8  O   UNL d   1     -43.819-123.642 -48.317  0.00  0.00    -0.199 OA
ATOM      9  O   UNL d   1     -43.371-123.540 -47.221  0.00  0.00    -0.199 OA
BRANCH   7  10
ATOM     10  C   UNL d   1     -42.355-123.117 -47.665  0.00  0.00     0.133 A 
ATOM     11  S   UNL d   1     -41.597-123.198 -47.895  0.00  0.00    -0.074 SA
ATOM     12  C   UNL d   1     -41.127-122.825 -47.350  0.00  0.00     0.036 A 
ATOM     13  C   UNL d   1     -41.588-122.498 -46.761  0.00  0.00     0.008 A 
ATOM     14  C   UNL d   1     -42.361-122.676 -46.951  0.00  0.00     0.020 A 
ENDBRANCH   7  10
ENDBRANCH   1   7
BRANCH   2  15
ATOM     15  S   UNL d   1     -41.884-122.793 -51.069  0.00  0.00     0.277 S 
ATOM     16  O   UNL d   1     -41.559-122.079 -50.803  0.00  0.00    -0.199 OA
ATOM     17  O   UNL d   1     -42.219-123.516 -51.320  0.00  0.00    -0.199 OA
BRANCH  15  18
ATOM     18  C   UNL d   1     -41.587-122.660 -51.828  0.00  0.00     0.133 A 
ATOM     19  S   UNL d   1     -41.411-123.168 -52.454  0.00  0.00    -0.074 SA
ATOM     20  C   UNL d   1     -41.126-122.707 -53.079  0.00  0.00     0.036 A 
ATOM     21  C   UNL d   1     -41.127-121.932 -52.840  0.00  0.00     0.008 A 
ATOM     22  C   UNL d   1     -41.409-121.887 -52.069  0.00  0.00     0.020 A 
ENDBRANCH  15  18
ENDBRANCH   2  15
TORSDOF 4
ENDMDL
