MODEL 1
REMARK VINA RESULT:      -5.3      0.000      0.000
REMARK  2 active torsions:
REMARK  status: ('A' for Active; 'I' for Inactive)
REMARK    1  A    between atoms: S_2  and  N_1 
REMARK    2  A    between atoms: C_8  and  S_2 
ROOT
ATOM      1  S   UNL d   1      57.544  -0.056  30.960  0.00  0.00     0.273 S 
ATOM      2  O   UNL d   1      57.736   0.681  31.265  0.00  0.00    -0.200 OA
ATOM      3  O   UNL d   1      57.357  -0.796  30.646  0.00  0.00    -0.200 OA
ENDROOT
BRANCH   1   4
ATOM      4  N   UNL d   1      58.071   0.083  30.341  0.00  0.00    -0.207 N 
ATOM      5  C   UNL d   1      57.718   0.359  29.643  0.00  0.00     0.148 A 
ATOM      6  N   UNL d   1      58.088   0.551  28.923  0.00  0.00    -0.198 NA
ATOM      7  C   UNL d   1      58.873   0.517  28.728  0.00  0.00     0.066 A 
ATOM      8  C   UNL d   1      58.505   0.222  29.759  0.00  0.00     0.169 A 
ATOM      9  C   UNL d   1      59.508   0.284  29.192  0.00  0.00     0.066 A 
ATOM     10  N   UNL d   1      59.505   0.024  29.977  0.00  0.00    -0.198 NA
ATOM     11  C   UNL d   1      58.866  -0.064  30.484  0.00  0.00     0.148 A 
ENDBRANCH   1   4
BRANCH   1  12
ATOM     12  C   UNL d   1      57.019  -0.187  31.583  0.00  0.00     0.104 A 
ATOM     13  C   UNL d   1      56.700   0.453  31.994  0.00  0.00     0.013 A 
ATOM     14  C   UNL d   1      56.175   0.321  32.617  0.00  0.00     0.001 A 
ATOM     15  C   UNL d   1      55.969  -0.450  32.828  0.00  0.00     0.000 A 
ATOM     16  C   UNL d   1      56.289  -1.090  32.416  0.00  0.00     0.001 A 
ATOM     17  C   UNL d   1      55.443  -0.572  33.452  0.00  0.00     0.000 C 
ATOM     18  C   UNL d   1      56.814  -0.959  31.793  0.00  0.00     0.013 A 
ENDBRANCH   1  12
TORSDOF 2
ENDMDL
MODEL 2
REMARK VINA RESULT:      -4.8      1.415      2.138
REMARK  2 active torsions:
REMARK  status: ('A' for Active; 'I' for Inactive)
REMARK    1  A    between atoms: S_2  and  N_1 
REMARK    2  A    between atoms: C_8  and  S_2 
ROOT
ATOM      1  S   UNL d   1      56.561   0.132  32.544  0.00  0.00     0.273 S 
ATOM      2  O   UNL d   1      57.080  -0.345  32.965  0.00  0.00    -0.200 OA
ATOM      3  O   UNL d   1      56.044   0.609  32.113  0.00  0.00    -0.200 OA
ENDROOT
BRANCH   1   4
ATOM      4  N   UNL d   1      57.009  -0.010  31.866  0.00  0.00    -0.207 N 
ATOM      5  C   UNL d   1      57.458   0.638  31.607  0.00  0.00     0.148 A 
ATOM      6  N   UNL d   1      57.964   0.680  30.949  0.00  0.00    -0.198 NA
ATOM      7  C   UNL d   1      58.142   0.107  30.405  0.00  0.00     0.066 A 
ATOM      8  C   UNL d   1      57.427  -0.091  31.262  0.00  0.00     0.169 A 
ATOM      9  C   UNL d   1      57.868  -0.665  30.364  0.00  0.00     0.066 A 
ATOM     10  N   UNL d   1      57.340  -1.053  30.868  0.00  0.00    -0.198 NA
ATOM     11  C   UNL d   1      56.960  -0.759  31.534  0.00  0.00     0.148 A 
ENDBRANCH   1   4
BRANCH   1  12
ATOM     12  C   UNL d   1      56.118   0.269  33.226  0.00  0.00     0.104 A 
ATOM     13  C   UNL d   1      56.491   0.534  33.913  0.00  0.00     0.013 A 
ATOM     14  C   UNL d   1      56.048   0.671  34.596  0.00  0.00     0.001 A 
ATOM     15  C   UNL d   1      55.232   0.543  34.591  0.00  0.00     0.000 A 
ATOM     16  C   UNL d   1      54.860   0.277  33.904  0.00  0.00     0.001 A 
ATOM     17  C   UNL d   1      54.797   0.682  35.278  0.00  0.00     0.000 C 
ATOM     18  C   UNL d   1      55.303   0.140  33.221  0.00  0.00     0.013 A 
ENDBRANCH   1  12
TORSDOF 2
ENDMDL
MODEL 3
REMARK VINA RESULT:      -4.7      2.114      4.109
REMARK  2 active torsions:
REMARK  status: ('A' for Active; 'I' for Inactive)
REMARK    1  A    between atoms: S_2  and  N_1 
REMARK    2  A    between atoms: C_8  and  S_2 
ROOT
ATOM      1  S   UNL d   1      56.537  -0.030  32.465  0.00  0.00     0.273 S 
ATOM      2  O   UNL d   1      56.299   0.682  32.132  0.00  0.00    -0.200 OA
ATOM      3  O   UNL d   1      56.771  -0.744  32.806  0.00  0.00    -0.200 OA
ENDROOT
BRANCH   1   4
ATOM      4  N   UNL d   1      56.085   0.151  33.130  0.00  0.00    -0.207 N 
ATOM      5  C   UNL d   1      56.519   0.446  33.773  0.00  0.00     0.148 A 
ATOM      6  N   UNL d   1      56.235   0.679  34.519  0.00  0.00    -0.198 NA
ATOM      7  C   UNL d   1      55.476   0.676  34.799  0.00  0.00     0.066 A 
ATOM      8  C   UNL d   1      55.721   0.326  33.749  0.00  0.00     0.169 A 
ATOM      9  C   UNL d   1      54.788   0.442  34.419  0.00  0.00     0.066 A 
ATOM     10  N   UNL d   1      54.699   0.148  33.650  0.00  0.00    -0.198 NA
ATOM     11  C   UNL d   1      55.276   0.020  33.081  0.00  0.00     0.148 A 
ENDBRANCH   1   4
BRANCH   1  12
ATOM     12  C   UNL d   1      56.987  -0.203  31.795  0.00  0.00     0.104 A 
ATOM     13  C   UNL d   1      57.012  -0.975  31.504  0.00  0.00     0.013 A 
ATOM     14  C   UNL d   1      57.462  -1.148  30.834  0.00  0.00     0.001 A 
ATOM     15  C   UNL d   1      57.886  -0.549  30.456  0.00  0.00     0.000 A 
ATOM     16  C   UNL d   1      57.860   0.223  30.747  0.00  0.00     0.001 A 
ATOM     17  C   UNL d   1      58.333  -0.731  29.786  0.00  0.00     0.000 C 
ATOM     18  C   UNL d   1      57.410   0.396  31.417  0.00  0.00     0.013 A 
ENDBRANCH   1  12
TORSDOF 2
ENDMDL
MODEL 4
REMARK VINA RESULT:      -4.7      1.438      3.767
REMARK  2 active torsions:
REMARK  status: ('A' for Active; 'I' for Inactive)
REMARK    1  A    between atoms: S_2  and  N_1 
REMARK    2  A    between atoms: C_8  and  S_2 
ROOT
ATOM      1  S   UNL d   1      57.311   0.117  31.568  0.00  0.00     0.273 S 
ATOM      2  O   UNL d   1      56.788  -0.073  30.965  0.00  0.00    -0.200 OA
ATOM      3  O   UNL d   1      57.830   0.308  32.180  0.00  0.00    -0.200 OA
ENDROOT
BRANCH   1   4
ATOM      4  N   UNL d   1      56.704  -0.012  32.111  0.00  0.00    -0.207 N 
ATOM      5  C   UNL d   1      56.592  -0.808  32.320  0.00  0.00     0.148 A 
ATOM      6  N   UNL d   1      56.033  -1.124  32.848  0.00  0.00    -0.198 NA
ATOM      7  C   UNL d   1      55.467  -0.741  33.283  0.00  0.00     0.066 A 
ATOM      8  C   UNL d   1      56.170  -0.176  32.596  0.00  0.00     0.169 A 
ATOM      9  C   UNL d   1      55.300   0.061  33.315  0.00  0.00     0.066 A 
ATOM     10  N   UNL d   1      55.668   0.681  32.909  0.00  0.00    -0.198 NA
ATOM     11  C   UNL d   1      56.291   0.645  32.376  0.00  0.00     0.148 A 
ENDBRANCH   1   4
BRANCH   1  12
ATOM     12  C   UNL d   1      57.913   0.245  31.018  0.00  0.00     0.104 A 
ATOM     13  C   UNL d   1      57.785   0.073  30.221  0.00  0.00     0.013 A 
ATOM     14  C   UNL d   1      58.387   0.201  29.671  0.00  0.00     0.001 A 
ATOM     15  C   UNL d   1      59.116   0.500  29.918  0.00  0.00     0.000 A 
ATOM     16  C   UNL d   1      59.242   0.672  30.716  0.00  0.00     0.001 A 
ATOM     17  C   UNL d   1      59.712   0.625  29.361  0.00  0.00     0.000 C 
ATOM     18  C   UNL d   1      58.641   0.544  31.266  0.00  0.00     0.013 A 
ENDBRANCH   1  12
TORSDOF 2
ENDMDL
