MODEL 1
REMARK VINA RESULT:      -7.7      0.000      0.000
REMARK  4 active torsions:
REMARK  status: ('A' for Active; 'I' for Inactive)
REMARK    1  A    between atoms: N_3  and  S_1 
REMARK    2  A    between atoms: C_5  and  S_1 
REMARK    3  A    between atoms: C_2  and  N_3 
REMARK    4  A    between atoms: O_18  and  C_11 
ROOT
ATOM      1  C   UNL d   1     -48.985  14.432  22.660  0.00  0.00     0.113 A 
ATOM      2  C   UNL d   1     -49.650  14.862  22.921  0.00  0.00     0.100 A 
ATOM      3  C   UNL d   1     -49.059  13.803  22.146  0.00  0.00     0.046 A 
ATOM      4  C   UNL d   1     -50.389  14.664  22.668  0.00  0.00     0.021 A 
ATOM      5  N   UNL d   1     -49.548  15.495  23.441  0.00  0.00    -0.242 NA
ATOM      6  C   UNL d   1     -49.824  13.603  21.889  0.00  0.00     0.096 A 
ATOM      7  C   UNL d   1     -50.489  14.033  22.149  0.00  0.00     0.026 A 
ATOM      8  C   UNL d   1     -51.044  15.087  22.924  0.00  0.00     0.003 A 
ATOM      9  C   UNL d   1     -50.203  15.919  23.698  0.00  0.00     0.099 A 
ATOM     10  C   UNL d   1     -50.981  15.723  23.442  0.00  0.00     0.021 A 
ENDROOT
BRANCH   1  11
ATOM     11  N   UNL d   1     -48.192  14.636  22.924  0.00  0.00    -0.157 NA
BRANCH  11  12
ATOM     12  S   UNL d   1     -47.578  14.071  22.923  0.00  0.00     0.285 S 
ATOM     13  O   UNL d   1     -47.280  14.396  22.199  0.00  0.00    -0.198 OA
ATOM     14  O   UNL d   1     -47.867  13.756  23.623  0.00  0.00    -0.198 OA
BRANCH  12  15
ATOM     15  C   UNL d   1     -46.968  13.509  22.921  0.00  0.00     0.105 A 
ATOM     16  C   UNL d   1     -46.345  13.570  22.388  0.00  0.00     0.013 A 
ATOM     17  C   UNL d   1     -45.738  13.011  22.386  0.00  0.00     0.001 A 
ATOM     18  C   UNL d   1     -45.741  12.378  22.919  0.00  0.00     0.000 A 
ATOM     19  C   UNL d   1     -46.370  12.323  23.453  0.00  0.00     0.001 A 
ATOM     20  C   UNL d   1     -45.138  11.823  22.917  0.00  0.00     0.000 C 
ATOM     21  C   UNL d   1     -46.977  12.882  23.454  0.00  0.00     0.013 A 
ENDBRANCH  12  15
ENDBRANCH  11  12
ENDBRANCH   1  11
BRANCH   6  22
ATOM     22  O   UNL d   1     -49.904  12.943  21.349  0.00  0.00    -0.328 OA
ATOM     23  C   UNL d   1     -50.260  12.228  21.589  0.00  0.00     0.181 C 
ENDBRANCH   6  22
TORSDOF 4
ENDMDL
MODEL 2
REMARK VINA RESULT:      -6.8      1.117      4.165
REMARK  4 active torsions:
REMARK  status: ('A' for Active; 'I' for Inactive)
REMARK    1  A    between atoms: N_3  and  S_1 
REMARK    2  A    between atoms: C_5  and  S_1 
REMARK    3  A    between atoms: C_2  and  N_3 
REMARK    4  A    between atoms: O_18  and  C_11 
ROOT
ATOM      1  C   UNL d   1     -47.105  13.306  22.624  0.00  0.00     0.113 A 
ATOM      2  C   UNL d   1     -46.305  13.077  22.569  0.00  0.00     0.100 A 
ATOM      3  C   UNL d   1     -47.659  12.834  22.991  0.00  0.00     0.046 A 
ATOM      4  C   UNL d   1     -46.059  12.376  22.882  0.00  0.00     0.021 A 
ATOM      5  N   UNL d   1     -45.763  13.573  22.192  0.00  0.00    -0.242 NA
ATOM      6  C   UNL d   1     -47.400  12.112  23.311  0.00  0.00     0.096 A 
ATOM      7  C   UNL d   1     -46.600  11.883  23.257  0.00  0.00     0.026 A 
ATOM      8  C   UNL d   1     -45.272  12.150  22.828  0.00  0.00     0.003 A 
ATOM      9  C   UNL d   1     -44.975  13.347  22.138  0.00  0.00     0.099 A 
ATOM     10  C   UNL d   1     -44.704  12.618  22.460  0.00  0.00     0.021 A 
ENDROOT
BRANCH   1  11
ATOM     11  N   UNL d   1     -47.377  14.053  22.293  0.00  0.00    -0.157 NA
BRANCH  11  12
ATOM     12  S   UNL d   1     -48.118  14.373  22.504  0.00  0.00     0.285 S 
ATOM     13  O   UNL d   1     -48.430  14.148  21.749  0.00  0.00    -0.198 OA
ATOM     14  O   UNL d   1     -47.815  14.591  23.235  0.00  0.00    -0.198 OA
BRANCH  12  15
ATOM     15  C   UNL d   1     -48.855  14.692  22.714  0.00  0.00     0.105 A 
ATOM     16  C   UNL d   1     -48.901  15.335  23.225  0.00  0.00     0.013 A 
ATOM     17  C   UNL d   1     -49.633  15.652  23.434  0.00  0.00     0.001 A 
ATOM     18  C   UNL d   1     -50.336  15.332  23.136  0.00  0.00     0.000 A 
ATOM     19  C   UNL d   1     -50.282  14.686  22.623  0.00  0.00     0.001 A 
ATOM     20  C   UNL d   1     -51.064  15.647  23.343  0.00  0.00     0.000 C 
ATOM     21  C   UNL d   1     -49.549  14.369  22.414  0.00  0.00     0.013 A 
ENDBRANCH  12  15
ENDBRANCH  11  12
ENDBRANCH   1  11
BRANCH   6  22
ATOM     22  O   UNL d   1     -47.980  11.614  23.698  0.00  0.00    -0.328 OA
ATOM     23  C   UNL d   1     -48.396  11.026  23.277  0.00  0.00     0.181 C 
ENDBRANCH   6  22
TORSDOF 4
ENDMDL
MODEL 3
REMARK VINA RESULT:      -6.7      1.431      2.131
REMARK  4 active torsions:
REMARK  status: ('A' for Active; 'I' for Inactive)
REMARK    1  A    between atoms: N_3  and  S_1 
REMARK    2  A    between atoms: C_5  and  S_1 
REMARK    3  A    between atoms: C_2  and  N_3 
REMARK    4  A    between atoms: O_18  and  C_11 
ROOT
ATOM      1  C   UNL d   1     -48.615  13.114  23.244  0.00  0.00     0.113 A 
ATOM      2  C   UNL d   1     -49.365  12.752  23.285  0.00  0.00     0.100 A 
ATOM      3  C   UNL d   1     -48.511  13.837  22.883  0.00  0.00     0.046 A 
ATOM      4  C   UNL d   1     -50.011  13.113  22.966  0.00  0.00     0.021 A 
ATOM      5  N   UNL d   1     -49.444  12.018  23.656  0.00  0.00    -0.242 NA
ATOM      6  C   UNL d   1     -49.180  14.206  22.556  0.00  0.00     0.096 A 
ATOM      7  C   UNL d   1     -49.930  13.843  22.597  0.00  0.00     0.026 A 
ATOM      8  C   UNL d   1     -50.749  12.756  23.007  0.00  0.00     0.003 A 
ATOM      9  C   UNL d   1     -50.182  11.661  23.697  0.00  0.00     0.099 A 
ATOM     10  C   UNL d   1     -50.866  12.027  23.369  0.00  0.00     0.021 A 
ENDROOT
BRANCH   1  11
ATOM     11  N   UNL d   1     -47.919  12.736  23.582  0.00  0.00    -0.157 NA
BRANCH  11  12
ATOM     12  S   UNL d   1     -47.174  12.794  23.210  0.00  0.00     0.285 S 
ATOM     13  O   UNL d   1     -47.359  12.116  22.735  0.00  0.00    -0.198 OA
ATOM     14  O   UNL d   1     -46.996  13.449  23.670  0.00  0.00    -0.198 OA
BRANCH  12  15
ATOM     15  C   UNL d   1     -46.433  12.851  22.841  0.00  0.00     0.105 A 
ATOM     16  C   UNL d   1     -46.185  13.563  22.512  0.00  0.00     0.013 A 
ATOM     17  C   UNL d   1     -45.449  13.620  22.145  0.00  0.00     0.001 A 
ATOM     18  C   UNL d   1     -44.944  12.966  22.098  0.00  0.00     0.000 A 
ATOM     19  C   UNL d   1     -45.200  12.253  22.431  0.00  0.00     0.001 A 
ATOM     20  C   UNL d   1     -44.212  13.023  21.733  0.00  0.00     0.000 C 
ATOM     21  C   UNL d   1     -45.937  12.196  22.798  0.00  0.00     0.013 A 
ENDBRANCH  12  15
ENDBRANCH  11  12
ENDBRANCH   1  11
BRANCH   6  22
ATOM     22  O   UNL d   1     -49.074  14.966  22.176  0.00  0.00    -0.328 OA
ATOM     23  C   UNL d   1     -49.224  15.678  22.583  0.00  0.00     0.181 C 
ENDBRANCH   6  22
TORSDOF 4
ENDMDL
MODEL 4
REMARK VINA RESULT:      -6.3      8.897      9.643
REMARK  4 active torsions:
REMARK  status: ('A' for Active; 'I' for Inactive)
REMARK    1  A    between atoms: N_3  and  S_1 
REMARK    2  A    between atoms: C_5  and  S_1 
REMARK    3  A    between atoms: C_2  and  N_3 
REMARK    4  A    between atoms: O_18  and  C_11 
ROOT
ATOM      1  C   UNL d   1     -40.271  14.795  18.743  0.00  0.00     0.113 A 
ATOM      2  C   UNL d   1     -40.542  15.094  18.013  0.00  0.00     0.100 A 
ATOM      3  C   UNL d   1     -39.651  14.267  18.784  0.00  0.00     0.046 A 
ATOM      4  C   UNL d   1     -40.192  14.865  17.323  0.00  0.00     0.021 A 
ATOM      5  N   UNL d   1     -41.172  15.627  17.998  0.00  0.00    -0.242 NA
ATOM      6  C   UNL d   1     -39.294  14.035  18.070  0.00  0.00     0.096 A 
ATOM      7  C   UNL d   1     -39.565  14.334  17.339  0.00  0.00     0.026 A 
ATOM      8  C   UNL d   1     -40.458  15.160  16.605  0.00  0.00     0.003 A 
ATOM      9  C   UNL d   1     -41.438  15.922  17.280  0.00  0.00     0.099 A 
ATOM     10  C   UNL d   1     -41.083  15.692  16.552  0.00  0.00     0.021 A 
ENDROOT
BRANCH   1  11
ATOM     11  N   UNL d   1     -40.638  15.033  19.484  0.00  0.00    -0.157 NA
BRANCH  11  12
ATOM     12  S   UNL d   1     -40.228  14.970  20.208  0.00  0.00     0.285 S 
ATOM     13  O   UNL d   1     -40.624  14.237  20.368  0.00  0.00    -0.198 OA
ATOM     14  O   UNL d   1     -39.845  15.678  20.052  0.00  0.00    -0.198 OA
BRANCH  12  15
ATOM     15  C   UNL d   1     -39.820  14.907  20.928  0.00  0.00     0.105 A 
ATOM     16  C   UNL d   1     -39.443  15.562  21.252  0.00  0.00     0.013 A 
ATOM     17  C   UNL d   1     -39.037  15.499  21.968  0.00  0.00     0.001 A 
ATOM     18  C   UNL d   1     -39.000  14.780  22.375  0.00  0.00     0.000 A 
ATOM     19  C   UNL d   1     -39.382  14.126  22.043  0.00  0.00     0.001 A 
ATOM     20  C   UNL d   1     -38.597  14.718  23.086  0.00  0.00     0.000 C 
ATOM     21  C   UNL d   1     -39.787  14.188  21.327  0.00  0.00     0.013 A 
ENDBRANCH  12  15
ENDBRANCH  11  12
ENDBRANCH   1  11
BRANCH   6  22
ATOM     22  O   UNL d   1     -38.642  13.480  18.109  0.00  0.00    -0.328 OA
ATOM     23  C   UNL d   1     -38.640  12.781  17.655  0.00  0.00     0.181 C 
ENDBRANCH   6  22
TORSDOF 4
ENDMDL
MODEL 5
REMARK VINA RESULT:      -5.9      8.432     10.182
REMARK  4 active torsions:
REMARK  status: ('A' for Active; 'I' for Inactive)
REMARK    1  A    between atoms: N_3  and  S_1 
REMARK    2  A    between atoms: C_5  and  S_1 
REMARK    3  A    between atoms: C_2  and  N_3 
REMARK    4  A    between atoms: O_18  and  C_11 
ROOT
ATOM      1  C   UNL d   1     -39.853  14.546  19.590  0.00  0.00     0.113 A 
ATOM      2  C   UNL d   1     -40.213  15.004  20.187  0.00  0.00     0.100 A 
ATOM      3  C   UNL d   1     -39.133  14.182  19.708  0.00  0.00     0.046 A 
ATOM      4  C   UNL d   1     -39.853  15.099  20.901  0.00  0.00     0.021 A 
ATOM      5  N   UNL d   1     -40.943  15.362  20.041  0.00  0.00    -0.242 NA
ATOM      6  C   UNL d   1     -38.767  14.283  20.447  0.00  0.00     0.096 A 
ATOM      7  C   UNL d   1     -39.127  14.741  21.044  0.00  0.00     0.026 A 
ATOM      8  C   UNL d   1     -40.208  15.550  21.489  0.00  0.00     0.003 A 
ATOM      9  C   UNL d   1     -41.298  15.813  20.629  0.00  0.00     0.099 A 
ATOM     10  C   UNL d   1     -40.934  15.921  21.381  0.00  0.00     0.021 A 
ENDROOT
BRANCH   1  11
ATOM     11  N   UNL d   1     -40.230  14.439  18.823  0.00  0.00    -0.157 NA
BRANCH  11  12
ATOM     12  S   UNL d   1     -39.776  14.326  18.132  0.00  0.00     0.285 S 
ATOM     13  O   UNL d   1     -39.786  15.161  17.989  0.00  0.00    -0.198 OA
ATOM     14  O   UNL d   1     -39.766  13.518  18.271  0.00  0.00    -0.198 OA
BRANCH  12  15
ATOM     15  C   UNL d   1     -39.325  14.213  17.445  0.00  0.00     0.105 A 
ATOM     16  C   UNL d   1     -39.021  13.471  17.263  0.00  0.00     0.013 A 
ATOM     17  C   UNL d   1     -38.572  13.359  16.579  0.00  0.00     0.001 A 
ATOM     18  C   UNL d   1     -38.418  13.987  16.064  0.00  0.00     0.000 A 
ATOM     19  C   UNL d   1     -38.727  14.730  16.253  0.00  0.00     0.001 A 
ATOM     20  C   UNL d   1     -37.972  13.876  15.384  0.00  0.00     0.000 C 
ATOM     21  C   UNL d   1     -39.175  14.842  16.937  0.00  0.00     0.013 A 
ENDBRANCH  12  15
ENDBRANCH  11  12
ENDBRANCH   1  11
BRANCH   6  22
ATOM     22  O   UNL d   1     -38.010  13.902  20.575  0.00  0.00    -0.328 OA
ATOM     23  C   UNL d   1     -37.960  13.138  20.904  0.00  0.00     0.181 C 
ENDBRANCH   6  22
TORSDOF 4
ENDMDL
MODEL 6
REMARK VINA RESULT:      -5.9      8.934     10.479
REMARK  4 active torsions:
REMARK  status: ('A' for Active; 'I' for Inactive)
REMARK    1  A    between atoms: N_3  and  S_1 
REMARK    2  A    between atoms: C_5  and  S_1 
REMARK    3  A    between atoms: C_2  and  N_3 
REMARK    4  A    between atoms: O_18  and  C_11 
ROOT
ATOM      1  C   UNL d   1     -39.515  14.265  17.937  0.00  0.00     0.113 A 
ATOM      2  C   UNL d   1     -39.047  14.040  17.283  0.00  0.00     0.100 A 
ATOM      3  C   UNL d   1     -40.049  14.878  17.888  0.00  0.00     0.046 A 
ATOM      4  C   UNL d   1     -39.114  14.430  16.581  0.00  0.00     0.021 A 
ATOM      5  N   UNL d   1     -38.513  13.415  17.359  0.00  0.00    -0.242 NA
ATOM      6  C   UNL d   1     -40.114  15.277  17.161  0.00  0.00     0.096 A 
ATOM      7  C   UNL d   1     -39.647  15.052  16.507  0.00  0.00     0.026 A 
ATOM      8  C   UNL d   1     -38.654  14.209  15.938  0.00  0.00     0.003 A 
ATOM      9  C   UNL d   1     -38.053  13.194  16.716  0.00  0.00     0.099 A 
ATOM     10  C   UNL d   1     -38.112  13.591  15.976  0.00  0.00     0.021 A 
ENDROOT
BRANCH   1  11
ATOM     11  N   UNL d   1     -39.451  13.855  18.691  0.00  0.00    -0.157 NA
BRANCH  11  12
ATOM     12  S   UNL d   1     -39.501  14.270  19.413  0.00  0.00     0.285 S 
ATOM     13  O   UNL d   1     -40.281  13.962  19.536  0.00  0.00    -0.198 OA
ATOM     14  O   UNL d   1     -38.746  14.568  19.294  0.00  0.00    -0.198 OA
BRANCH  12  15
ATOM     15  C   UNL d   1     -39.550  14.683  20.131  0.00  0.00     0.105 A 
ATOM     16  C   UNL d   1     -38.936  15.174  20.373  0.00  0.00     0.013 A 
ATOM     17  C   UNL d   1     -38.986  15.585  21.087  0.00  0.00     0.001 A 
ATOM     18  C   UNL d   1     -39.650  15.514  21.574  0.00  0.00     0.000 A 
ATOM     19  C   UNL d   1     -40.264  15.018  21.324  0.00  0.00     0.001 A 
ATOM     20  C   UNL d   1     -39.700  15.922  22.284  0.00  0.00     0.000 C 
ATOM     21  C   UNL d   1     -40.214  14.608  20.610  0.00  0.00     0.013 A 
ENDBRANCH  12  15
ENDBRANCH  11  12
ENDBRANCH   1  11
BRANCH   6  22
ATOM     22  O   UNL d   1     -40.675  15.922  17.106  0.00  0.00    -0.328 OA
ATOM     23  C   UNL d   1     -41.433  15.810  16.778  0.00  0.00     0.181 C 
ENDBRANCH   6  22
TORSDOF 4
ENDMDL
MODEL 7
REMARK VINA RESULT:      -5.7      1.900      4.707
REMARK  4 active torsions:
REMARK  status: ('A' for Active; 'I' for Inactive)
REMARK    1  A    between atoms: N_3  and  S_1 
REMARK    2  A    between atoms: C_5  and  S_1 
REMARK    3  A    between atoms: C_2  and  N_3 
REMARK    4  A    between atoms: O_18  and  C_11 
ROOT
ATOM      1  C   UNL d   1     -46.888  12.116  23.181  0.00  0.00     0.113 A 
ATOM      2  C   UNL d   1     -46.226  11.616  23.267  0.00  0.00     0.100 A 
ATOM      3  C   UNL d   1     -46.817  12.866  22.870  0.00  0.00     0.046 A 
ATOM      4  C   UNL d   1     -45.494  11.866  23.043  0.00  0.00     0.021 A 
ATOM      5  N   UNL d   1     -46.325  10.860  23.584  0.00  0.00    -0.242 NA
ATOM      6  C   UNL d   1     -46.059  13.119  22.641  0.00  0.00     0.096 A 
ATOM      7  C   UNL d   1     -45.398  12.619  22.727  0.00  0.00     0.026 A 
ATOM      8  C   UNL d   1     -44.842  11.374  23.128  0.00  0.00     0.003 A 
ATOM      9  C   UNL d   1     -45.674  10.367  23.669  0.00  0.00     0.099 A 
ATOM     10  C   UNL d   1     -44.902  10.615  23.440  0.00  0.00     0.021 A 
ENDROOT
BRANCH   1  11
ATOM     11  N   UNL d   1     -47.675  11.858  23.417  0.00  0.00    -0.157 NA
BRANCH  11  12
ATOM     12  S   UNL d   1     -48.355  12.127  23.016  0.00  0.00     0.285 S 
ATOM     13  O   UNL d   1     -48.392  12.800  23.531  0.00  0.00    -0.198 OA
ATOM     14  O   UNL d   1     -48.320  11.476  22.519  0.00  0.00    -0.198 OA
BRANCH  12  15
ATOM     15  C   UNL d   1     -49.032  12.395  22.618  0.00  0.00     0.105 A 
ATOM     16  C   UNL d   1     -49.722  12.564  23.034  0.00  0.00     0.013 A 
ATOM     17  C   UNL d   1     -50.394  12.830  22.638  0.00  0.00     0.001 A 
ATOM     18  C   UNL d   1     -50.393  12.933  21.817  0.00  0.00     0.000 A 
ATOM     19  C   UNL d   1     -49.696  12.762  21.405  0.00  0.00     0.001 A 
ATOM     20  C   UNL d   1     -51.062  13.198  21.423  0.00  0.00     0.000 C 
ATOM     21  C   UNL d   1     -49.023  12.496  21.801  0.00  0.00     0.013 A 
ENDBRANCH  12  15
ENDBRANCH  11  12
ENDBRANCH   1  11
BRANCH   6  22
ATOM     22  O   UNL d   1     -45.982  13.908  22.315  0.00  0.00    -0.328 OA
ATOM     23  C   UNL d   1     -45.324  14.388  22.494  0.00  0.00     0.181 C 
ENDBRANCH   6  22
TORSDOF 4
ENDMDL
MODEL 8
REMARK VINA RESULT:      -5.7      8.541     10.209
REMARK  4 active torsions:
REMARK  status: ('A' for Active; 'I' for Inactive)
REMARK    1  A    between atoms: N_3  and  S_1 
REMARK    2  A    between atoms: C_5  and  S_1 
REMARK    3  A    between atoms: C_2  and  N_3 
REMARK    4  A    between atoms: O_18  and  C_11 
ROOT
ATOM      1  C   UNL d   1     -39.054  14.436  20.221  0.00  0.00     0.113 A 
ATOM      2  C   UNL d   1     -38.742  13.972  20.840  0.00  0.00     0.100 A 
ATOM      3  C   UNL d   1     -39.544  15.071  20.370  0.00  0.00     0.046 A 
ATOM      4  C   UNL d   1     -38.919  14.143  21.607  0.00  0.00     0.021 A 
ATOM      5  N   UNL d   1     -38.247  13.335  20.662  0.00  0.00    -0.242 NA
ATOM      6  C   UNL d   1     -39.724  15.242  21.163  0.00  0.00     0.096 A 
ATOM      7  C   UNL d   1     -39.412  14.778  21.782  0.00  0.00     0.026 A 
ATOM      8  C   UNL d   1     -38.612  13.686  22.216  0.00  0.00     0.003 A 
ATOM      9  C   UNL d   1     -37.940  12.878  21.271  0.00  0.00     0.099 A 
ATOM     10  C   UNL d   1     -38.117  13.044  22.078  0.00  0.00     0.021 A 
ENDROOT
BRANCH   1  11
ATOM     11  N   UNL d   1     -38.870  14.263  19.398  0.00  0.00    -0.157 NA
BRANCH  11  12
ATOM     12  S   UNL d   1     -39.317  14.594  18.777  0.00  0.00     0.285 S 
ATOM     13  O   UNL d   1     -38.777  15.247  18.737  0.00  0.00    -0.198 OA
ATOM     14  O   UNL d   1     -39.839  13.963  18.816  0.00  0.00    -0.198 OA
BRANCH  12  15
ATOM     15  C   UNL d   1     -39.762  14.924  18.159  0.00  0.00     0.105 A 
ATOM     16  C   UNL d   1     -39.494  15.593  17.763  0.00  0.00     0.013 A 
ATOM     17  C   UNL d   1     -39.936  15.921  17.149  0.00  0.00     0.001 A 
ATOM     18  C   UNL d   1     -40.657  15.588  16.917  0.00  0.00     0.000 A 
ATOM     19  C   UNL d   1     -40.920  14.915  17.320  0.00  0.00     0.001 A 
ATOM     20  C   UNL d   1     -41.096  15.914  16.307  0.00  0.00     0.000 C 
ATOM     21  C   UNL d   1     -40.478  14.587  17.934  0.00  0.00     0.013 A 
ENDBRANCH  12  15
ENDBRANCH  11  12
ENDBRANCH   1  11
BRANCH   6  22
ATOM     22  O   UNL d   1     -40.239  15.908  21.322  0.00  0.00    -0.328 OA
ATOM     23  C   UNL d   1     -41.065  15.811  21.385  0.00  0.00     0.181 C 
ENDBRANCH   6  22
TORSDOF 4
ENDMDL
MODEL 9
REMARK VINA RESULT:      -5.4      2.024      5.204
REMARK  4 active torsions:
REMARK  status: ('A' for Active; 'I' for Inactive)
REMARK    1  A    between atoms: N_3  and  S_1 
REMARK    2  A    between atoms: C_5  and  S_1 
REMARK    3  A    between atoms: C_2  and  N_3 
REMARK    4  A    between atoms: O_18  and  C_11 
ROOT
ATOM      1  C   UNL d   1     -45.314  12.103  22.970  0.00  0.00     0.113 A 
ATOM      2  C   UNL d   1     -44.834  11.432  23.096  0.00  0.00     0.100 A 
ATOM      3  C   UNL d   1     -45.066  12.723  22.502  0.00  0.00     0.046 A 
ATOM      4  C   UNL d   1     -44.106  11.382  22.754  0.00  0.00     0.021 A 
ATOM      5  N   UNL d   1     -45.109  10.818  23.574  0.00  0.00    -0.242 NA
ATOM      6  C   UNL d   1     -44.314  12.665  22.152  0.00  0.00     0.096 A 
ATOM      7  C   UNL d   1     -43.834  11.995  22.278  0.00  0.00     0.026 A 
ATOM      8  C   UNL d   1     -43.634  10.722  22.877  0.00  0.00     0.003 A 
ATOM      9  C   UNL d   1     -44.637  10.158  23.698  0.00  0.00     0.099 A 
ATOM     10  C   UNL d   1     -43.874  10.091  23.347  0.00  0.00     0.021 A 
ENDROOT
BRANCH   1  11
ATOM     11  N   UNL d   1     -46.093  12.166  23.330  0.00  0.00    -0.157 NA
BRANCH  11  12
ATOM     12  S   UNL d   1     -46.631  12.759  23.095  0.00  0.00     0.285 S 
ATOM     13  O   UNL d   1     -46.295  13.290  23.664  0.00  0.00    -0.198 OA
ATOM     14  O   UNL d   1     -46.955  12.246  22.544  0.00  0.00    -0.198 OA
BRANCH  12  15
ATOM     15  C   UNL d   1     -47.165  13.349  22.860  0.00  0.00     0.105 A 
ATOM     16  C   UNL d   1     -47.800  13.166  22.370  0.00  0.00     0.013 A 
ATOM     17  C   UNL d   1     -48.331  13.752  22.137  0.00  0.00     0.001 A 
ATOM     18  C   UNL d   1     -48.240  14.535  22.388  0.00  0.00     0.000 A 
ATOM     19  C   UNL d   1     -47.599  14.712  22.881  0.00  0.00     0.001 A 
ATOM     20  C   UNL d   1     -48.768  15.117  22.157  0.00  0.00     0.000 C 
ATOM     21  C   UNL d   1     -47.068  14.125  23.114  0.00  0.00     0.013 A 
ENDBRANCH  12  15
ENDBRANCH  11  12
ENDBRANCH   1  11
BRANCH   6  22
ATOM     22  O   UNL d   1     -44.051  13.315  21.660  0.00  0.00    -0.328 OA
ATOM     23  C   UNL d   1     -43.373  13.247  21.179  0.00  0.00     0.181 C 
ENDBRANCH   6  22
TORSDOF 4
ENDMDL
