MODEL 1
REMARK VINA RESULT:      12.9      0.000      0.000
REMARK  6 active torsions:
REMARK  status: ('A' for Active; 'I' for Inactive)
REMARK       I    between atoms: C_5  and  N_1 
REMARK    1  A    between atoms: C_10  and  C_5 
REMARK    2  A    between atoms: C_7  and  C_13 
REMARK       I    between atoms: N_8  and  C_7 
REMARK    3  A    between atoms: C_12  and  N_8 
REMARK    4  A    between atoms: C_13  and  C_10 
REMARK    5  A    between atoms: O_20  and  C_14 
REMARK    6  A    between atoms: C_22  and  O_20 
ROOT
ATOM      1  C   UNL d   1      45.211 -16.427  44.698  0.00  0.00     0.279 C 
ATOM      2  N   UNL d   1      44.836 -15.743  44.937  0.00  0.00    -0.208 NA
ATOM      3  O   UNL d   1      44.931 -17.174  44.955  0.00  0.00    -0.265 OA
ENDROOT
BRANCH   1   4
ATOM      4  C   UNL d   1      45.857 -16.384  44.211  0.00  0.00     0.068 C 
BRANCH   4   5
ATOM      5  C   UNL d   1      46.408 -16.993  44.195  0.00  0.00     0.068 C 
BRANCH   5   6
ATOM      6  C   UNL d   1      46.458 -17.491  43.539  0.00  0.00     0.281 C 
ATOM      7  N   UNL d   1      46.517 -18.315  43.649  0.00  0.00    -0.195 N 
ATOM      8  N   UNL d   1      46.538 -18.787  44.316  0.00  0.00    -0.163 NA
ATOM      9  C   UNL d   1      46.567 -18.806  42.990  0.00  0.00     0.088 A 
ATOM     10  C   UNL d   1      46.603 -19.590  44.067  0.00  0.00     0.103 A 
ATOM     11  C   UNL d   1      46.644 -20.264  44.545  0.00  0.00     0.022 C 
ATOM     12  C   UNL d   1      46.619 -19.584  43.256  0.00  0.00     0.040 A 
ATOM     13  C   UNL d   1      46.566 -18.571  42.192  0.00  0.00     0.021 C 
ATOM     14  O   UNL d   1      46.450 -17.171  42.774  0.00  0.00    -0.265 OA
ENDBRANCH   5   6
ENDBRANCH   4   5
ENDBRANCH   1   4
BRANCH   2  15
ATOM     15  C   UNL d   1      45.114 -15.007  44.682  0.00  0.00     0.085 A 
ATOM     16  C   UNL d   1      45.853 -14.726  44.944  0.00  0.00     0.021 A 
ATOM     17  C   UNL d   1      46.131 -13.990  44.690  0.00  0.00     0.026 A 
ATOM     18  C   UNL d   1      45.680 -13.545  44.183  0.00  0.00     0.100 A 
ATOM     19  C   UNL d   1      44.942 -13.820  43.918  0.00  0.00     0.026 A 
ATOM     20  C   UNL d   1      44.659 -14.551  44.167  0.00  0.00     0.021 A 
BRANCH  18  21
ATOM     21  O   UNL d   1      45.974 -12.808  43.937  0.00  0.00    -0.305 OA
BRANCH  21  22
ATOM     22  C   UNL d   1      45.489 -12.275  43.552  0.00  0.00     0.123 C 
ATOM     23  C   UNL d   1      45.627 -12.082  42.767  0.00  0.00     0.029 C 
ENDBRANCH  21  22
ENDBRANCH  18  21
ENDBRANCH   2  15
TORSDOF 6
ENDMDL
