MODEL 1
REMARK VINA RESULT:      16.1      0.000      0.000
REMARK  1 active torsions:
REMARK  status: ('A' for Active; 'I' for Inactive)
REMARK    1  A    between atoms: C_8  and  C_4 
ROOT
ATOM      1  N   UNL d   1      13.137  12.122  -1.962  0.00  0.00    -0.211 NA
ATOM      2  C   UNL d   1      13.405  12.089  -1.182  0.00  0.00     0.140 A 
ATOM      3  C   UNL d   1      14.163  12.361  -0.982  0.00  0.00     0.051 A 
ATOM      4  C   UNL d   1      13.629  12.432  -2.553  0.00  0.00     0.183 A 
ATOM      5  C   UNL d   1      14.664  12.676  -1.584  0.00  0.00     0.104 A 
ATOM      6  O   UNL d   1      14.389  12.707  -2.363  0.00  0.00    -0.289 OA
ATOM      7  S   UNL d   1      12.913  11.779  -0.590  0.00  0.00    -0.057 SA
ATOM      8  C   UNL d   1      14.440  12.332  -0.206  0.00  0.00     0.004 A 
ATOM      9  C   UNL d   1      15.412  12.947  -1.394  0.00  0.00     0.025 A 
ATOM     10  C   UNL d   1      15.194  12.604  -0.015  0.00  0.00     0.000 A 
ATOM     11  C   UNL d   1      15.687  12.915  -0.608  0.00  0.00     0.002 A 
ENDROOT
BRANCH   4  12
ATOM     12  C   UNL d   1      13.362  12.468  -3.343  0.00  0.00     0.041 A 
ATOM     13  C   UNL d   1      13.158  13.192  -3.676  0.00  0.00     0.004 A 
ATOM     14  C   UNL d   1      12.896  13.225  -4.449  0.00  0.00     0.000 A 
ATOM     15  C   UNL d   1      12.838  12.534  -4.895  0.00  0.00     0.000 A 
ATOM     16  C   UNL d   1      13.042  11.817  -4.560  0.00  0.00     0.000 A 
ATOM     17  C   UNL d   1      13.309  11.781  -3.771  0.00  0.00     0.004 A 
ENDBRANCH   4  12
TORSDOF 1
ENDMDL
