MODEL 1
REMARK VINA RESULT:      -3.0      0.000      0.000
REMARK  4 active torsions:
REMARK  status: ('A' for Active; 'I' for Inactive)
REMARK    1  A    between atoms: C_23  and  N_1 
REMARK       I    between atoms: N_7  and  C_10 
REMARK    2  A    between atoms: C_10  and  C_25 
REMARK    3  A    between atoms: C_26  and  C_23 
REMARK    4  A    between atoms: C_25  and  C_26 
ROOT
ATOM      1  N   UNL d   1      58.732  -1.691  29.063  0.00  0.00    -0.249 N 
ATOM      2  C   UNL d   1      58.705  -2.499  29.224  0.00  0.00     0.268 A 
ATOM      3  C   UNL d   1      59.387  -1.372  28.698  0.00  0.00     0.208 A 
ATOM      4  C   UNL d   1      59.339  -2.986  29.018  0.00  0.00     0.076 A 
ATOM      5  C   UNL d   1      59.994  -2.666  28.654  0.00  0.00     0.090 A 
ATOM      6  N   UNL d   1      60.002  -1.866  28.502  0.00  0.00    -0.218 NA
ATOM      7  C   UNL d   1      59.313  -3.797  29.180  0.00  0.00     0.033 A 
ATOM      8  C   UNL d   1      60.612  -3.166  28.458  0.00  0.00     0.046 A 
ATOM      9  C   UNL d   1      59.953  -4.296  28.973  0.00  0.00     0.119 A 
ATOM     10  C   UNL d   1      60.603  -3.965  28.609  0.00  0.00     0.121 A 
ATOM     11  S   UNL d   1      59.395  -0.557  28.544  0.00  0.00    -0.038 SA
ATOM     12  O   UNL d   1      58.056  -2.815  29.586  0.00  0.00    -0.267 OA
ATOM     13  O   UNL d   1      60.094  -5.102  29.056  0.00  0.00    -0.300 OA
ATOM     14  O   UNL d   1      61.133  -4.591  28.477  0.00  0.00    -0.299 OA
ATOM     15  C   UNL d   1      60.826  -5.292  28.750  0.00  0.00     0.304 A 
ENDROOT
BRANCH   1  16
ATOM     16  C   UNL d   1      58.093  -1.193  29.269  0.00  0.00     0.085 C 
BRANCH  16  17
ATOM     17  C   UNL d   1      58.220  -0.571  29.767  0.00  0.00     0.024 C 
BRANCH  17  18
ATOM     18  C   UNL d   1      57.695  -0.437  30.374  0.00  0.00     0.063 C 
BRANCH  18  19
ATOM     19  C   UNL d   1      57.873   0.107  30.943  0.00  0.00     0.265 C 
ATOM     20  N   UNL d   1      57.448   0.104  31.649  0.00  0.00    -0.272 N 
ATOM     21  C   UNL d   1      56.844  -0.459  31.760  0.00  0.00     0.083 A 
ATOM     22  C   UNL d   1      57.621   0.654  32.237  0.00  0.00     0.083 A 
ATOM     23  C   UNL d   1      56.414  -0.466  32.467  0.00  0.00     0.018 A 
ATOM     24  C   UNL d   1      55.817  -1.021  32.577  0.00  0.00     0.002 A 
ATOM     25  C   UNL d   1      56.585   0.089  33.067  0.00  0.00     0.003 A 
ATOM     26  C   UNL d   1      55.388  -1.027  33.285  0.00  0.00     0.000 A 
ATOM     27  C   UNL d   1      55.557  -0.475  33.882  0.00  0.00     0.000 A 
ATOM     28  C   UNL d   1      56.158   0.082  33.769  0.00  0.00     0.000 A 
ATOM     29  C   UNL d   1      57.190   0.649  32.948  0.00  0.00     0.019 A 
ATOM     30  O   UNL d   1      58.485   0.654  30.794  0.00  0.00    -0.267 OA
ENDBRANCH  18  19
ENDBRANCH  17  18
ENDBRANCH  16  17
ENDBRANCH   1  16
TORSDOF 4
ENDMDL
MODEL 2
REMARK VINA RESULT:      -1.0      1.954      5.932
REMARK  4 active torsions:
REMARK  status: ('A' for Active; 'I' for Inactive)
REMARK    1  A    between atoms: C_23  and  N_1 
REMARK       I    between atoms: N_7  and  C_10 
REMARK    2  A    between atoms: C_10  and  C_25 
REMARK    3  A    between atoms: C_26  and  C_23 
REMARK    4  A    between atoms: C_25  and  C_26 
ROOT
ATOM      1  N   UNL d   1      57.402   0.677  31.640  0.00  0.00    -0.249 N 
ATOM      2  C   UNL d   1      57.649   0.678  32.426  0.00  0.00     0.268 A 
ATOM      3  C   UNL d   1      56.607   0.674  31.463  0.00  0.00     0.208 A 
ATOM      4  C   UNL d   1      57.092   0.675  33.036  0.00  0.00     0.076 A 
ATOM      5  C   UNL d   1      56.296   0.671  32.859  0.00  0.00     0.090 A 
ATOM      6  N   UNL d   1      56.073   0.671  32.075  0.00  0.00    -0.218 NA
ATOM      7  C   UNL d   1      57.337   0.676  33.827  0.00  0.00     0.033 A 
ATOM      8  C   UNL d   1      55.761   0.668  33.478  0.00  0.00     0.046 A 
ATOM      9  C   UNL d   1      56.778   0.673  34.449  0.00  0.00     0.119 A 
ATOM     10  C   UNL d   1      55.985   0.669  34.259  0.00  0.00     0.121 A 
ATOM     11  S   UNL d   1      56.379   0.673  30.665  0.00  0.00    -0.038 SA
ATOM     12  O   UNL d   1      58.436   0.682  32.601  0.00  0.00    -0.267 OA
ATOM     13  O   UNL d   1      56.841   0.673  35.268  0.00  0.00    -0.300 OA
ATOM     14  O   UNL d   1      55.578   0.667  34.984  0.00  0.00    -0.299 OA
ATOM     15  C   UNL d   1      56.099   0.669  35.608  0.00  0.00     0.304 A 
ENDROOT
BRANCH   1  16
ATOM     16  C   UNL d   1      57.962   0.680  31.017  0.00  0.00     0.085 C 
BRANCH  16  17
ATOM     17  C   UNL d   1      58.518   0.096  30.981  0.00  0.00     0.024 C 
BRANCH  17  18
ATOM     18  C   UNL d   1      58.764  -0.169  30.253  0.00  0.00     0.063 C 
BRANCH  18  19
ATOM     19  C   UNL d   1      59.523  -0.427  30.159  0.00  0.00     0.265 C 
ATOM     20  N   UNL d   1      59.659  -1.156  29.799  0.00  0.00    -0.272 N 
ATOM     21  C   UNL d   1      59.010  -1.611  29.540  0.00  0.00     0.083 A 
ATOM     22  C   UNL d   1      60.429  -1.430  29.697  0.00  0.00     0.083 A 
ATOM     23  C   UNL d   1      59.140  -2.343  29.178  0.00  0.00     0.018 A 
ATOM     24  C   UNL d   1      58.501  -2.793  28.923  0.00  0.00     0.002 A 
ATOM     25  C   UNL d   1      59.919  -2.626  29.072  0.00  0.00     0.003 A 
ATOM     26  C   UNL d   1      58.633  -3.526  28.561  0.00  0.00     0.000 A 
ATOM     27  C   UNL d   1      59.407  -3.807  28.455  0.00  0.00     0.000 A 
ATOM     28  C   UNL d   1      60.048  -3.353  28.713  0.00  0.00     0.000 A 
ATOM     29  C   UNL d   1      60.562  -2.165  29.334  0.00  0.00     0.019 A 
ATOM     30  O   UNL d   1      60.146   0.058  30.431  0.00  0.00    -0.267 OA
ENDBRANCH  18  19
ENDBRANCH  17  18
ENDBRANCH  16  17
ENDBRANCH   1  16
TORSDOF 4
ENDMDL
