MODEL 1
REMARK VINA RESULT:      -6.6      0.000      0.000
REMARK  6 active torsions:
REMARK  status: ('A' for Active; 'I' for Inactive)
REMARK    1  A    between atoms: C_2  and  S_1 
REMARK    2  A    between atoms: N_5  and  S_1 
REMARK    3  A    between atoms: O_14  and  C_4 
REMARK    4  A    between atoms: C_11  and  N_5 
REMARK    5  A    between atoms: C_15  and  C_11 
REMARK    6  A    between atoms: C_18  and  O_14 
ROOT
ATOM      1  C   UNL d   1     -47.023  13.627  22.750  0.00  0.00     0.129 A 
ATOM      2  C   UNL d   1     -47.182  14.402  22.526  0.00  0.00     0.026 A 
ATOM      3  C   UNL d   1     -47.622  13.161  23.070  0.00  0.00     0.112 A 
ATOM      4  C   UNL d   1     -47.940  14.713  22.621  0.00  0.00     0.059 A 
ATOM      5  C   UNL d   1     -48.380  13.472  23.165  0.00  0.00     0.026 A 
ATOM      6  C   UNL d   1     -48.540  14.248  22.941  0.00  0.00     0.013 A 
ATOM      7 CL   UNL d   1     -48.100  15.489  22.396  0.00  0.00    -0.082 Cl
ATOM      8  C   UNL d   1     -49.298  14.559  23.036  0.00  0.00     0.001 C 
ENDROOT
BRANCH   1   9
ATOM      9  S   UNL d   1     -46.265  13.316  22.655  0.00  0.00     0.287 S 
ATOM     10  O   UNL d   1     -46.474  13.034  21.908  0.00  0.00    -0.198 OA
ATOM     11  O   UNL d   1     -46.056  13.598  23.401  0.00  0.00    -0.198 OA
BRANCH   9  12
ATOM     12  N   UNL d   1     -45.507  13.005  22.560  0.00  0.00    -0.155 NA
BRANCH  12  13
ATOM     13  C   UNL d   1     -45.077  13.167  21.875  0.00  0.00     0.137 C 
BRANCH  13  14
ATOM     14  C   UNL d   1     -44.308  12.879  21.792  0.00  0.00     0.120 A 
ATOM     15  O   UNL d   1     -44.014  12.194  22.133  0.00  0.00    -0.304 OA
ATOM     16  C   UNL d   1     -43.226  12.119  21.906  0.00  0.00     0.123 A 
ATOM     17  C   UNL d   1     -43.034  12.760  21.423  0.00  0.00     0.029 A 
ATOM     18  C   UNL d   1     -43.711  13.229  21.356  0.00  0.00     0.028 A 
ENDBRANCH  13  14
ENDBRANCH  12  13
ENDBRANCH   9  12
ENDBRANCH   1   9
BRANCH   3  19
ATOM     19  O   UNL d   1     -47.465  12.381  23.297  0.00  0.00    -0.304 OA
BRANCH  19  20
ATOM     20  C   UNL d   1     -48.080  11.890  23.535  0.00  0.00     0.123 C 
ATOM     21  C   UNL d   1     -47.935  11.088  23.697  0.00  0.00     0.029 C 
ENDBRANCH  19  20
ENDBRANCH   3  19
TORSDOF 6
ENDMDL
MODEL 2
REMARK VINA RESULT:      -6.6      1.359      1.842
REMARK  6 active torsions:
REMARK  status: ('A' for Active; 'I' for Inactive)
REMARK    1  A    between atoms: C_2  and  S_1 
REMARK    2  A    between atoms: N_5  and  S_1 
REMARK    3  A    between atoms: O_14  and  C_4 
REMARK    4  A    between atoms: C_11  and  N_5 
REMARK    5  A    between atoms: C_15  and  C_11 
REMARK    6  A    between atoms: C_18  and  O_14 
ROOT
ATOM      1  C   UNL d   1     -48.799  13.920  22.986  0.00  0.00     0.129 A 
ATOM      2  C   UNL d   1     -48.875  14.737  22.923  0.00  0.00     0.026 A 
ATOM      3  C   UNL d   1     -49.438  13.467  23.239  0.00  0.00     0.112 A 
ATOM      4  C   UNL d   1     -49.591  15.101  23.113  0.00  0.00     0.059 A 
ATOM      5  C   UNL d   1     -50.154  13.831  23.428  0.00  0.00     0.026 A 
ATOM      6  C   UNL d   1     -50.230  14.649  23.365  0.00  0.00     0.013 A 
ATOM      7 CL   UNL d   1     -49.667  15.919  23.049  0.00  0.00    -0.082 Cl
ATOM      8  C   UNL d   1     -50.946  15.013  23.555  0.00  0.00     0.001 C 
ENDROOT
BRANCH   1   9
ATOM      9  S   UNL d   1     -48.084  13.556  22.796  0.00  0.00     0.287 S 
ATOM     10  O   UNL d   1     -48.316  13.512  22.006  0.00  0.00    -0.198 OA
ATOM     11  O   UNL d   1     -47.852  13.600  23.587  0.00  0.00    -0.198 OA
BRANCH   9  12
ATOM     12  N   UNL d   1     -47.368  13.192  22.607  0.00  0.00    -0.155 NA
BRANCH  12  13
ATOM     13  C   UNL d   1     -46.655  13.557  22.799  0.00  0.00     0.137 C 
BRANCH  13  14
ATOM     14  C   UNL d   1     -45.940  13.212  22.575  0.00  0.00     0.120 A 
ATOM     15  O   UNL d   1     -45.631  12.513  22.873  0.00  0.00    -0.304 OA
ATOM     16  C   UNL d   1     -44.912  12.376  22.497  0.00  0.00     0.123 A 
ATOM     17  C   UNL d   1     -44.777  12.992  21.964  0.00  0.00     0.029 A 
ATOM     18  C   UNL d   1     -45.420  13.508  22.017  0.00  0.00     0.028 A 
ENDBRANCH  13  14
ENDBRANCH  12  13
ENDBRANCH   9  12
ENDBRANCH   1   9
BRANCH   3  19
ATOM     19  O   UNL d   1     -49.364  12.646  23.303  0.00  0.00    -0.304 OA
BRANCH  19  20
ATOM     20  C   UNL d   1     -50.004  12.192  23.552  0.00  0.00     0.123 C 
ATOM     21  C   UNL d   1     -49.909  11.380  23.698  0.00  0.00     0.029 C 
ENDBRANCH  19  20
ENDBRANCH   3  19
TORSDOF 6
ENDMDL
MODEL 3
REMARK VINA RESULT:      -6.1      1.790      2.697
REMARK  6 active torsions:
REMARK  status: ('A' for Active; 'I' for Inactive)
REMARK    1  A    between atoms: C_2  and  S_1 
REMARK    2  A    between atoms: N_5  and  S_1 
REMARK    3  A    between atoms: O_14  and  C_4 
REMARK    4  A    between atoms: C_11  and  N_5 
REMARK    5  A    between atoms: C_15  and  C_11 
REMARK    6  A    between atoms: C_18  and  O_14 
ROOT
ATOM      1  C   UNL d   1     -48.757  12.882  23.078  0.00  0.00     0.129 A 
ATOM      2  C   UNL d   1     -48.925  12.103  23.284  0.00  0.00     0.026 A 
ATOM      3  C   UNL d   1     -49.358  13.446  23.078  0.00  0.00     0.112 A 
ATOM      4  C   UNL d   1     -49.694  11.887  23.490  0.00  0.00     0.059 A 
ATOM      5  C   UNL d   1     -50.127  13.229  23.284  0.00  0.00     0.026 A 
ATOM      6  C   UNL d   1     -50.295  12.449  23.490  0.00  0.00     0.013 A 
ATOM      7 CL   UNL d   1     -49.863  11.107  23.696  0.00  0.00    -0.082 Cl
ATOM      8  C   UNL d   1     -51.064  12.233  23.696  0.00  0.00     0.001 C 
ENDROOT
BRANCH   1   9
ATOM      9  S   UNL d   1     -47.988  13.098  22.872  0.00  0.00     0.287 S 
ATOM     10  O   UNL d   1     -47.829  13.283  23.660  0.00  0.00    -0.198 OA
ATOM     11  O   UNL d   1     -48.147  12.914  22.084  0.00  0.00    -0.198 OA
BRANCH   9  12
ATOM     12  N   UNL d   1     -47.219  13.315  22.666  0.00  0.00    -0.155 NA
BRANCH  12  13
ATOM     13  C   UNL d   1     -46.591  12.806  22.824  0.00  0.00     0.137 C 
BRANCH  13  14
ATOM     14  C   UNL d   1     -45.847  12.955  22.501  0.00  0.00     0.120 A 
ATOM     15  O   UNL d   1     -45.572  13.686  22.248  0.00  0.00    -0.304 OA
ATOM     16  C   UNL d   1     -44.806  13.582  21.966  0.00  0.00     0.123 A 
ATOM     17  C   UNL d   1     -44.607  12.786  22.046  0.00  0.00     0.029 A 
ATOM     18  C   UNL d   1     -45.257  12.401  22.379  0.00  0.00     0.028 A 
ENDBRANCH  13  14
ENDBRANCH  12  13
ENDBRANCH   9  12
ENDBRANCH   1   9
BRANCH   3  19
ATOM     19  O   UNL d   1     -49.192  14.229  22.872  0.00  0.00    -0.304 OA
BRANCH  19  20
ATOM     20  C   UNL d   1     -49.786  14.797  22.898  0.00  0.00     0.123 C 
ATOM     21  C   UNL d   1     -49.630  15.576  22.656  0.00  0.00     0.029 C 
ENDBRANCH  19  20
ENDBRANCH   3  19
TORSDOF 6
ENDMDL
MODEL 4
REMARK VINA RESULT:      -4.7      6.968      8.464
REMARK  6 active torsions:
REMARK  status: ('A' for Active; 'I' for Inactive)
REMARK    1  A    between atoms: C_2  and  S_1 
REMARK    2  A    between atoms: N_5  and  S_1 
REMARK    3  A    between atoms: O_14  and  C_4 
REMARK    4  A    between atoms: C_11  and  N_5 
REMARK    5  A    between atoms: C_15  and  C_11 
REMARK    6  A    between atoms: C_18  and  O_14 
ROOT
ATOM      1  C   UNL d   1     -39.074  14.271  20.260  0.00  0.00     0.129 A 
ATOM      2  C   UNL d   1     -38.513  13.737  20.537  0.00  0.00     0.026 A 
ATOM      3  C   UNL d   1     -39.625  14.594  20.779  0.00  0.00     0.112 A 
ATOM      4  C   UNL d   1     -38.502  13.526  21.334  0.00  0.00     0.059 A 
ATOM      5  C   UNL d   1     -39.615  14.383  21.576  0.00  0.00     0.026 A 
ATOM      6  C   UNL d   1     -39.053  13.848  21.854  0.00  0.00     0.013 A 
ATOM      7 CL   UNL d   1     -37.941  12.991  21.612  0.00  0.00    -0.082 Cl
ATOM      8  C   UNL d   1     -39.042  13.636  22.651  0.00  0.00     0.001 C 
ENDROOT
BRANCH   1   9
ATOM      9  S   UNL d   1     -39.085  14.483  19.462  0.00  0.00     0.287 S 
ATOM     10  O   UNL d   1     -38.548  15.090  19.616  0.00  0.00    -0.198 OA
ATOM     11  O   UNL d   1     -39.621  13.876  19.308  0.00  0.00    -0.198 OA
BRANCH   9  12
ATOM     12  N   UNL d   1     -39.095  14.695  18.665  0.00  0.00    -0.155 NA
BRANCH  12  13
ATOM     13  C   UNL d   1     -38.717  14.221  18.107  0.00  0.00     0.137 C 
BRANCH  13  14
ATOM     14  C   UNL d   1     -38.704  14.447  17.313  0.00  0.00     0.120 A 
ATOM     15  O   UNL d   1     -38.834  15.205  17.029  0.00  0.00    -0.304 OA
ATOM     16  C   UNL d   1     -38.769  15.180  16.209  0.00  0.00     0.123 A 
ATOM     17  C   UNL d   1     -38.600  14.404  15.987  0.00  0.00     0.029 A 
ATOM     18  C   UNL d   1     -38.561  13.953  16.677  0.00  0.00     0.028 A 
ENDBRANCH  13  14
ENDBRANCH  12  13
ENDBRANCH   9  12
ENDBRANCH   1   9
BRANCH   3  19
ATOM     19  O   UNL d   1     -40.190  15.131  20.503  0.00  0.00    -0.304 OA
BRANCH  19  20
ATOM     20  C   UNL d   1     -40.714  15.486  21.029  0.00  0.00     0.123 C 
ATOM     21  C   UNL d   1     -41.361  15.922  20.745  0.00  0.00     0.029 C 
ENDBRANCH  19  20
ENDBRANCH   3  19
TORSDOF 6
ENDMDL
MODEL 5
REMARK VINA RESULT:      -4.4      5.575      7.561
REMARK  6 active torsions:
REMARK  status: ('A' for Active; 'I' for Inactive)
REMARK    1  A    between atoms: C_2  and  S_1 
REMARK    2  A    between atoms: N_5  and  S_1 
REMARK    3  A    between atoms: O_14  and  C_4 
REMARK    4  A    between atoms: C_11  and  N_5 
REMARK    5  A    between atoms: C_15  and  C_11 
REMARK    6  A    between atoms: C_18  and  O_14 
ROOT
ATOM      1  C   UNL d   1     -40.025  14.577  20.237  0.00  0.00     0.129 A 
ATOM      2  C   UNL d   1     -39.231  14.744  20.377  0.00  0.00     0.026 A 
ATOM      3  C   UNL d   1     -40.478  14.217  20.822  0.00  0.00     0.112 A 
ATOM      4  C   UNL d   1     -38.890  14.550  21.103  0.00  0.00     0.059 A 
ATOM      5  C   UNL d   1     -40.138  14.023  21.548  0.00  0.00     0.026 A 
ATOM      6  C   UNL d   1     -39.343  14.190  21.688  0.00  0.00     0.013 A 
ATOM      7 CL   UNL d   1     -38.096  14.716  21.243  0.00  0.00    -0.082 Cl
ATOM      8  C   UNL d   1     -39.002  13.996  22.414  0.00  0.00     0.001 C 
ENDROOT
BRANCH   1   9
ATOM      9  S   UNL d   1     -40.366  14.771  19.511  0.00  0.00     0.287 S 
ATOM     10  O   UNL d   1     -40.132  14.041  19.206  0.00  0.00    -0.198 OA
ATOM     11  O   UNL d   1     -40.599  15.501  19.816  0.00  0.00    -0.198 OA
BRANCH   9  12
ATOM     12  N   UNL d   1     -40.707  14.965  18.785  0.00  0.00    -0.155 NA
BRANCH  12  13
ATOM     13  C   UNL d   1     -40.230  15.087  18.124  0.00  0.00     0.137 C 
BRANCH  13  14
ATOM     14  C   UNL d   1     -40.564  15.340  17.414  0.00  0.00     0.120 A 
ATOM     15  O   UNL d   1     -41.325  15.172  17.156  0.00  0.00    -0.304 OA
ATOM     16  C   UNL d   1     -41.427  15.531  16.423  0.00  0.00     0.123 A 
ATOM     17  C   UNL d   1     -40.727  15.922  16.227  0.00  0.00     0.029 A 
ATOM     18  C   UNL d   1     -40.195  15.799  16.847  0.00  0.00     0.028 A 
ENDBRANCH  13  14
ENDBRANCH  12  13
ENDBRANCH   9  12
ENDBRANCH   1   9
BRANCH   3  19
ATOM     19  O   UNL d   1     -41.276  14.049  20.683  0.00  0.00    -0.304 OA
BRANCH  19  20
ATOM     20  C   UNL d   1     -41.711  13.627  21.240  0.00  0.00     0.123 C 
ATOM     21  C   UNL d   1     -42.495  13.406  21.077  0.00  0.00     0.029 C 
ENDBRANCH  19  20
ENDBRANCH   3  19
TORSDOF 6
ENDMDL
MODEL 6
REMARK VINA RESULT:      -4.4      7.053      8.465
REMARK  6 active torsions:
REMARK  status: ('A' for Active; 'I' for Inactive)
REMARK    1  A    between atoms: C_2  and  S_1 
REMARK    2  A    between atoms: N_5  and  S_1 
REMARK    3  A    between atoms: O_14  and  C_4 
REMARK    4  A    between atoms: C_11  and  N_5 
REMARK    5  A    between atoms: C_15  and  C_11 
REMARK    6  A    between atoms: C_18  and  O_14 
ROOT
ATOM      1  C   UNL d   1     -39.635  14.751  19.303  0.00  0.00     0.129 A 
ATOM      2  C   UNL d   1     -40.305  15.223  19.234  0.00  0.00     0.026 A 
ATOM      3  C   UNL d   1     -39.382  14.502  20.046  0.00  0.00     0.112 A 
ATOM      4  C   UNL d   1     -40.723  15.448  19.909  0.00  0.00     0.059 A 
ATOM      5  C   UNL d   1     -39.800  14.728  20.721  0.00  0.00     0.026 A 
ATOM      6  C   UNL d   1     -40.471  15.201  20.652  0.00  0.00     0.013 A 
ATOM      7 CL   UNL d   1     -41.394  15.922  19.840  0.00  0.00    -0.082 Cl
ATOM      8  C   UNL d   1     -40.888  15.426  21.327  0.00  0.00     0.001 C 
ENDROOT
BRANCH   1   9
ATOM      9  S   UNL d   1     -39.217  14.525  18.628  0.00  0.00     0.287 S 
ATOM     10  O   UNL d   1     -39.683  13.847  18.566  0.00  0.00    -0.198 OA
ATOM     11  O   UNL d   1     -38.752  15.204  18.689  0.00  0.00    -0.198 OA
BRANCH   9  12
ATOM     12  N   UNL d   1     -38.800  14.300  17.953  0.00  0.00    -0.155 NA
BRANCH  12  13
ATOM     13  C   UNL d   1     -39.149  14.367  17.210  0.00  0.00     0.137 C 
BRANCH  13  14
ATOM     14  C   UNL d   1     -38.700  14.237  16.529  0.00  0.00     0.120 A 
ATOM     15  O   UNL d   1     -38.559  14.787  15.937  0.00  0.00    -0.304 OA
ATOM     16  C   UNL d   1     -38.088  14.425  15.366  0.00  0.00     0.123 A 
ATOM     17  C   UNL d   1     -37.940  13.650  15.607  0.00  0.00     0.029 A 
ATOM     18  C   UNL d   1     -38.323  13.540  16.330  0.00  0.00     0.028 A 
ENDBRANCH  13  14
ENDBRANCH  12  13
ENDBRANCH   9  12
ENDBRANCH   1   9
BRANCH   3  19
ATOM     19  O   UNL d   1     -38.709  14.027  20.117  0.00  0.00    -0.304 OA
BRANCH  19  20
ATOM     20  C   UNL d   1     -38.385  13.881  20.859  0.00  0.00     0.123 C 
ATOM     21  C   UNL d   1     -37.952  13.186  20.996  0.00  0.00     0.029 C 
ENDBRANCH  19  20
ENDBRANCH   3  19
TORSDOF 6
ENDMDL
MODEL 7
REMARK VINA RESULT:      -3.8      6.739      8.023
REMARK  6 active torsions:
REMARK  status: ('A' for Active; 'I' for Inactive)
REMARK    1  A    between atoms: C_2  and  S_1 
REMARK    2  A    between atoms: N_5  and  S_1 
REMARK    3  A    between atoms: O_14  and  C_4 
REMARK    4  A    between atoms: C_11  and  N_5 
REMARK    5  A    between atoms: C_15  and  C_11 
REMARK    6  A    between atoms: C_18  and  O_14 
ROOT
ATOM      1  C   UNL d   1     -39.429  14.503  19.670  0.00  0.00     0.129 A 
ATOM      2  C   UNL d   1     -39.062  14.158  19.020  0.00  0.00     0.026 A 
ATOM      3  C   UNL d   1     -40.115  14.946  19.567  0.00  0.00     0.112 A 
ATOM      4  C   UNL d   1     -39.380  14.257  18.265  0.00  0.00     0.059 A 
ATOM      5  C   UNL d   1     -40.433  15.045  18.813  0.00  0.00     0.026 A 
ATOM      6  C   UNL d   1     -40.066  14.700  18.161  0.00  0.00     0.013 A 
ATOM      7 CL   UNL d   1     -39.012  13.911  17.614  0.00  0.00    -0.082 Cl
ATOM      8  C   UNL d   1     -40.384  14.798  17.406  0.00  0.00     0.001 C 
ENDROOT
BRANCH   1   9
ATOM      9  S   UNL d   1     -39.111  14.404  20.425  0.00  0.00     0.287 S 
ATOM     10  O   UNL d   1     -38.656  15.085  20.322  0.00  0.00    -0.198 OA
ATOM     11  O   UNL d   1     -39.565  13.723  20.528  0.00  0.00    -0.198 OA
BRANCH   9  12
ATOM     12  N   UNL d   1     -38.792  14.306  21.180  0.00  0.00    -0.155 NA
BRANCH  12  13
ATOM     13  C   UNL d   1     -38.638  13.549  21.468  0.00  0.00     0.137 C 
BRANCH  13  14
ATOM     14  C   UNL d   1     -38.382  13.446  22.245  0.00  0.00     0.120 A 
ATOM     15  O   UNL d   1     -38.153  12.735  22.584  0.00  0.00    -0.304 OA
ATOM     16  C   UNL d   1     -37.940  12.887  23.365  0.00  0.00     0.123 A 
ATOM     17  C   UNL d   1     -38.038  13.693  23.508  0.00  0.00     0.029 A 
ATOM     18  C   UNL d   1     -38.312  14.036  22.808  0.00  0.00     0.028 A 
ENDBRANCH  13  14
ENDBRANCH  12  13
ENDBRANCH   9  12
ENDBRANCH   1   9
BRANCH   3  19
ATOM     19  O   UNL d   1     -40.486  15.294  20.220  0.00  0.00    -0.304 OA
BRANCH  19  20
ATOM     20  C   UNL d   1     -41.127  15.797  20.109  0.00  0.00     0.123 C 
ATOM     21  C   UNL d   1     -41.673  15.920  20.723  0.00  0.00     0.029 C 
ENDBRANCH  19  20
ENDBRANCH   3  19
TORSDOF 6
ENDMDL
