MODEL 1
REMARK VINA RESULT:      73.3      0.000      0.000
REMARK  4 active torsions:
REMARK  status: ('A' for Active; 'I' for Inactive)
REMARK    1  A    between atoms: S_9  and  C_2 
REMARK    2  A    between atoms: C_11  and  C_3 
REMARK    3  A    between atoms: C_7  and  C_10 
REMARK       I    between atoms: N_8  and  C_7 
REMARK    4  A    between atoms: C_10  and  S_9 
ROOT
ATOM      1  N   UNL d   1     -50.013  26.517  33.594  0.00  0.00    -0.220 NA
ATOM      2  C   UNL d   1     -50.035  27.332  33.638  0.00  0.00     0.114 A 
ATOM      3  C   UNL d   1     -50.701  26.087  33.456  0.00  0.00     0.163 A 
ATOM      4  N   UNL d   1     -51.421  26.483  33.360  0.00  0.00    -0.227 NA
ATOM      5  C   UNL d   1     -50.754  27.728  33.543  0.00  0.00     0.042 A 
ATOM      6  C   UNL d   1     -51.451  27.308  33.403  0.00  0.00     0.085 A 
ATOM      7  C   UNL d   1     -50.779  28.552  33.586  0.00  0.00     0.004 A 
ATOM      8  C   UNL d   1     -52.159  27.687  33.309  0.00  0.00     0.019 A 
ATOM      9  C   UNL d   1     -51.503  28.938  33.489  0.00  0.00     0.000 A 
ATOM     10  C   UNL d   1     -52.195  28.502  33.350  0.00  0.00     0.002 A 
ENDROOT
BRANCH   2  11
ATOM     11  S   UNL d   1     -49.344  27.768  33.777  0.00  0.00    -0.062 SA
BRANCH  11  12
ATOM     12  C   UNL d   1     -49.108  27.946  34.547  0.00  0.00     0.098 C 
BRANCH  12  13
ATOM     13  C   UNL d   1     -48.313  28.001  34.730  0.00  0.00     0.272 C 
ATOM     14  N   UNL d   1     -48.011  28.701  35.066  0.00  0.00    -0.267 N 
ATOM     15  C   UNL d   1     -47.204  28.751  35.250  0.00  0.00     0.110 A 
ATOM     16  C   UNL d   1     -48.511  29.327  35.211  0.00  0.00     0.110 A 
ATOM     17  C   UNL d   1     -46.907  29.439  35.581  0.00  0.00     0.142 A 
ATOM     18  O   UNL d   1     -47.411  30.078  35.730  0.00  0.00    -0.300 OA
ATOM     19  C   UNL d   1     -48.215  30.016  35.543  0.00  0.00     0.142 A 
ATOM     20  O   UNL d   1     -47.809  27.363  34.581  0.00  0.00    -0.266 OA
ENDBRANCH  12  13
ENDBRANCH  11  12
ENDBRANCH   2  11
BRANCH   3  21
ATOM     21  C   UNL d   1     -50.678  25.257  33.411  0.00  0.00     0.036 A 
ATOM     22  C   UNL d   1     -51.384  24.830  33.416  0.00  0.00     0.003 A 
ATOM     23  C   UNL d   1     -51.359  24.007  33.371  0.00  0.00     0.000 A 
ATOM     24  C   UNL d   1     -50.631  23.619  33.323  0.00  0.00     0.000 A 
ATOM     25  C   UNL d   1     -49.928  24.054  33.320  0.00  0.00     0.000 A 
ATOM     26  C   UNL d   1     -49.962  24.875  33.364  0.00  0.00     0.003 A 
ENDBRANCH   3  21
TORSDOF 4
ENDMDL
MODEL 2
REMARK VINA RESULT:      74.4      3.438      4.740
REMARK  4 active torsions:
REMARK  status: ('A' for Active; 'I' for Inactive)
REMARK    1  A    between atoms: S_9  and  C_2 
REMARK    2  A    between atoms: C_11  and  C_3 
REMARK    3  A    between atoms: C_7  and  C_10 
REMARK       I    between atoms: N_8  and  C_7 
REMARK    4  A    between atoms: C_10  and  S_9 
ROOT
ATOM      1  N   UNL d   1     -52.217  25.463  34.866  0.00  0.00    -0.220 NA
ATOM      2  C   UNL d   1     -52.763  24.912  35.124  0.00  0.00     0.114 A 
ATOM      3  C   UNL d   1     -51.941  25.445  34.090  0.00  0.00     0.163 A 
ATOM      4  N   UNL d   1     -52.218  24.867  33.568  0.00  0.00    -0.227 NA
ATOM      5  C   UNL d   1     -53.040  24.335  34.603  0.00  0.00     0.042 A 
ATOM      6  C   UNL d   1     -52.771  24.307  33.823  0.00  0.00     0.085 A 
ATOM      7  C   UNL d   1     -53.591  23.778  34.861  0.00  0.00     0.004 A 
ATOM      8  C   UNL d   1     -53.036  23.745  33.306  0.00  0.00     0.019 A 
ATOM      9  C   UNL d   1     -53.862  23.204  34.332  0.00  0.00     0.000 A 
ATOM     10  C   UNL d   1     -53.582  23.189  33.552  0.00  0.00     0.002 A 
ENDROOT
BRANCH   2  11
ATOM     11  S   UNL d   1     -53.043  24.928  35.904  0.00  0.00    -0.062 SA
BRANCH  11  12
ATOM     12  C   UNL d   1     -52.647  25.362  36.483  0.00  0.00     0.098 C 
BRANCH  12  13
ATOM     13  C   UNL d   1     -52.827  25.250  37.273  0.00  0.00     0.272 C 
ATOM     14  N   UNL d   1     -52.381  25.639  37.859  0.00  0.00    -0.267 N 
ATOM     15  C   UNL d   1     -52.567  25.523  38.659  0.00  0.00     0.110 A 
ATOM     16  C   UNL d   1     -51.768  26.129  37.642  0.00  0.00     0.110 A 
ATOM     17  C   UNL d   1     -52.129  25.906  39.236  0.00  0.00     0.142 A 
ATOM     18  O   UNL d   1     -51.505  26.404  39.020  0.00  0.00    -0.300 OA
ATOM     19  C   UNL d   1     -51.328  26.512  38.218  0.00  0.00     0.142 A 
ATOM     20  O   UNL d   1     -53.450  24.753  37.490  0.00  0.00    -0.266 OA
ENDBRANCH  12  13
ENDBRANCH  11  12
ENDBRANCH   2  11
BRANCH   3  21
ATOM     21  C   UNL d   1     -51.386  26.005  33.827  0.00  0.00     0.036 A 
ATOM     22  C   UNL d   1     -50.592  25.790  33.759  0.00  0.00     0.003 A 
ATOM     23  C   UNL d   1     -50.042  26.346  33.498  0.00  0.00     0.000 A 
ATOM     24  C   UNL d   1     -50.290  27.112  33.308  0.00  0.00     0.000 A 
ATOM     25  C   UNL d   1     -51.087  27.320  33.380  0.00  0.00     0.000 A 
ATOM     26  C   UNL d   1     -51.629  26.758  33.641  0.00  0.00     0.003 A 
ENDBRANCH   3  21
TORSDOF 4
ENDMDL
