MODEL 1
REMARK VINA RESULT:      -4.3      0.000      0.000
REMARK  2 active torsions:
REMARK  status: ('A' for Active; 'I' for Inactive)
REMARK    1  A    between atoms: C_6  and  C_1 
REMARK    2  A    between atoms: C_8  and  C_6 
ROOT
ATOM      1  C   UNL d   1      57.387   0.676  32.022  0.00  0.00     0.141 A 
ATOM      2  C   UNL d   1      58.264   0.672  31.006  0.00  0.00     0.064 A 
ATOM      3  C   UNL d   1      58.191   0.677  31.830  0.00  0.00     0.220 A 
ATOM      4  C   UNL d   1      57.503   0.668  30.688  0.00  0.00     0.106 A 
ATOM      5  O   UNL d   1      56.958   0.671  31.310  0.00  0.00    -0.304 OA
ATOM      6  C   UNL d   1      58.928   0.670  30.508  0.00  0.00     0.008 A 
ATOM      7  C   UNL d   1      57.398   0.663  29.868  0.00  0.00     0.067 A 
ATOM      8  C   UNL d   1      58.823   0.665  29.691  0.00  0.00     0.042 A 
ATOM      9  C   UNL d   1      58.062   0.661  29.373  0.00  0.00     0.198 A 
ATOM     10  O   UNL d   1      58.816   0.682  32.375  0.00  0.00    -0.284 OA
ATOM     11  O   UNL d   1      57.955   0.656  28.557  0.00  0.00    -0.286 OA
ATOM     12  C   UNL d   1      59.688   0.674  30.830  0.00  0.00     0.000 C 
ENDROOT
BRANCH   1  13
ATOM     13  C   UNL d   1      57.062   0.680  32.780  0.00  0.00     0.053 C 
BRANCH  13  14
ATOM     14  C   UNL d   1      56.409   0.212  32.954  0.00  0.00     0.102 A 
ATOM     15  O   UNL d   1      56.377  -0.610  32.880  0.00  0.00    -0.305 OA
ATOM     16  C   UNL d   1      55.622  -0.849  33.114  0.00  0.00     0.123 A 
ATOM     17  C   UNL d   1      55.196  -0.183  33.329  0.00  0.00     0.029 A 
ATOM     18  C   UNL d   1      55.684   0.479  33.231  0.00  0.00     0.027 A 
ENDBRANCH  13  14
ENDBRANCH   1  13
TORSDOF 2
ENDMDL
MODEL 2
REMARK VINA RESULT:      -4.3      1.542      3.709
REMARK  2 active torsions:
REMARK  status: ('A' for Active; 'I' for Inactive)
REMARK    1  A    between atoms: C_6  and  C_1 
REMARK    2  A    between atoms: C_8  and  C_6 
ROOT
ATOM      1  C   UNL d   1      57.719  -0.405  30.713  0.00  0.00     0.141 A 
ATOM      2  C   UNL d   1      57.259  -0.204  31.956  0.00  0.00     0.064 A 
ATOM      3  C   UNL d   1      57.802   0.059  31.391  0.00  0.00     0.220 A 
ATOM      4  C   UNL d   1      56.838  -0.832  31.626  0.00  0.00     0.106 A 
ATOM      5  O   UNL d   1      57.118  -0.961  30.858  0.00  0.00    -0.304 OA
ATOM      6  C   UNL d   1      57.095   0.051  32.729  0.00  0.00     0.008 A 
ATOM      7  C   UNL d   1      56.250  -1.212  32.065  0.00  0.00     0.067 A 
ATOM      8  C   UNL d   1      56.509  -0.328  33.167  0.00  0.00     0.042 A 
ATOM      9  C   UNL d   1      56.089  -0.957  32.836  0.00  0.00     0.198 A 
ATOM     10  O   UNL d   1      58.341   0.682  31.485  0.00  0.00    -0.284 OA
ATOM     11  O   UNL d   1      55.503  -1.336  33.272  0.00  0.00    -0.286 OA
ATOM     12  C   UNL d   1      57.518   0.680  33.057  0.00  0.00     0.000 C 
ENDROOT
BRANCH   1  13
ATOM     13  C   UNL d   1      58.150  -0.336  30.013  0.00  0.00     0.053 C 
BRANCH  13  14
ATOM     14  C   UNL d   1      58.484  -1.000  29.662  0.00  0.00     0.102 A 
ATOM     15  O   UNL d   1      58.064  -1.611  29.298  0.00  0.00    -0.305 OA
ATOM     16  C   UNL d   1      58.616  -2.160  29.024  0.00  0.00     0.123 A 
ATOM     17  C   UNL d   1      59.365  -1.891  29.218  0.00  0.00     0.029 A 
ATOM     18  C   UNL d   1      59.286  -1.168  29.616  0.00  0.00     0.027 A 
ENDBRANCH  13  14
ENDBRANCH   1  13
TORSDOF 2
ENDMDL
MODEL 3
REMARK VINA RESULT:      -4.1      9.205     10.118
REMARK  2 active torsions:
REMARK  status: ('A' for Active; 'I' for Inactive)
REMARK    1  A    between atoms: C_6  and  C_1 
REMARK    2  A    between atoms: C_8  and  C_6 
ROOT
ATOM      1  C   UNL d   1      60.053  -8.693  35.043  0.00  0.00     0.141 A 
ATOM      2  C   UNL d   1      59.754  -9.265  33.867  0.00  0.00     0.064 A 
ATOM      3  C   UNL d   1      59.445  -9.028  34.597  0.00  0.00     0.220 A 
ATOM      4  C   UNL d   1      60.557  -9.074  33.863  0.00  0.00     0.106 A 
ATOM      5  O   UNL d   1      60.747  -8.721  34.586  0.00  0.00    -0.304 OA
ATOM      6  C   UNL d   1      59.406  -9.629  33.208  0.00  0.00     0.008 A 
ATOM      7  C   UNL d   1      61.019  -9.246  33.199  0.00  0.00     0.067 A 
ATOM      8  C   UNL d   1      59.866  -9.799  32.547  0.00  0.00     0.042 A 
ATOM      9  C   UNL d   1      60.669  -9.609  32.543  0.00  0.00     0.198 A 
ATOM     10  O   UNL d   1      58.657  -9.112  34.843  0.00  0.00    -0.284 OA
ATOM     11  O   UNL d   1      61.130  -9.779  31.883  0.00  0.00    -0.286 OA
ATOM     12  C   UNL d   1      58.602  -9.818  33.216  0.00  0.00     0.000 C 
ENDROOT
BRANCH   1  13
ATOM     13  C   UNL d   1      59.992  -8.383  35.806  0.00  0.00     0.053 C 
BRANCH  13  14
ATOM     14  C   UNL d   1      60.126  -7.584  35.942  0.00  0.00     0.102 A 
ATOM     15  O   UNL d   1      59.597  -6.974  35.768  0.00  0.00    -0.305 OA
ATOM     16  C   UNL d   1      59.955  -6.265  35.994  0.00  0.00     0.123 A 
ATOM     17  C   UNL d   1      60.695  -6.437  36.303  0.00  0.00     0.029 A 
ATOM     18  C   UNL d   1      60.803  -7.258  36.271  0.00  0.00     0.027 A 
ENDBRANCH  13  14
ENDBRANCH   1  13
TORSDOF 2
ENDMDL
MODEL 4
REMARK VINA RESULT:      -4.1      1.885      2.192
REMARK  2 active torsions:
REMARK  status: ('A' for Active; 'I' for Inactive)
REMARK    1  A    between atoms: C_6  and  C_1 
REMARK    2  A    between atoms: C_8  and  C_6 
ROOT
ATOM      1  C   UNL d   1      57.750  -0.396  30.568  0.00  0.00     0.141 A 
ATOM      2  C   UNL d   1      58.717  -0.742  29.705  0.00  0.00     0.064 A 
ATOM      3  C   UNL d   1      58.379  -0.109  30.116  0.00  0.00     0.220 A 
ATOM      4  C   UNL d   1      58.296  -1.423  29.905  0.00  0.00     0.106 A 
ATOM      5  O   UNL d   1      57.698  -1.215  30.437  0.00  0.00    -0.304 OA
ATOM      6  C   UNL d   1      59.355  -0.783  29.176  0.00  0.00     0.008 A 
ATOM      7  C   UNL d   1      58.508  -2.151  29.577  0.00  0.00     0.067 A 
ATOM      8  C   UNL d   1      59.566  -1.509  28.849  0.00  0.00     0.042 A 
ATOM      9  C   UNL d   1      59.145  -2.190  29.049  0.00  0.00     0.198 A 
ATOM     10  O   UNL d   1      58.626   0.682  30.082  0.00  0.00    -0.284 OA
ATOM     11  O   UNL d   1      59.355  -2.916  28.723  0.00  0.00    -0.286 OA
ATOM     12  C   UNL d   1      59.775  -0.100  28.978  0.00  0.00     0.000 C 
ENDROOT
BRANCH   1  13
ATOM     13  C   UNL d   1      57.258   0.044  31.063  0.00  0.00     0.053 C 
BRANCH  13  14
ATOM     14  C   UNL d   1      56.912  -0.304  31.722  0.00  0.00     0.102 A 
ATOM     15  O   UNL d   1      56.429  -0.974  31.710  0.00  0.00    -0.305 OA
ATOM     16  C   UNL d   1      56.204  -1.130  32.489  0.00  0.00     0.123 A 
ATOM     17  C   UNL d   1      56.545  -0.564  32.973  0.00  0.00     0.029 A 
ATOM     18  C   UNL d   1      56.986  -0.048  32.498  0.00  0.00     0.027 A 
ENDBRANCH  13  14
ENDBRANCH   1  13
TORSDOF 2
ENDMDL
MODEL 5
REMARK VINA RESULT:      -3.2      1.437      3.879
REMARK  2 active torsions:
REMARK  status: ('A' for Active; 'I' for Inactive)
REMARK    1  A    between atoms: C_6  and  C_1 
REMARK    2  A    between atoms: C_8  and  C_6 
ROOT
ATOM      1  C   UNL d   1      56.829   0.681  32.600  0.00  0.00     0.141 A 
ATOM      2  C   UNL d   1      56.180   0.680  33.774  0.00  0.00     0.064 A 
ATOM      3  C   UNL d   1      56.927   0.680  33.420  0.00  0.00     0.220 A 
ATOM      4  C   UNL d   1      55.618   0.681  33.170  0.00  0.00     0.106 A 
ATOM      5  O   UNL d   1      56.013   0.682  32.443  0.00  0.00    -0.304 OA
ATOM      6  C   UNL d   1      55.942   0.680  34.569  0.00  0.00     0.008 A 
ATOM      7  C   UNL d   1      54.812   0.682  33.355  0.00  0.00     0.067 A 
ATOM      8  C   UNL d   1      55.139   0.680  34.753  0.00  0.00     0.042 A 
ATOM      9  C   UNL d   1      54.577   0.681  34.149  0.00  0.00     0.198 A 
ATOM     10  O   UNL d   1      57.655   0.680  33.818  0.00  0.00    -0.284 OA
ATOM     11  O   UNL d   1      53.775   0.681  34.332  0.00  0.00    -0.286 OA
ATOM     12  C   UNL d   1      56.507   0.679  35.171  0.00  0.00     0.000 C 
ENDROOT
BRANCH   1  13
ATOM     13  C   UNL d   1      57.428   0.682  32.032  0.00  0.00     0.053 C 
BRANCH  13  14
ATOM     14  C   UNL d   1      57.491   0.064  31.494  0.00  0.00     0.102 A 
ATOM     15  O   UNL d   1      57.279  -0.721  31.639  0.00  0.00    -0.305 OA
ATOM     16  C   UNL d   1      57.433  -1.150  30.951  0.00  0.00     0.123 A 
ATOM     17  C   UNL d   1      57.735  -0.635  30.389  0.00  0.00     0.029 A 
ATOM     18  C   UNL d   1      57.772   0.122  30.725  0.00  0.00     0.027 A 
ENDBRANCH  13  14
ENDBRANCH   1  13
TORSDOF 2
ENDMDL
MODEL 6
REMARK VINA RESULT:      -2.1     10.053     10.440
REMARK  2 active torsions:
REMARK  status: ('A' for Active; 'I' for Inactive)
REMARK    1  A    between atoms: C_6  and  C_1 
REMARK    2  A    between atoms: C_8  and  C_6 
ROOT
ATOM      1  C   UNL d   1      58.907  -9.805  32.289  0.00  0.00     0.141 A 
ATOM      2  C   UNL d   1      58.204  -9.777  31.147  0.00  0.00     0.064 A 
ATOM      3  C   UNL d   1      58.145  -9.780  31.972  0.00  0.00     0.220 A 
ATOM      4  C   UNL d   1      59.006  -9.800  30.954  0.00  0.00     0.106 A 
ATOM      5  O   UNL d   1      59.445  -9.818  31.655  0.00  0.00    -0.304 OA
ATOM      6  C   UNL d   1      57.629  -9.755  30.549  0.00  0.00     0.008 A 
ATOM      7  C   UNL d   1      59.240  -9.803  30.161  0.00  0.00     0.067 A 
ATOM      8  C   UNL d   1      57.863  -9.758  29.760  0.00  0.00     0.042 A 
ATOM      9  C   UNL d   1      58.664  -9.781  29.567  0.00  0.00     0.198 A 
ATOM     10  O   UNL d   1      57.442  -9.761  32.411  0.00  0.00    -0.284 OA
ATOM     11  O   UNL d   1      58.899  -9.784  28.778  0.00  0.00    -0.286 OA
ATOM     12  C   UNL d   1      56.827  -9.732  30.746  0.00  0.00     0.000 C 
ENDROOT
BRANCH   1  13
ATOM     13  C   UNL d   1      59.108  -9.816  33.089  0.00  0.00     0.053 C 
BRANCH  13  14
ATOM     14  C   UNL d   1      59.796  -9.450  33.351  0.00  0.00     0.102 A 
ATOM     15  O   UNL d   1      60.563  -9.658  33.127  0.00  0.00    -0.305 OA
ATOM     16  C   UNL d   1      61.081  -9.148  33.519  0.00  0.00     0.123 A 
ATOM     17  C   UNL d   1      60.638  -8.633  33.978  0.00  0.00     0.029 A 
ATOM     18  C   UNL d   1      59.836  -8.819  33.875  0.00  0.00     0.027 A 
ENDBRANCH  13  14
ENDBRANCH   1  13
TORSDOF 2
ENDMDL
MODEL 7
REMARK VINA RESULT:      -1.6      1.379      3.923
REMARK  2 active torsions:
REMARK  status: ('A' for Active; 'I' for Inactive)
REMARK    1  A    between atoms: C_6  and  C_1 
REMARK    2  A    between atoms: C_8  and  C_6 
ROOT
ATOM      1  C   UNL d   1      58.706   0.381  30.039  0.00  0.00     0.141 A 
ATOM      2  C   UNL d   1      57.866   0.534  31.073  0.00  0.00     0.064 A 
ATOM      3  C   UNL d   1      57.913   0.468  30.251  0.00  0.00     0.220 A 
ATOM      4  C   UNL d   1      58.634   0.487  31.371  0.00  0.00     0.106 A 
ATOM      5  O   UNL d   1      59.157   0.392  30.737  0.00  0.00    -0.304 OA
ATOM      6  C   UNL d   1      57.222   0.631  31.587  0.00  0.00     0.008 A 
ATOM      7  C   UNL d   1      58.765   0.536  32.186  0.00  0.00     0.067 A 
ATOM      8  C   UNL d   1      57.353   0.680  32.399  0.00  0.00     0.042 A 
ATOM      9  C   UNL d   1      58.121   0.633  32.697  0.00  0.00     0.198 A 
ATOM     10  O   UNL d   1      57.273   0.487  29.723  0.00  0.00    -0.284 OA
ATOM     11  O   UNL d   1      58.253   0.682  33.508  0.00  0.00    -0.286 OA
ATOM     12  C   UNL d   1      56.454   0.678  31.285  0.00  0.00     0.000 C 
ENDROOT
BRANCH   1  13
ATOM     13  C   UNL d   1      59.006   0.296  29.275  0.00  0.00     0.053 C 
BRANCH  13  14
ATOM     14  C   UNL d   1      59.290  -0.431  29.017  0.00  0.00     0.102 A 
ATOM     15  O   UNL d   1      58.828  -1.047  28.719  0.00  0.00    -0.305 OA
ATOM     16  C   UNL d   1      59.337  -1.668  28.530  0.00  0.00     0.123 A 
ATOM     17  C   UNL d   1      60.103  -1.438  28.710  0.00  0.00     0.029 A 
ATOM     18  C   UNL d   1      60.076  -0.667  29.014  0.00  0.00     0.027 A 
ENDBRANCH  13  14
ENDBRANCH   1  13
TORSDOF 2
ENDMDL
