MODEL 1
REMARK VINA RESULT:      -5.3      0.000      0.000
REMARK  9 active torsions:
REMARK  status: ('A' for Active; 'I' for Inactive)
REMARK    1  A    between atoms: S_10  and  C_2 
REMARK    2  A    between atoms: C_7  and  C_5 
REMARK    3  A    between atoms: C_9  and  C_6 
REMARK    4  A    between atoms: O_19  and  C_9 
REMARK    5  A    between atoms: C_17  and  S_10 
REMARK    6  A    between atoms: C_13  and  C_17 
REMARK    7  A    between atoms: O_20  and  C_14 
REMARK    8  A    between atoms: C_23  and  O_19 
REMARK    9  A    between atoms: C_24  and  O_20 
ROOT
ATOM      1  C   UNL d   1     -48.007  12.922  22.704  0.00  0.00     0.092 A 
ATOM      2  C   UNL d   1     -47.333  13.418  22.673  0.00  0.00     0.124 A 
ATOM      3  C   UNL d   1     -48.115  14.508  23.143  0.00  0.00     0.285 A 
ATOM      4  N   UNL d   1     -47.395  14.203  22.893  0.00  0.00    -0.201 NA
ATOM      5  C   UNL d   1     -48.725  13.224  22.953  0.00  0.00     0.023 A 
ATOM      6  C   UNL d   1     -48.789  14.012  23.173  0.00  0.00     0.122 A 
ATOM      7  C   UNL d   1     -47.947  12.139  22.486  0.00  0.00     0.103 C 
ATOM      8  N   UNL d   1     -47.882  11.362  22.268  0.00  0.00    -0.191 NA
ATOM      9  O   UNL d   1     -48.236  15.361  23.394  0.00  0.00    -0.265 OA
ENDROOT
BRANCH   2  10
ATOM     10  S   UNL d   1     -46.603  13.042  22.403  0.00  0.00    -0.062 SA
BRANCH  10  11
ATOM     11  C   UNL d   1     -45.843  13.414  22.192  0.00  0.00     0.101 C 
BRANCH  11  12
ATOM     12  C   UNL d   1     -45.120  12.936  22.193  0.00  0.00     0.303 C 
ATOM     13  O   UNL d   1     -44.987  12.613  22.589  0.00  0.00    -0.263 OA
ATOM     14  N   UNL d   1     -44.621  13.035  21.464  0.00  0.00    -0.102 N 
ENDBRANCH  11  12
ENDBRANCH  10  11
ENDBRANCH   2  10
BRANCH   5  15
ATOM     15  C   UNL d   1     -49.382  12.740  22.982  0.00  0.00     0.024 A 
ATOM     16  C   UNL d   1     -49.868  12.672  22.324  0.00  0.00     0.100 A 
ATOM     17  C   UNL d   1     -50.534  12.181  22.354  0.00  0.00     0.025 A 
ATOM     18  C   UNL d   1     -50.708  11.764  23.042  0.00  0.00     0.002 A 
ATOM     19  C   UNL d   1     -50.219  11.835  23.697  0.00  0.00     0.000 A 
ATOM     20  C   UNL d   1     -49.553  12.326  23.667  0.00  0.00     0.002 A 
BRANCH  16  21
ATOM     21  O   UNL d   1     -49.791  12.989  21.708  0.00  0.00    -0.305 OA
BRANCH  21  22
ATOM     22  C   UNL d   1     -50.520  12.733  21.211  0.00  0.00     0.123 C 
ATOM     23  C   UNL d   1     -50.769  13.455  20.446  0.00  0.00     0.029 C 
ENDBRANCH  21  22
ENDBRANCH  16  21
ENDBRANCH   5  15
BRANCH   6  24
ATOM     24  C   UNL d   1     -49.511  14.321  23.425  0.00  0.00     0.305 C 
ATOM     25  O   UNL d   1     -49.739  14.116  23.683  0.00  0.00    -0.259 OA
BRANCH  24  26
ATOM     26  O   UNL d   1     -49.822  15.060  23.174  0.00  0.00    -0.271 OA
BRANCH  26  27
ATOM     27  C   UNL d   1     -50.307  15.581  23.690  0.00  0.00     0.126 C 
ATOM     28  C   UNL d   1     -50.842  15.875  23.069  0.00  0.00     0.029 C 
ENDBRANCH  26  27
ENDBRANCH  24  26
ENDBRANCH   6  24
TORSDOF 9
ENDMDL
MODEL 2
REMARK VINA RESULT:      -4.0      0.989      2.307
REMARK  9 active torsions:
REMARK  status: ('A' for Active; 'I' for Inactive)
REMARK    1  A    between atoms: S_10  and  C_2 
REMARK    2  A    between atoms: C_7  and  C_5 
REMARK    3  A    between atoms: C_9  and  C_6 
REMARK    4  A    between atoms: O_19  and  C_9 
REMARK    5  A    between atoms: C_17  and  S_10 
REMARK    6  A    between atoms: C_13  and  C_17 
REMARK    7  A    between atoms: O_20  and  C_14 
REMARK    8  A    between atoms: C_23  and  O_19 
REMARK    9  A    between atoms: C_24  and  O_20 
ROOT
ATOM      1  C   UNL d   1     -47.893  13.978  22.785  0.00  0.00     0.092 A 
ATOM      2  C   UNL d   1     -47.319  13.369  22.794  0.00  0.00     0.124 A 
ATOM      3  C   UNL d   1     -48.300  12.451  23.258  0.00  0.00     0.285 A 
ATOM      4  N   UNL d   1     -47.528  12.615  23.029  0.00  0.00    -0.201 NA
ATOM      5  C   UNL d   1     -48.662  13.817  23.012  0.00  0.00     0.023 A 
ATOM      6  C   UNL d   1     -48.874  13.060  23.249  0.00  0.00     0.122 A 
ATOM      7  C   UNL d   1     -47.687  14.731  22.551  0.00  0.00     0.103 C 
ATOM      8  N   UNL d   1     -47.475  15.476  22.317  0.00  0.00    -0.191 NA
ATOM      9  O   UNL d   1     -48.581  11.642  23.524  0.00  0.00    -0.265 OA
ENDROOT
BRANCH   2  10
ATOM     10  S   UNL d   1     -46.524  13.600  22.543  0.00  0.00    -0.062 SA
BRANCH  10  11
ATOM     11  C   UNL d   1     -45.880  13.097  22.241  0.00  0.00     0.101 C 
BRANCH  11  12
ATOM     12  C   UNL d   1     -45.076  13.417  22.194  0.00  0.00     0.303 C 
ATOM     13  O   UNL d   1     -44.937  13.882  22.404  0.00  0.00    -0.263 OA
ATOM     14  N   UNL d   1     -44.503  12.895  21.760  0.00  0.00    -0.102 N 
ENDBRANCH  11  12
ENDBRANCH  10  11
ENDBRANCH   2  10
BRANCH   5  15
ATOM     15  C   UNL d   1     -49.222  14.411  23.004  0.00  0.00     0.024 A 
ATOM     16  C   UNL d   1     -49.675  14.535  22.330  0.00  0.00     0.100 A 
ATOM     17  C   UNL d   1     -50.243  15.137  22.322  0.00  0.00     0.025 A 
ATOM     18  C   UNL d   1     -50.353  15.610  22.987  0.00  0.00     0.002 A 
ATOM     19  C   UNL d   1     -49.898  15.482  23.657  0.00  0.00     0.000 A 
ATOM     20  C   UNL d   1     -49.330  14.880  23.666  0.00  0.00     0.002 A 
BRANCH  16  21
ATOM     21  O   UNL d   1     -49.645  14.181  21.730  0.00  0.00    -0.305 OA
BRANCH  21  22
ATOM     22  C   UNL d   1     -50.460  14.315  21.328  0.00  0.00     0.123 C 
ATOM     23  C   UNL d   1     -50.534  13.814  20.373  0.00  0.00     0.029 C 
ENDBRANCH  21  22
ENDBRANCH  16  21
ENDBRANCH   5  15
BRANCH   6  24
ATOM     24  C   UNL d   1     -49.649  12.893  23.479  0.00  0.00     0.305 C 
ATOM     25  O   UNL d   1     -49.856  13.158  23.697  0.00  0.00    -0.259 OA
BRANCH  24  26
ATOM     26  O   UNL d   1     -50.057  12.184  23.286  0.00  0.00    -0.271 OA
BRANCH  26  27
ATOM     27  C   UNL d   1     -50.801  11.932  23.680  0.00  0.00     0.126 C 
ATOM     28  C   UNL d   1     -51.062  11.375  23.064  0.00  0.00     0.029 C 
ENDBRANCH  26  27
ENDBRANCH  24  26
ENDBRANCH   6  24
TORSDOF 9
ENDMDL
MODEL 3
REMARK VINA RESULT:      -3.4      7.412      9.487
REMARK  9 active torsions:
REMARK  status: ('A' for Active; 'I' for Inactive)
REMARK    1  A    between atoms: S_10  and  C_2 
REMARK    2  A    between atoms: C_7  and  C_5 
REMARK    3  A    between atoms: C_9  and  C_6 
REMARK    4  A    between atoms: O_19  and  C_9 
REMARK    5  A    between atoms: C_17  and  S_10 
REMARK    6  A    between atoms: C_13  and  C_17 
REMARK    7  A    between atoms: O_20  and  C_14 
REMARK    8  A    between atoms: C_23  and  O_19 
REMARK    9  A    between atoms: C_24  and  O_20 
ROOT
ATOM      1  C   UNL d   1     -39.780  14.169  19.515  0.00  0.00     0.092 A 
ATOM      2  C   UNL d   1     -39.070  13.805  19.263  0.00  0.00     0.124 A 
ATOM      3  C   UNL d   1     -38.564  13.872  20.590  0.00  0.00     0.285 A 
ATOM      4  N   UNL d   1     -38.471  13.661  19.802  0.00  0.00    -0.201 NA
ATOM      5  C   UNL d   1     -39.874  14.380  20.300  0.00  0.00     0.023 A 
ATOM      6  C   UNL d   1     -39.274  14.236  20.842  0.00  0.00     0.122 A 
ATOM      7  C   UNL d   1     -40.377  14.313  18.980  0.00  0.00     0.103 C 
ATOM      8  N   UNL d   1     -40.967  14.453  18.444  0.00  0.00    -0.191 NA
ATOM      9  O   UNL d   1     -37.940  13.737  21.219  0.00  0.00    -0.265 OA
ENDROOT
BRANCH   2  10
ATOM     10  S   UNL d   1     -39.029  13.605  18.423  0.00  0.00    -0.062 SA
BRANCH  10  11
ATOM     11  C   UNL d   1     -38.452  13.099  18.009  0.00  0.00     0.101 C 
BRANCH  11  12
ATOM     12  C   UNL d   1     -38.444  13.082  17.143  0.00  0.00     0.303 C 
ATOM     13  O   UNL d   1     -38.648  12.686  16.859  0.00  0.00    -0.263 OA
ATOM     14  N   UNL d   1     -38.062  13.794  16.772  0.00  0.00    -0.102 N 
ENDBRANCH  11  12
ENDBRANCH  10  11
ENDBRANCH   2  10
BRANCH   5  15
ATOM     15  C   UNL d   1     -40.566  14.735  20.546  0.00  0.00     0.024 A 
ATOM     16  C   UNL d   1     -41.209  14.270  20.760  0.00  0.00     0.100 A 
ATOM     17  C   UNL d   1     -41.912  14.631  21.010  0.00  0.00     0.025 A 
ATOM     18  C   UNL d   1     -41.965  15.452  21.043  0.00  0.00     0.002 A 
ATOM     19  C   UNL d   1     -41.320  15.911  20.828  0.00  0.00     0.000 A 
ATOM     20  C   UNL d   1     -40.618  15.551  20.578  0.00  0.00     0.002 A 
BRANCH  16  21
ATOM     21  O   UNL d   1     -41.246  13.574  20.760  0.00  0.00    -0.305 OA
BRANCH  21  22
ATOM     22  C   UNL d   1     -42.133  13.378  20.894  0.00  0.00     0.123 C 
ATOM     23  C   UNL d   1     -42.270  12.505  21.517  0.00  0.00     0.029 C 
ENDBRANCH  21  22
ENDBRANCH  16  21
ENDBRANCH   5  15
BRANCH   6  24
ATOM     24  C   UNL d   1     -39.365  14.448  21.635  0.00  0.00     0.305 C 
ATOM     25  O   UNL d   1     -39.489  14.816  21.732  0.00  0.00    -0.259 OA
BRANCH  24  26
ATOM     26  O   UNL d   1     -39.212  13.933  22.281  0.00  0.00    -0.271 OA
BRANCH  26  27
ATOM     27  C   UNL d   1     -38.790  14.185  23.010  0.00  0.00     0.126 C 
ATOM     28  C   UNL d   1     -39.077  13.543  23.524  0.00  0.00     0.029 C 
ENDBRANCH  26  27
ENDBRANCH  24  26
ENDBRANCH   6  24
TORSDOF 9
ENDMDL
MODEL 4
REMARK VINA RESULT:      -2.5      1.288      2.490
REMARK  9 active torsions:
REMARK  status: ('A' for Active; 'I' for Inactive)
REMARK    1  A    between atoms: S_10  and  C_2 
REMARK    2  A    between atoms: C_7  and  C_5 
REMARK    3  A    between atoms: C_9  and  C_6 
REMARK    4  A    between atoms: O_19  and  C_9 
REMARK    5  A    between atoms: C_17  and  S_10 
REMARK    6  A    between atoms: C_13  and  C_17 
REMARK    7  A    between atoms: O_20  and  C_14 
REMARK    8  A    between atoms: C_23  and  O_19 
REMARK    9  A    between atoms: C_24  and  O_20 
ROOT
ATOM      1  C   UNL d   1     -47.124  13.061  22.847  0.00  0.00     0.092 A 
ATOM      2  C   UNL d   1     -46.702  12.347  22.963  0.00  0.00     0.124 A 
ATOM      3  C   UNL d   1     -47.898  11.710  23.393  0.00  0.00     0.285 A 
ATOM      4  N   UNL d   1     -47.092  11.682  23.234  0.00  0.00    -0.201 NA
ATOM      5  C   UNL d   1     -47.926  13.091  23.005  0.00  0.00     0.023 A 
ATOM      6  C   UNL d   1     -48.320  12.423  23.277  0.00  0.00     0.122 A 
ATOM      7  C   UNL d   1     -46.736  13.724  22.576  0.00  0.00     0.103 C 
ATOM      8  N   UNL d   1     -46.346  14.381  22.308  0.00  0.00    -0.191 NA
ATOM      9  O   UNL d   1     -48.372  11.010  23.692  0.00  0.00    -0.265 OA
ENDROOT
BRANCH   2  10
ATOM     10  S   UNL d   1     -45.857  12.377  22.779  0.00  0.00    -0.062 SA
BRANCH  10  11
ATOM     11  C   UNL d   1     -45.241  11.784  22.947  0.00  0.00     0.101 C 
BRANCH  11  12
ATOM     12  C   UNL d   1     -44.460  11.865  22.579  0.00  0.00     0.303 C 
ATOM     13  O   UNL d   1     -44.347  12.234  22.218  0.00  0.00    -0.263 OA
ATOM     14  N   UNL d   1     -43.864  11.271  22.863  0.00  0.00    -0.102 N 
ENDBRANCH  11  12
ENDBRANCH  10  11
ENDBRANCH   2  10
BRANCH   5  15
ATOM     15  C   UNL d   1     -48.337  13.786  22.891  0.00  0.00     0.024 A 
ATOM     16  C   UNL d   1     -48.729  13.917  22.181  0.00  0.00     0.100 A 
ATOM     17  C   UNL d   1     -49.146  14.623  22.067  0.00  0.00     0.025 A 
ATOM     18  C   UNL d   1     -49.168  15.191  22.663  0.00  0.00     0.002 A 
ATOM     19  C   UNL d   1     -48.775  15.055  23.369  0.00  0.00     0.000 A 
ATOM     20  C   UNL d   1     -48.357  14.349  23.484  0.00  0.00     0.002 A 
BRANCH  16  21
ATOM     21  O   UNL d   1     -48.760  13.491  21.631  0.00  0.00    -0.305 OA
BRANCH  21  22
ATOM     22  C   UNL d   1     -49.384  13.863  21.070  0.00  0.00     0.123 C 
ATOM     23  C   UNL d   1     -49.658  13.199  20.262  0.00  0.00     0.029 C 
ENDBRANCH  21  22
ENDBRANCH  16  21
ENDBRANCH   5  15
BRANCH   6  24
ATOM     24  C   UNL d   1     -49.129  12.450  23.437  0.00  0.00     0.305 C 
ATOM     25  O   UNL d   1     -49.304  12.797  23.528  0.00  0.00    -0.259 OA
BRANCH  24  26
ATOM     26  O   UNL d   1     -49.634  11.779  23.425  0.00  0.00    -0.271 OA
BRANCH  26  27
ATOM     27  C   UNL d   1     -50.494  11.818  23.604  0.00  0.00     0.126 C 
ATOM     28  C   UNL d   1     -50.621  10.962  23.697  0.00  0.00     0.029 C 
ENDBRANCH  26  27
ENDBRANCH  24  26
ENDBRANCH   6  24
TORSDOF 9
ENDMDL
