MODEL 1
REMARK VINA RESULT:      -3.4      0.000      0.000
REMARK  6 active torsions:
REMARK  status: ('A' for Active; 'I' for Inactive)
REMARK       I    between atoms: C_2  and  N_1 
REMARK    1  A    between atoms: C_8  and  C_2 
REMARK    2  A    between atoms: C_11  and  C_3 
REMARK       I    between atoms: C_4  and  N_6 
REMARK    3  A    between atoms: C_5  and  C_4 
REMARK       I    between atoms: N_7  and  C_5 
REMARK    4  A    between atoms: N_6  and  C_11 
REMARK    5  A    between atoms: C_17  and  N_7 
REMARK    6  A    between atoms: C_20  and  C_17 
ROOT
ATOM      1  C   UNL d   1      58.025   0.342  31.092  0.00  0.00     0.146 C 
ENDROOT
BRANCH   1   2
ATOM      2  N   UNL d   1      58.564   0.681  30.568  0.00  0.00    -0.199 NA
ATOM      3  C   UNL d   1      58.789   0.273  29.893  0.00  0.00     0.337 C 
ATOM      4  O   UNL d   1      59.329   0.612  29.369  0.00  0.00    -0.260 OA
BRANCH   3   5
ATOM      5  C   UNL d   1      58.481  -0.478  29.732  0.00  0.00     0.337 C 
ATOM      6  N   UNL d   1      58.978  -1.111  29.613  0.00  0.00    -0.202 NA
ATOM      7  O   UNL d   1      57.664  -0.581  29.692  0.00  0.00    -0.260 OA
BRANCH   6   8
ATOM      8  C   UNL d   1      58.669  -1.861  29.452  0.00  0.00     0.102 C 
BRANCH   8   9
ATOM      9  C   UNL d   1      59.164  -2.480  29.238  0.00  0.00     0.019 A 
ATOM     10  C   UNL d   1      59.911  -2.558  29.562  0.00  0.00     0.002 A 
ATOM     11  C   UNL d   1      60.410  -3.168  29.357  0.00  0.00     0.011 A 
ATOM     12  C   UNL d   1      60.151  -3.734  28.797  0.00  0.00     0.058 A 
ATOM     13  C   UNL d   1      59.402  -3.669  28.462  0.00  0.00     0.011 A 
ATOM     14 CL   UNL d   1      60.656  -4.362  28.582  0.00  0.00    -0.082 Cl
ATOM     15  C   UNL d   1      58.905  -3.046  28.678  0.00  0.00     0.002 A 
ENDBRANCH   8   9
ENDBRANCH   6   8
ENDBRANCH   3   5
ENDBRANCH   1   2
BRANCH   1  16
ATOM     16  C   UNL d   1      58.129   0.429  31.903  0.00  0.00     0.190 A 
ATOM     17  N   UNL d   1      57.529   0.407  32.468  0.00  0.00    -0.250 N 
ATOM     18  C   UNL d   1      56.721   0.294  32.324  0.00  0.00     0.266 C 
ATOM     19  C   UNL d   1      57.884   0.517  33.204  0.00  0.00     0.112 A 
ATOM     20  O   UNL d   1      56.447   0.190  31.556  0.00  0.00    -0.267 OA
ATOM     21  C   UNL d   1      58.701   0.609  33.101  0.00  0.00     0.144 A 
ATOM     22  O   UNL d   1      58.854   0.554  32.295  0.00  0.00    -0.285 OA
BRANCH  18  23
ATOM     23  C   UNL d   1      56.180   0.286  32.964  0.00  0.00     0.057 A 
ATOM     24  C   UNL d   1      55.464   0.678  32.901  0.00  0.00     0.006 A 
ATOM     25  C   UNL d   1      54.931   0.669  33.532  0.00  0.00     0.012 A 
ATOM     26  C   UNL d   1      55.121   0.265  34.223  0.00  0.00     0.058 A 
ATOM     27  C   UNL d   1      55.845  -0.131  34.285  0.00  0.00     0.012 A 
ATOM     28 CL   UNL d   1      54.581   0.257  34.861  0.00  0.00    -0.082 Cl
ATOM     29  C   UNL d   1      56.367  -0.118  33.659  0.00  0.00     0.006 A 
ENDBRANCH  18  23
ENDBRANCH   1  16
TORSDOF 6
ENDMDL
