MODEL 1
REMARK VINA RESULT:      -3.4      0.000      0.000
REMARK  5 active torsions:
REMARK  status: ('A' for Active; 'I' for Inactive)
REMARK    1  A    between atoms: N_2  and  C_1 
REMARK    2  A    between atoms: C_9  and  C_5 
REMARK    3  A    between atoms: C_6  and  C_10 
REMARK       I    between atoms: N_11  and  C_6 
REMARK    4  A    between atoms: C_8  and  N_11 
REMARK    5  A    between atoms: C_10  and  C_9 
ROOT
ATOM      1  C   UNL d   1      32.843  18.719 -23.036  0.00  0.00     0.279 C 
ATOM      2  N   UNL d   1      32.412  18.533 -23.720  0.00  0.00    -0.208 NA
ATOM      3  O   UNL d   1      33.144  18.125 -22.546  0.00  0.00    -0.265 OA
ENDROOT
BRANCH   1   4
ATOM      4  C   UNL d   1      32.971  19.501 -22.844  0.00  0.00     0.063 C 
BRANCH   4   5
ATOM      5  C   UNL d   1      33.099  19.711 -22.056  0.00  0.00     0.011 C 
BRANCH   5   6
ATOM      6  C   UNL d   1      33.004  20.504 -21.822  0.00  0.00     0.031 A 
ATOM      7  S   UNL d   1      32.703  20.850 -21.145  0.00  0.00    -0.064 SA
ATOM      8  C   UNL d   1      32.746  21.663 -21.218  0.00  0.00     0.156 A 
ATOM      9  C   UNL d   1      33.078  21.815 -21.952  0.00  0.00     0.031 A 
ATOM     10  C   UNL d   1      33.241  21.109 -22.332  0.00  0.00     0.009 A 
BRANCH   8  11
ATOM     11  N   UNL d   1      32.502  22.231 -20.660  0.00  0.00    -0.107 N 
ATOM     12  O   UNL d   1      31.760  22.582 -20.739  0.00  0.00    -0.531 OA
ATOM     13  O   UNL d   1      33.005  22.438 -20.033  0.00  0.00    -0.531 OA
ENDBRANCH   8  11
ENDBRANCH   5   6
ENDBRANCH   4   5
ENDBRANCH   1   4
BRANCH   2  14
ATOM     14  C   UNL d   1      32.282  17.738 -23.914  0.00  0.00     0.085 A 
ATOM     15  C   UNL d   1      31.631  17.349 -23.628  0.00  0.00     0.019 A 
ATOM     16  C   UNL d   1      31.503  16.565 -23.820  0.00  0.00     0.002 A 
ATOM     17  C   UNL d   1      30.838  16.156 -23.532  0.00  0.00     0.000 C 
ATOM     18  C   UNL d   1      32.028  16.184 -24.295  0.00  0.00     0.000 A 
ATOM     19  C   UNL d   1      32.696  16.563 -24.596  0.00  0.00     0.002 A 
ATOM     20  C   UNL d   1      32.824  17.344 -24.405  0.00  0.00     0.019 A 
ATOM     21  C   UNL d   1      33.234  16.167 -25.085  0.00  0.00     0.000 C 
ENDBRANCH   2  14
TORSDOF 5
ENDMDL
MODEL 2
REMARK VINA RESULT:      -3.4      1.660      5.537
REMARK  5 active torsions:
REMARK  status: ('A' for Active; 'I' for Inactive)
REMARK    1  A    between atoms: N_2  and  C_1 
REMARK    2  A    between atoms: C_9  and  C_5 
REMARK    3  A    between atoms: C_6  and  C_10 
REMARK       I    between atoms: N_11  and  C_6 
REMARK    4  A    between atoms: C_8  and  N_11 
REMARK    5  A    between atoms: C_10  and  C_9 
ROOT
ATOM      1  C   UNL d   1      32.881  20.796 -21.653  0.00  0.00     0.279 C 
ATOM      2  N   UNL d   1      32.511  21.032 -20.949  0.00  0.00    -0.208 NA
ATOM      3  O   UNL d   1      33.235  21.349 -22.156  0.00  0.00    -0.265 OA
ENDROOT
BRANCH   1   4
ATOM      4  C   UNL d   1      32.896  20.006 -21.852  0.00  0.00     0.063 C 
BRANCH   4   5
ATOM      5  C   UNL d   1      33.115  19.783 -22.617  0.00  0.00     0.011 C 
BRANCH   5   6
ATOM      6  C   UNL d   1      32.955  19.010 -22.880  0.00  0.00     0.031 A 
ATOM      7  S   UNL d   1      32.543  18.717 -23.522  0.00  0.00    -0.064 SA
ATOM      8  C   UNL d   1      32.564  17.900 -23.506  0.00  0.00     0.156 A 
ATOM      9  C   UNL d   1      32.996  17.691 -22.841  0.00  0.00     0.031 A 
ATOM     10  C   UNL d   1      33.241  18.366 -22.448  0.00  0.00     0.009 A 
BRANCH   8  11
ATOM     11  N   UNL d   1      32.217  17.376 -24.052  0.00  0.00    -0.107 N 
ATOM     12  O   UNL d   1      32.426  17.428 -24.849  0.00  0.00    -0.531 OA
ATOM     13  O   UNL d   1      31.668  16.811 -23.792  0.00  0.00    -0.531 OA
ENDBRANCH   8  11
ENDBRANCH   5   6
ENDBRANCH   4   5
ENDBRANCH   1   4
BRANCH   2  14
ATOM     14  C   UNL d   1      32.496  21.835 -20.747  0.00  0.00     0.085 A 
ATOM     15  C   UNL d   1      32.862  22.093 -20.072  0.00  0.00     0.019 A 
ATOM     16  C   UNL d   1      32.847  22.886 -19.873  0.00  0.00     0.002 A 
ATOM     17  C   UNL d   1      33.219  23.161 -19.182  0.00  0.00     0.000 C 
ATOM     18  C   UNL d   1      32.467  23.406 -20.353  0.00  0.00     0.000 A 
ATOM     19  C   UNL d   1      32.089  23.163 -21.044  0.00  0.00     0.002 A 
ATOM     20  C   UNL d   1      32.104  22.373 -21.243  0.00  0.00     0.019 A 
ATOM     21  C   UNL d   1      31.699  23.702 -21.536  0.00  0.00     0.000 C 
ENDBRANCH   2  14
TORSDOF 5
ENDMDL
MODEL 3
REMARK VINA RESULT:      -3.0      1.643      5.452
REMARK  5 active torsions:
REMARK  status: ('A' for Active; 'I' for Inactive)
REMARK    1  A    between atoms: N_2  and  C_1 
REMARK    2  A    between atoms: C_9  and  C_5 
REMARK    3  A    between atoms: C_6  and  C_10 
REMARK       I    between atoms: N_11  and  C_6 
REMARK    4  A    between atoms: C_8  and  N_11 
REMARK    5  A    between atoms: C_10  and  C_9 
ROOT
ATOM      1  C   UNL d   1      32.916  20.724 -21.956  0.00  0.00     0.279 C 
ATOM      2  N   UNL d   1      32.647  20.901 -21.191  0.00  0.00    -0.208 NA
ATOM      3  O   UNL d   1      33.148  21.322 -22.476  0.00  0.00    -0.265 OA
ENDROOT
BRANCH   1   4
ATOM      4  C   UNL d   1      32.951  19.946 -22.197  0.00  0.00     0.063 C 
BRANCH   4   5
ATOM      5  C   UNL d   1      33.231  19.766 -22.953  0.00  0.00     0.011 C 
BRANCH   5   6
ATOM      6  C   UNL d   1      33.084  19.014 -23.277  0.00  0.00     0.031 A 
ATOM      7  S   UNL d   1      32.848  18.305 -22.945  0.00  0.00    -0.064 SA
ATOM      8  C   UNL d   1      32.790  17.740 -23.533  0.00  0.00     0.156 A 
ATOM      9  C   UNL d   1      32.995  18.111 -24.235  0.00  0.00     0.031 A 
ATOM     10  C   UNL d   1      33.177  18.895 -24.089  0.00  0.00     0.009 A 
BRANCH   8  11
ATOM     11  N   UNL d   1      32.568  16.942 -23.444  0.00  0.00    -0.107 N 
ATOM     12  O   UNL d   1      33.152  16.371 -23.326  0.00  0.00    -0.531 OA
ATOM     13  O   UNL d   1      31.766  16.730 -23.475  0.00  0.00    -0.531 OA
ENDBRANCH   8  11
ENDBRANCH   5   6
ENDBRANCH   4   5
ENDBRANCH   1   4
BRANCH   2  14
ATOM     14  C   UNL d   1      32.610  21.691 -20.947  0.00  0.00     0.085 A 
ATOM     15  C   UNL d   1      32.253  22.248 -21.415  0.00  0.00     0.019 A 
ATOM     16  C   UNL d   1      32.217  23.028 -21.174  0.00  0.00     0.002 A 
ATOM     17  C   UNL d   1      31.853  23.607 -21.647  0.00  0.00     0.000 C 
ATOM     18  C   UNL d   1      32.540  23.238 -20.468  0.00  0.00     0.000 A 
ATOM     19  C   UNL d   1      32.908  22.686 -19.977  0.00  0.00     0.002 A 
ATOM     20  C   UNL d   1      32.943  21.909 -20.218  0.00  0.00     0.019 A 
ATOM     21  C   UNL d   1      33.239  22.906 -19.251  0.00  0.00     0.000 C 
ENDBRANCH   2  14
TORSDOF 5
ENDMDL
MODEL 4
REMARK VINA RESULT:      -1.0      1.931      5.299
REMARK  5 active torsions:
REMARK  status: ('A' for Active; 'I' for Inactive)
REMARK    1  A    between atoms: N_2  and  C_1 
REMARK    2  A    between atoms: C_9  and  C_5 
REMARK    3  A    between atoms: C_6  and  C_10 
REMARK       I    between atoms: N_11  and  C_6 
REMARK    4  A    between atoms: C_8  and  N_11 
REMARK    5  A    between atoms: C_10  and  C_9 
ROOT
ATOM      1  C   UNL d   1      32.726  19.492 -22.908  0.00  0.00     0.279 C 
ATOM      2  N   UNL d   1      32.567  19.755 -22.137  0.00  0.00    -0.208 NA
ATOM      3  O   UNL d   1      33.104  19.981 -23.456  0.00  0.00    -0.265 OA
ENDROOT
BRANCH   1   4
ATOM      4  C   UNL d   1      32.504  18.739 -23.127  0.00  0.00     0.063 C 
BRANCH   4   5
ATOM      5  C   UNL d   1      32.501  18.532 -23.926  0.00  0.00     0.011 C 
BRANCH   5   6
ATOM      6  C   UNL d   1      32.160  17.810 -24.162  0.00  0.00     0.031 A 
ATOM      7  S   UNL d   1      31.472  17.426 -23.944  0.00  0.00    -0.064 SA
ATOM      8  C   UNL d   1      31.415  16.723 -24.359  0.00  0.00     0.156 A 
ATOM      9  C   UNL d   1      32.079  16.680 -24.838  0.00  0.00     0.031 A 
ATOM     10  C   UNL d   1      32.544  17.343 -24.724  0.00  0.00     0.009 A 
BRANCH   8  11
ATOM     11  N   UNL d   1      30.804  16.159 -24.310  0.00  0.00    -0.107 N 
ATOM     12  O   UNL d   1      30.769  15.658 -23.656  0.00  0.00    -0.531 OA
ATOM     13  O   UNL d   1      30.241  16.106 -24.917  0.00  0.00    -0.531 OA
ENDBRANCH   8  11
ENDBRANCH   5   6
ENDBRANCH   4   5
ENDBRANCH   1   4
BRANCH   2  14
ATOM     14  C   UNL d   1      32.792  20.520 -21.915  0.00  0.00     0.085 A 
ATOM     15  C   UNL d   1      32.903  21.093 -22.478  0.00  0.00     0.019 A 
ATOM     16  C   UNL d   1      33.125  21.849 -22.258  0.00  0.00     0.002 A 
ATOM     17  C   UNL d   1      33.241  22.443 -22.828  0.00  0.00     0.000 C 
ATOM     18  C   UNL d   1      33.232  22.018 -21.480  0.00  0.00     0.000 A 
ATOM     19  C   UNL d   1      33.124  21.449 -20.892  0.00  0.00     0.002 A 
ATOM     20  C   UNL d   1      32.903  20.696 -21.111  0.00  0.00     0.019 A 
ATOM     21  C   UNL d   1      33.236  21.627 -20.092  0.00  0.00     0.000 C 
ENDBRANCH   2  14
TORSDOF 5
ENDMDL
