MODEL 1
REMARK VINA RESULT:      -2.3      0.000      0.000
REMARK  7 active torsions:
REMARK  status: ('A' for Active; 'I' for Inactive)
REMARK    1  A    between atoms: C_14  and  C_4 
REMARK    2  A    between atoms: N_17  and  C_5 
REMARK    3  A    between atoms: C_13  and  C_8 
REMARK    4  A    between atoms: N_11  and  C_18 
REMARK    5  A    between atoms: C_20  and  N_17 
REMARK    6  A    between atoms: C_18  and  C_19 
REMARK    7  A    between atoms: C_19  and  C_20 
ROOT
ATOM      1  C   UNL d   1      32.831  21.520 -21.907  0.00  0.00     0.168 A 
ATOM      2  N   UNL d   1      32.952  20.795 -22.310  0.00  0.00    -0.184 N 
ATOM      3  N   UNL d   1      32.832  22.222 -22.325  0.00  0.00    -0.231 NA
ATOM      4  C   UNL d   1      32.714  21.525 -21.108  0.00  0.00     0.057 A 
ATOM      5  C   UNL d   1      33.066  20.814 -23.108  0.00  0.00     0.217 A 
ATOM      6  N   UNL d   1      32.833  20.114 -21.094  0.00  0.00    -0.160 NA
ATOM      7  C   UNL d   1      33.069  21.512 -23.538  0.00  0.00     0.067 A 
ATOM      8  C   UNL d   1      32.950  22.225 -23.141  0.00  0.00     0.064 A 
ATOM      9  C   UNL d   1      32.714  20.827 -20.697  0.00  0.00     0.124 A 
ENDROOT
BRANCH   5  10
ATOM     10  N   UNL d   1      33.189  20.077 -23.518  0.00  0.00    -0.380 NA
BRANCH  10  11
ATOM     11  C   UNL d   1      33.238  19.332 -23.923  0.00  0.00     0.164 C 
BRANCH  11  12
ATOM     12  C   UNL d   1      32.623  18.768 -23.830  0.00  0.00     0.054 C 
BRANCH  12  13
ATOM     13  C   UNL d   1      32.734  17.974 -24.101  0.00  0.00     0.084 C 
BRANCH  13  14
ATOM     14  N   UNL d   1      32.060  17.457 -24.177  0.00  0.00    -0.285 N 
ATOM     15  C   UNL d   1      31.971  16.706 -23.804  0.00  0.00     0.183 A 
ATOM     16  N   UNL d   1      31.218  16.390 -24.036  0.00  0.00    -0.222 NA
ATOM     17  C   UNL d   1      30.847  16.949 -24.552  0.00  0.00     0.120 A 
ATOM     18  C   UNL d   1      31.367  17.610 -24.640  0.00  0.00     0.102 A 
ENDBRANCH  13  14
ENDBRANCH  12  13
ENDBRANCH  11  12
ENDBRANCH  10  11
ENDBRANCH   5  10
BRANCH   8  19
ATOM     19  C   UNL d   1      32.950  22.961 -23.573  0.00  0.00     0.036 C 
ATOM     20  C   UNL d   1      32.657  22.982 -24.376  0.00  0.00     0.006 C 
ATOM     21  C   UNL d   1      32.947  23.684 -24.004  0.00  0.00     0.006 C 
ATOM     22  C   UNL d   1      33.241  23.668 -23.202  0.00  0.00     0.006 C 
ENDBRANCH   8  19
BRANCH   4  23
ATOM     23  C   UNL d   1      32.595  22.238 -20.711  0.00  0.00     0.004 A 
ATOM     24  C   UNL d   1      33.188  22.543 -20.263  0.00  0.00     0.000 A 
ATOM     25  C   UNL d   1      33.069  23.256 -19.866  0.00  0.00     0.000 A 
ATOM     26  C   UNL d   1      32.361  23.643 -19.930  0.00  0.00     0.000 A 
ATOM     27  C   UNL d   1      31.763  23.328 -20.387  0.00  0.00     0.000 A 
ATOM     28  C   UNL d   1      31.882  22.614 -20.784  0.00  0.00     0.000 A 
ENDBRANCH   4  23
TORSDOF 7
ENDMDL
MODEL 2
REMARK VINA RESULT:      -1.9      1.264      6.175
REMARK  7 active torsions:
REMARK  status: ('A' for Active; 'I' for Inactive)
REMARK    1  A    between atoms: C_14  and  C_4 
REMARK    2  A    between atoms: N_17  and  C_5 
REMARK    3  A    between atoms: C_13  and  C_8 
REMARK    4  A    between atoms: N_11  and  C_18 
REMARK    5  A    between atoms: C_20  and  N_17 
REMARK    6  A    between atoms: C_18  and  C_19 
REMARK    7  A    between atoms: C_19  and  C_20 
ROOT
ATOM      1  C   UNL d   1      30.966  17.610 -24.239  0.00  0.00     0.168 A 
ATOM      2  N   UNL d   1      31.387  18.334 -24.205  0.00  0.00    -0.184 N 
ATOM      3  N   UNL d   1      31.344  16.911 -24.050  0.00  0.00    -0.231 NA
ATOM      4  C   UNL d   1      30.188  17.604 -24.458  0.00  0.00     0.057 A 
ATOM      5  C   UNL d   1      32.163  18.316 -23.984  0.00  0.00     0.217 A 
ATOM      6  N   UNL d   1      30.232  19.011 -24.610  0.00  0.00    -0.160 NA
ATOM      7  C   UNL d   1      32.552  17.621 -23.792  0.00  0.00     0.067 A 
ATOM      8  C   UNL d   1      32.137  16.909 -23.826  0.00  0.00     0.064 A 
ATOM      9  C   UNL d   1      29.817  18.299 -24.644  0.00  0.00     0.124 A 
ENDROOT
BRANCH   5  10
ATOM     10  N   UNL d   1      32.591  19.052 -23.949  0.00  0.00    -0.380 NA
BRANCH  10  11
ATOM     11  C   UNL d   1      32.986  19.803 -23.978  0.00  0.00     0.164 C 
BRANCH  11  12
ATOM     12  C   UNL d   1      33.117  20.232 -23.267  0.00  0.00     0.054 C 
BRANCH  12  13
ATOM     13  C   UNL d   1      33.195  21.073 -23.290  0.00  0.00     0.084 C 
BRANCH  13  14
ATOM     14  N   UNL d   1      33.182  21.517 -22.562  0.00  0.00    -0.285 N 
ATOM     15  C   UNL d   1      33.110  22.355 -22.496  0.00  0.00     0.183 A 
ATOM     16  N   UNL d   1      33.123  22.552 -21.671  0.00  0.00    -0.222 NA
ATOM     17  C   UNL d   1      33.204  21.833 -21.232  0.00  0.00     0.120 A 
ATOM     18  C   UNL d   1      33.241  21.192 -21.782  0.00  0.00     0.102 A 
ENDBRANCH  13  14
ENDBRANCH  12  13
ENDBRANCH  11  12
ENDBRANCH  10  11
ENDBRANCH   5  10
BRANCH   8  19
ATOM     19  C   UNL d   1      32.527  16.176 -23.629  0.00  0.00     0.036 C 
ATOM     20  C   UNL d   1      32.355  15.788 -22.887  0.00  0.00     0.006 C 
ATOM     21  C   UNL d   1      32.910  15.453 -23.431  0.00  0.00     0.006 C 
ATOM     22  C   UNL d   1      33.086  15.837 -24.174  0.00  0.00     0.006 C 
ENDBRANCH   8  19
BRANCH   4  23
ATOM     23  C   UNL d   1      29.773  16.891 -24.491  0.00  0.00     0.004 A 
ATOM     24  C   UNL d   1      29.176  16.759 -23.971  0.00  0.00     0.000 A 
ATOM     25  C   UNL d   1      28.761  16.047 -24.004  0.00  0.00     0.000 A 
ATOM     26  C   UNL d   1      28.956  15.489 -24.557  0.00  0.00     0.000 A 
ATOM     27  C   UNL d   1      29.564  15.630 -25.083  0.00  0.00     0.000 A 
ATOM     28  C   UNL d   1      29.979  16.342 -25.050  0.00  0.00     0.000 A 
ENDBRANCH   4  23
TORSDOF 7
ENDMDL
