MODEL 1
REMARK VINA RESULT:      43.9      0.000      0.000
REMARK  2 active torsions:
REMARK  status: ('A' for Active; 'I' for Inactive)
REMARK    1  A    between atoms: N_11  and  C_2 
REMARK    2  A    between atoms: C_16  and  N_11 
ROOT
ATOM      1  C   UNL d   1      46.294 -17.993  43.095  0.00  0.00     0.024 A 
ATOM      2  C   UNL d   1      46.184 -17.230  43.369  0.00  0.00     0.139 A 
ATOM      3  C   UNL d   1      46.412 -18.137  42.293  0.00  0.00     0.022 A 
ATOM      4  C   UNL d   1      46.190 -16.595  42.846  0.00  0.00     0.297 A 
ATOM      5  C   UNL d   1      46.287 -18.633  43.626  0.00  0.00     0.005 A 
ATOM      6  C   UNL d   1      46.522 -18.906  42.018  0.00  0.00     0.041 A 
ATOM      7  C   UNL d   1      46.517 -19.546  42.538  0.00  0.00     0.196 A 
ATOM      8  N   UNL d   1      46.308 -16.738  42.046  0.00  0.00    -0.207 NA
ATOM      9  C   UNL d   1      46.418 -17.501  41.772  0.00  0.00     0.085 A 
ATOM     10  C   UNL d   1      46.397 -19.402  43.351  0.00  0.00     0.039 A 
ATOM     11  O   UNL d   1      46.081 -15.832  43.120  0.00  0.00    -0.264 OA
ATOM     12  O   UNL d   1      46.629 -20.330  42.257  0.00  0.00    -0.287 OA
ATOM     13  C   UNL d   1      46.641 -19.054  41.215  0.00  0.00     0.003 A 
ATOM     14  C   UNL d   1      46.169 -18.489  44.427  0.00  0.00     0.000 A 
ATOM     15  C   UNL d   1      46.536 -17.643  40.966  0.00  0.00     0.019 A 
ATOM     16  C   UNL d   1      46.392 -20.042  43.870  0.00  0.00     0.003 A 
ATOM     17  C   UNL d   1      46.646 -18.411  40.690  0.00  0.00     0.002 A 
ATOM     18  C   UNL d   1      46.163 -19.128  44.955  0.00  0.00     0.000 A 
ATOM     19  C   UNL d   1      46.273 -19.896  44.679  0.00  0.00     0.000 A 
ENDROOT
BRANCH   2  20
ATOM     20  N   UNL d   1      46.065 -17.091  44.180  0.00  0.00    -0.241 NA
BRANCH  20  21
ATOM     21  C   UNL d   1      45.777 -16.369  44.434  0.00  0.00     0.082 A 
ATOM     22  C   UNL d   1      44.976 -16.308  44.627  0.00  0.00     0.019 A 
ATOM     23  C   UNL d   1      44.660 -15.587  44.887  0.00  0.00     0.002 A 
ATOM     24  C   UNL d   1      45.167 -14.911  44.955  0.00  0.00     0.000 A 
ATOM     25  C   UNL d   1      45.952 -14.978  44.764  0.00  0.00     0.002 A 
ATOM     26  C   UNL d   1      46.271 -15.705  44.502  0.00  0.00     0.019 A 
ENDBRANCH  20  21
ENDBRANCH   2  20
TORSDOF 2
ENDMDL
