MODEL 1
REMARK VINA RESULT:      34.1      0.000      0.000
REMARK  3 active torsions:
REMARK  status: ('A' for Active; 'I' for Inactive)
REMARK    1  A    between atoms: N_4  and  C_2 
REMARK    2  A    between atoms: C_10  and  C_3 
REMARK       I    between atoms: C_7  and  N_4 
REMARK    3  A    between atoms: C_8  and  C_7 
ROOT
ATOM      1  N   UNL d   1      13.695  13.183  -3.622  0.00  0.00    -0.051 NA
ATOM      2  C   UNL d   1      13.458  12.505  -3.225  0.00  0.00     0.760 A 
ATOM      3  C   UNL d   1      13.296  13.197  -4.351  0.00  0.00     0.147 A 
ATOM      4  N   UNL d   1      12.911  12.093  -3.703  0.00  0.00    -0.019 NA
ATOM      5  S   UNL d   1      12.820  12.528  -4.391  0.00  0.00     0.052 SA
ENDROOT
BRANCH   2   6
ATOM      6  N   UNL d   1      13.665  12.196  -2.480  0.00  0.00    -0.018 NA
ATOM      7  C   UNL d   1      14.196  12.597  -1.993  0.00  0.00     0.301 C 
ATOM      8  O   UNL d   1      14.526  13.316  -2.247  0.00  0.00    -0.264 OA
BRANCH   7   9
ATOM      9  C   UNL d   1      14.399  12.288  -1.256  0.00  0.00     0.088 A 
ATOM     10  S   UNL d   1      15.174  12.149  -0.984  0.00  0.00    -0.082 SA
ATOM     11  C   UNL d   1      15.122  11.835  -0.215  0.00  0.00     0.036 A 
ATOM     12  C   UNL d   1      14.323  11.782  -0.017  0.00  0.00     0.008 A 
ATOM     13  C   UNL d   1      13.880  12.060  -0.658  0.00  0.00     0.012 A 
ENDBRANCH   7   9
ENDBRANCH   2   6
BRANCH   3  14
ATOM     14  C   UNL d   1      13.375  13.785  -4.922  0.00  0.00     0.026 A 
ATOM     15  C   UNL d   1      12.977  14.511  -4.818  0.00  0.00     0.002 A 
ATOM     16  C   UNL d   1      13.054  15.106  -5.393  0.00  0.00     0.000 A 
ATOM     17  C   UNL d   1      13.521  14.977  -6.059  0.00  0.00     0.000 A 
ATOM     18  C   UNL d   1      13.917  14.262  -6.167  0.00  0.00     0.000 A 
ATOM     19  C   UNL d   1      13.845  13.666  -5.600  0.00  0.00     0.002 A 
ENDBRANCH   3  14
TORSDOF 3
ENDMDL
