MODEL 1
REMARK VINA RESULT:      10.0      0.000      0.000
REMARK  1 active torsions:
REMARK  status: ('A' for Active; 'I' for Inactive)
REMARK    1  A    between atoms: C_4  and  C_1 
ROOT
ATOM      1  C   UNL d   1      58.762  49.706  50.523  0.00  0.00     0.164 A 
ATOM      2  O   UNL d   1      58.445  49.705  49.761  0.00  0.00    -0.301 OA
ATOM      3  C   UNL d   1      58.140  49.707  51.061  0.00  0.00     0.033 A 
ATOM      4  C   UNL d   1      57.622  49.705  49.830  0.00  0.00     0.100 A 
ATOM      5  C   UNL d   1      57.433  49.706  50.637  0.00  0.00     0.025 A 
ATOM      6  C   UNL d   1      57.020  49.704  49.269  0.00  0.00     0.025 A 
ATOM      7  C   UNL d   1      56.643  49.707  50.878  0.00  0.00     0.002 A 
ATOM      8  C   UNL d   1      56.034  49.706  50.309  0.00  0.00     0.000 A 
ATOM      9  C   UNL d   1      56.222  49.705  49.506  0.00  0.00     0.002 A 
ENDROOT
BRANCH   1  10
ATOM     10  C   UNL d   1      59.564  49.707  50.702  0.00  0.00     0.235 C 
ATOM     11  O   UNL d   1      59.801  49.707  51.500  0.00  0.00    -0.642 OA
ATOM     12  O   UNL d   1      60.130  49.707  50.101  0.00  0.00    -0.642 OA
ENDBRANCH   1  10
TORSDOF 1
ENDMDL
MODEL 2
REMARK VINA RESULT:      12.1      1.030      2.913
REMARK  1 active torsions:
REMARK  status: ('A' for Active; 'I' for Inactive)
REMARK    1  A    between atoms: C_4  and  C_1 
ROOT
ATOM      1  C   UNL d   1      58.192  49.688  50.471  0.00  0.00     0.164 A 
ATOM      2  O   UNL d   1      58.815  49.697  49.930  0.00  0.00    -0.301 OA
ATOM      3  C   UNL d   1      58.511  49.681  51.230  0.00  0.00     0.033 A 
ATOM      4  C   UNL d   1      59.521  49.696  50.357  0.00  0.00     0.100 A 
ATOM      5  C   UNL d   1      59.333  49.686  51.164  0.00  0.00     0.025 A 
ATOM      6  C   UNL d   1      60.310  49.703  50.122  0.00  0.00     0.025 A 
ATOM      7  C   UNL d   1      59.933  49.683  51.731  0.00  0.00     0.002 A 
ATOM      8  C   UNL d   1      60.732  49.690  51.492  0.00  0.00     0.000 A 
ATOM      9  C   UNL d   1      60.920  49.700  50.688  0.00  0.00     0.002 A 
ENDROOT
BRANCH   1  10
ATOM     10  C   UNL d   1      57.395  49.685  50.275  0.00  0.00     0.235 C 
ATOM     11  O   UNL d   1      56.827  49.697  50.885  0.00  0.00    -0.642 OA
ATOM     12  O   UNL d   1      57.155  49.672  49.486  0.00  0.00    -0.642 OA
ENDBRANCH   1  10
TORSDOF 1
ENDMDL
