MODEL 1
REMARK VINA RESULT:      38.6      0.000      0.000
REMARK  4 active torsions:
REMARK  status: ('A' for Active; 'I' for Inactive)
REMARK    1  A    between atoms: C_12  and  C_2 
REMARK    2  A    between atoms: C_13  and  C_3 
REMARK    3  A    between atoms: N_8  and  C_6 
REMARK       I    between atoms: C_7  and  N_9 
REMARK    4  A    between atoms: N_9  and  N_8 
ROOT
ATOM      1  C   UNL d   1     -59.078 -98.764 -44.676  0.00  0.00     0.196 A 
ATOM      2  C   UNL d   1     -58.711 -98.767 -43.918  0.00  0.00     0.041 A 
ATOM      3  C   UNL d   1     -58.644 -98.760 -45.348  0.00  0.00     0.041 A 
ATOM      4  C   UNL d   1     -57.874 -98.764 -43.864  0.00  0.00     0.024 A 
ATOM      5  C   UNL d   1     -57.818 -98.758 -45.309  0.00  0.00     0.024 A 
ATOM      6  C   UNL d   1     -57.439 -98.760 -44.578  0.00  0.00     0.103 A 
ATOM      7  O   UNL d   1     -59.932 -98.766 -44.763  0.00  0.00    -0.287 OA
ENDROOT
BRANCH   6   8
ATOM      8  N   UNL d   1     -56.589 -98.758 -44.531  0.00  0.00    -0.144 NA
BRANCH   8   9
ATOM      9  N   UNL d   1     -56.142 -99.453 -44.413  0.00  0.00    -0.087 NA
ATOM     10  C   UNL d   1     -55.325 -99.494 -44.574  0.00  0.00     0.404 C 
ATOM     11  O   UNL d   1     -54.936 -98.816 -44.864  0.00  0.00    -0.239 OA
ATOM     12  N   UNL d   1     -54.904-100.202 -44.447  0.00  0.00    -0.083 N 
ENDBRANCH   8   9
ENDBRANCH   6   8
BRANCH   3  13
ATOM     13  C   UNL d   1     -59.037 -98.758 -46.075  0.00  0.00     0.003 C 
ATOM     14  C   UNL d   1     -59.842 -98.755 -46.103  0.00  0.00     0.000 C 
ATOM     15  C   UNL d   1     -58.597 -98.758 -46.773  0.00  0.00     0.000 C 
ENDBRANCH   3  13
BRANCH   2  16
ATOM     16  C   UNL d   1     -59.160 -98.771 -43.248  0.00  0.00     0.003 C 
ATOM     17  C   UNL d   1     -58.788 -98.791 -42.531  0.00  0.00     0.000 C 
ATOM     18  C   UNL d   1     -59.956 -98.755 -43.289  0.00  0.00     0.000 C 
ENDBRANCH   2  16
TORSDOF 4
ENDMDL
