MODEL 1
REMARK VINA RESULT:      -8.0      0.000      0.000
REMARK  6 active torsions:
REMARK  status: ('A' for Active; 'I' for Inactive)
REMARK    1  A    between atoms: C_5  and  C_1 
REMARK    2  A    between atoms: N_4  and  C_2 
REMARK       I    between atoms: C_3  and  N_4 
REMARK    3  A    between atoms: C_10  and  C_3 
REMARK    4  A    between atoms: O_15  and  C_5 
REMARK    5  A    between atoms: C_6  and  C_7 
REMARK    6  A    between atoms: O_16  and  C_6 
ROOT
ATOM      1  C   UNL d   1     -48.245  14.480  22.765  0.00  0.00     0.093 A 
ATOM      2  C   UNL d   1     -48.164  13.678  22.941  0.00  0.00     0.140 A 
ATOM      3  C   UNL d   1     -46.745  13.793  22.819  0.00  0.00     0.066 A 
ATOM      4  C   UNL d   1     -47.412  13.334  22.968  0.00  0.00     0.038 A 
ATOM      5  C   UNL d   1     -47.573  14.938  22.616  0.00  0.00     0.008 A 
ATOM      6  C   UNL d   1     -46.825  14.595  22.643  0.00  0.00     0.006 A 
ENDROOT
BRANCH   2   7
ATOM      7  N   UNL d   1     -48.831  13.215  23.091  0.00  0.00    -0.368 NA
ATOM      8  C   UNL d   1     -49.494  12.758  23.241  0.00  0.00     0.303 C 
ATOM      9  O   UNL d   1     -50.111  13.055  23.697  0.00  0.00    -0.256 OA
BRANCH   8  10
ATOM     10  C   UNL d   1     -49.541  11.994  22.931  0.00  0.00     0.085 C 
ATOM     11  C   UNL d   1     -49.280  11.827  22.165  0.00  0.00     0.011 C 
ATOM     12  C   UNL d   1     -49.850  11.933  23.695  0.00  0.00     0.011 C 
ATOM     13  C   UNL d   1     -49.853  11.380  23.391  0.00  0.00     0.011 C 
ENDBRANCH   8  10
ENDBRANCH   2   7
BRANCH   1  14
ATOM     14  C   UNL d   1     -48.992  14.823  22.738  0.00  0.00     0.298 C 
ATOM     15  O   UNL d   1     -49.445  14.773  22.051  0.00  0.00    -0.259 OA
BRANCH  14  16
ATOM     16  O   UNL d   1     -49.286  15.218  23.398  0.00  0.00    -0.296 OA
ATOM     17  C   UNL d   1     -49.828  15.841  23.306  0.00  0.00     0.185 C 
ENDBRANCH  14  16
ENDBRANCH   1  14
BRANCH   3  18
ATOM     18  C   UNL d   1     -45.997  13.449  22.846  0.00  0.00     0.296 C 
ATOM     19  O   UNL d   1     -45.782  12.977  23.487  0.00  0.00    -0.259 OA
BRANCH  18  20
ATOM     20  O   UNL d   1     -45.457  13.576  22.227  0.00  0.00    -0.296 OA
ATOM     21  C   UNL d   1     -44.849  13.038  22.094  0.00  0.00     0.185 C 
ENDBRANCH  18  20
ENDBRANCH   3  18
TORSDOF 6
ENDMDL
MODEL 2
REMARK VINA RESULT:      -7.6      0.969      2.466
REMARK  6 active torsions:
REMARK  status: ('A' for Active; 'I' for Inactive)
REMARK    1  A    between atoms: C_5  and  C_1 
REMARK    2  A    between atoms: N_4  and  C_2 
REMARK       I    between atoms: C_3  and  N_4 
REMARK    3  A    between atoms: C_10  and  C_3 
REMARK    4  A    between atoms: O_15  and  C_5 
REMARK    5  A    between atoms: C_6  and  C_7 
REMARK    6  A    between atoms: O_16  and  C_6 
ROOT
ATOM      1  C   UNL d   1     -48.879  12.483  22.987  0.00  0.00     0.093 A 
ATOM      2  C   UNL d   1     -48.604  13.256  23.076  0.00  0.00     0.140 A 
ATOM      3  C   UNL d   1     -47.258  12.791  22.961  0.00  0.00     0.066 A 
ATOM      4  C   UNL d   1     -47.792  13.409  23.063  0.00  0.00     0.038 A 
ATOM      5  C   UNL d   1     -48.341  11.863  22.886  0.00  0.00     0.008 A 
ATOM      6  C   UNL d   1     -47.533  12.018  22.873  0.00  0.00     0.006 A 
ENDROOT
BRANCH   2   7
ATOM      7  N   UNL d   1     -49.137  13.878  23.178  0.00  0.00    -0.368 NA
ATOM      8  C   UNL d   1     -49.666  14.494  23.280  0.00  0.00     0.303 C 
ATOM      9  O   UNL d   1     -50.371  14.375  23.687  0.00  0.00    -0.256 OA
BRANCH   8  10
ATOM     10  C   UNL d   1     -49.490  15.240  22.971  0.00  0.00     0.085 C 
ATOM     11  C   UNL d   1     -49.036  15.322  22.285  0.00  0.00     0.011 C 
ATOM     12  C   UNL d   1     -49.944  15.390  23.644  0.00  0.00     0.011 C 
ATOM     13  C   UNL d   1     -49.769  15.921  23.351  0.00  0.00     0.011 C 
ENDBRANCH   8  10
ENDBRANCH   2   7
BRANCH   1  14
ATOM     14  C   UNL d   1     -49.687  12.328  23.000  0.00  0.00     0.298 C 
ATOM     15  O   UNL d   1     -50.137  12.427  22.316  0.00  0.00    -0.259 OA
BRANCH  14  16
ATOM     16  O   UNL d   1     -50.046  12.075  23.697  0.00  0.00    -0.296 OA
ATOM     17  C   UNL d   1     -50.762  11.656  23.670  0.00  0.00     0.185 C 
ENDBRANCH  14  16
ENDBRANCH   1  14
BRANCH   3  18
ATOM     18  C   UNL d   1     -46.449  12.946  22.948  0.00  0.00     0.296 C 
ATOM     19  O   UNL d   1     -45.992  12.816  23.623  0.00  0.00    -0.259 OA
BRANCH  18  20
ATOM     20  O   UNL d   1     -46.091  13.233  22.256  0.00  0.00    -0.296 OA
ATOM     21  C   UNL d   1     -45.274  13.329  22.224  0.00  0.00     0.185 C 
ENDBRANCH  18  20
ENDBRANCH   3  18
TORSDOF 6
ENDMDL
MODEL 3
REMARK VINA RESULT:      -7.5      1.239      2.763
REMARK  6 active torsions:
REMARK  status: ('A' for Active; 'I' for Inactive)
REMARK    1  A    between atoms: C_5  and  C_1 
REMARK    2  A    between atoms: N_4  and  C_2 
REMARK       I    between atoms: C_3  and  N_4 
REMARK    3  A    between atoms: C_10  and  C_3 
REMARK    4  A    between atoms: O_15  and  C_5 
REMARK    5  A    between atoms: C_6  and  C_7 
REMARK    6  A    between atoms: O_16  and  C_6 
ROOT
ATOM      1  C   UNL d   1     -48.983  12.068  23.203  0.00  0.00     0.093 A 
ATOM      2  C   UNL d   1     -48.500  12.716  23.034  0.00  0.00     0.140 A 
ATOM      3  C   UNL d   1     -47.359  11.983  23.485  0.00  0.00     0.066 A 
ATOM      4  C   UNL d   1     -47.686  12.672  23.176  0.00  0.00     0.038 A 
ATOM      5  C   UNL d   1     -48.651  11.377  23.513  0.00  0.00     0.008 A 
ATOM      6  C   UNL d   1     -47.842  11.336  23.654  0.00  0.00     0.006 A 
ENDROOT
BRANCH   2   7
ATOM      7  N   UNL d   1     -48.825  13.408  22.724  0.00  0.00    -0.368 NA
ATOM      8  C   UNL d   1     -49.148  14.095  22.415  0.00  0.00     0.303 C 
ATOM      9  O   UNL d   1     -49.625  14.065  21.745  0.00  0.00    -0.256 OA
BRANCH   8  10
ATOM     10  C   UNL d   1     -48.993  14.820  22.779  0.00  0.00     0.085 C 
ATOM     11  C   UNL d   1     -49.244  14.971  23.552  0.00  0.00     0.011 C 
ATOM     12  C   UNL d   1     -48.659  14.884  22.027  0.00  0.00     0.011 C 
ATOM     13  C   UNL d   1     -48.579  15.408  22.370  0.00  0.00     0.011 C 
ENDBRANCH   8  10
ENDBRANCH   2   7
BRANCH   1  14
ATOM     14  C   UNL d   1     -49.792  12.110  23.062  0.00  0.00     0.298 C 
ATOM     15  O   UNL d   1     -50.085  12.003  22.298  0.00  0.00    -0.259 OA
BRANCH  14  16
ATOM     16  O   UNL d   1     -50.310  12.259  23.685  0.00  0.00    -0.296 OA
ATOM     17  C   UNL d   1     -51.064  11.912  23.693  0.00  0.00     0.185 C 
ENDBRANCH  14  16
ENDBRANCH   1  14
BRANCH   3  18
ATOM     18  C   UNL d   1     -46.548  11.942  23.626  0.00  0.00     0.296 C 
ATOM     19  O   UNL d   1     -46.105  12.634  23.696  0.00  0.00    -0.259 OA
BRANCH  18  20
ATOM     20  O   UNL d   1     -46.175  11.203  23.697  0.00  0.00    -0.296 OA
ATOM     21  C   UNL d   1     -45.371  11.129  23.534  0.00  0.00     0.185 C 
ENDBRANCH  18  20
ENDBRANCH   3  18
TORSDOF 6
ENDMDL
MODEL 4
REMARK VINA RESULT:      -7.3      0.940      3.017
REMARK  6 active torsions:
REMARK  status: ('A' for Active; 'I' for Inactive)
REMARK    1  A    between atoms: C_5  and  C_1 
REMARK    2  A    between atoms: N_4  and  C_2 
REMARK       I    between atoms: C_3  and  N_4 
REMARK    3  A    between atoms: C_10  and  C_3 
REMARK    4  A    between atoms: O_15  and  C_5 
REMARK    5  A    between atoms: C_6  and  C_7 
REMARK    6  A    between atoms: O_16  and  C_6 
ROOT
ATOM      1  C   UNL d   1     -47.280  14.061  22.843  0.00  0.00     0.093 A 
ATOM      2  C   UNL d   1     -47.985  13.655  22.983  0.00  0.00     0.140 A 
ATOM      3  C   UNL d   1     -48.708  14.886  22.914  0.00  0.00     0.066 A 
ATOM      4  C   UNL d   1     -48.700  14.070  23.018  0.00  0.00     0.038 A 
ATOM      5  C   UNL d   1     -47.291  14.882  22.739  0.00  0.00     0.008 A 
ATOM      6  C   UNL d   1     -48.003  15.292  22.775  0.00  0.00     0.006 A 
ENDROOT
BRANCH   2   7
ATOM      7  N   UNL d   1     -47.981  12.837  23.087  0.00  0.00    -0.368 NA
ATOM      8  C   UNL d   1     -47.975  12.025  23.193  0.00  0.00     0.303 C 
ATOM      9  O   UNL d   1     -47.366  11.663  23.612  0.00  0.00    -0.256 OA
BRANCH   8  10
ATOM     10  C   UNL d   1     -48.585  11.567  22.875  0.00  0.00     0.085 C 
ATOM     11  C   UNL d   1     -48.689  11.502  22.058  0.00  0.00     0.011 C 
ATOM     12  C   UNL d   1     -48.667  11.492  23.694  0.00  0.00     0.011 C 
ATOM     13  C   UNL d   1     -49.105  11.165  23.378  0.00  0.00     0.011 C 
ENDBRANCH   8  10
ENDBRANCH   2   7
BRANCH   1  14
ATOM     14  C   UNL d   1     -46.568  13.651  22.807  0.00  0.00     0.298 C 
ATOM     15  O   UNL d   1     -46.190  13.418  23.503  0.00  0.00    -0.259 OA
BRANCH  14  16
ATOM     16  O   UNL d   1     -46.233  13.472  22.077  0.00  0.00    -0.296 OA
ATOM     17  C   UNL d   1     -45.412  13.374  22.006  0.00  0.00     0.185 C 
ENDBRANCH  14  16
ENDBRANCH   1  14
BRANCH   3  18
ATOM     18  C   UNL d   1     -49.421  15.297  22.950  0.00  0.00     0.296 C 
ATOM     19  O   UNL d   1     -49.634  15.697  23.640  0.00  0.00    -0.259 OA
BRANCH  18  20
ATOM     20  O   UNL d   1     -49.928  15.310  22.292  0.00  0.00    -0.296 OA
ATOM     21  C   UNL d   1     -50.743  15.357  22.400  0.00  0.00     0.185 C 
ENDBRANCH  18  20
ENDBRANCH   3  18
TORSDOF 6
ENDMDL
MODEL 5
REMARK VINA RESULT:      -6.0      8.972      9.950
REMARK  6 active torsions:
REMARK  status: ('A' for Active; 'I' for Inactive)
REMARK    1  A    between atoms: C_5  and  C_1 
REMARK    2  A    between atoms: N_4  and  C_2 
REMARK       I    between atoms: C_3  and  N_4 
REMARK    3  A    between atoms: C_10  and  C_3 
REMARK    4  A    between atoms: O_15  and  C_5 
REMARK    5  A    between atoms: C_6  and  C_7 
REMARK    6  A    between atoms: O_16  and  C_6 
ROOT
ATOM      1  C   UNL d   1     -40.424  15.220  18.537  0.00  0.00     0.093 A 
ATOM      2  C   UNL d   1     -39.763  14.774  18.747  0.00  0.00     0.140 A 
ATOM      3  C   UNL d   1     -39.684  15.475  19.989  0.00  0.00     0.066 A 
ATOM      4  C   UNL d   1     -39.392  14.903  19.475  0.00  0.00     0.038 A 
ATOM      5  C   UNL d   1     -40.715  15.795  19.055  0.00  0.00     0.008 A 
ATOM      6  C   UNL d   1     -40.346  15.922  19.779  0.00  0.00     0.006 A 
ENDROOT
BRANCH   2   7
ATOM      7  N   UNL d   1     -39.468  14.199  18.234  0.00  0.00    -0.368 NA
ATOM      8  C   UNL d   1     -39.177  13.627  17.725  0.00  0.00     0.303 C 
ATOM      9  O   UNL d   1     -39.684  13.075  17.385  0.00  0.00    -0.256 OA
BRANCH   8  10
ATOM     10  C   UNL d   1     -38.370  13.606  17.552  0.00  0.00     0.085 C 
ATOM     11  C   UNL d   1     -37.942  14.303  17.426  0.00  0.00     0.011 C 
ATOM     12  C   UNL d   1     -38.589  12.815  17.637  0.00  0.00     0.011 C 
ATOM     13  C   UNL d   1     -37.976  12.880  17.502  0.00  0.00     0.011 C 
ENDBRANCH   8  10
ENDBRANCH   2   7
BRANCH   1  14
ATOM     14  C   UNL d   1     -40.794  15.093  17.813  0.00  0.00     0.298 C 
ATOM     15  O   UNL d   1     -41.288  14.441  17.710  0.00  0.00    -0.259 OA
BRANCH  14  16
ATOM     16  O   UNL d   1     -40.670  15.619  17.191  0.00  0.00    -0.296 OA
ATOM     17  C   UNL d   1     -41.265  15.745  16.625  0.00  0.00     0.185 C 
ENDBRANCH  14  16
ENDBRANCH   1  14
BRANCH   3  18
ATOM     18  C   UNL d   1     -39.314  15.602  20.714  0.00  0.00     0.296 C 
ATOM     19  O   UNL d   1     -38.554  15.922  20.740  0.00  0.00    -0.259 OA
BRANCH  18  20
ATOM     20  O   UNL d   1     -39.705  15.409  21.422  0.00  0.00    -0.296 OA
ATOM     21  C   UNL d   1     -39.309  15.468  22.141  0.00  0.00     0.185 C 
ENDBRANCH  18  20
ENDBRANCH   3  18
TORSDOF 6
ENDMDL
MODEL 6
REMARK VINA RESULT:      -5.9      1.126      3.724
REMARK  6 active torsions:
REMARK  status: ('A' for Active; 'I' for Inactive)
REMARK    1  A    between atoms: C_5  and  C_1 
REMARK    2  A    between atoms: N_4  and  C_2 
REMARK       I    between atoms: C_3  and  N_4 
REMARK    3  A    between atoms: C_10  and  C_3 
REMARK    4  A    between atoms: O_15  and  C_5 
REMARK    5  A    between atoms: C_6  and  C_7 
REMARK    6  A    between atoms: O_16  and  C_6 
ROOT
ATOM      1  C   UNL d   1     -47.265  12.796  22.942  0.00  0.00     0.093 A 
ATOM      2  C   UNL d   1     -47.951  13.246  22.857  0.00  0.00     0.140 A 
ATOM      3  C   UNL d   1     -48.739  12.056  22.936  0.00  0.00     0.066 A 
ATOM      4  C   UNL d   1     -48.690  12.874  22.854  0.00  0.00     0.038 A 
ATOM      5  C   UNL d   1     -47.317  11.975  23.025  0.00  0.00     0.008 A 
ATOM      6  C   UNL d   1     -48.053  11.607  23.022  0.00  0.00     0.006 A 
ENDROOT
BRANCH   2   7
ATOM      7  N   UNL d   1     -47.906  14.065  22.774  0.00  0.00    -0.368 NA
ATOM      8  C   UNL d   1     -47.858  14.879  22.692  0.00  0.00     0.303 C 
ATOM      9  O   UNL d   1     -47.133  15.241  22.547  0.00  0.00    -0.256 OA
BRANCH   8  10
ATOM     10  C   UNL d   1     -48.543  15.337  22.754  0.00  0.00     0.085 C 
ATOM     11  C   UNL d   1     -49.067  15.236  23.385  0.00  0.00     0.011 C 
ATOM     12  C   UNL d   1     -48.174  15.599  22.063  0.00  0.00     0.011 C 
ATOM     13  C   UNL d   1     -48.712  15.907  22.179  0.00  0.00     0.011 C 
ENDBRANCH   8  10
ENDBRANCH   2   7
BRANCH   1  14
ATOM     14  C   UNL d   1     -46.529  13.165  22.946  0.00  0.00     0.298 C 
ATOM     15  O   UNL d   1     -46.212  13.448  23.653  0.00  0.00    -0.259 OA
BRANCH  14  16
ATOM     16  O   UNL d   1     -46.109  13.250  22.242  0.00  0.00    -0.296 OA
ATOM     17  C   UNL d   1     -45.280  13.219  22.244  0.00  0.00     0.185 C 
ENDBRANCH  14  16
ENDBRANCH   1  14
BRANCH   3  18
ATOM     18  C   UNL d   1     -49.476  11.688  22.933  0.00  0.00     0.296 C 
ATOM     19  O   UNL d   1     -49.625  11.065  22.413  0.00  0.00    -0.259 OA
BRANCH  18  20
ATOM     20  O   UNL d   1     -50.072  11.943  23.453  0.00  0.00    -0.296 OA
ATOM     21  C   UNL d   1     -50.686  11.434  23.658  0.00  0.00     0.185 C 
ENDBRANCH  18  20
ENDBRANCH   3  18
TORSDOF 6
ENDMDL
MODEL 7
REMARK VINA RESULT:      -5.8      1.295      3.958
REMARK  6 active torsions:
REMARK  status: ('A' for Active; 'I' for Inactive)
REMARK    1  A    between atoms: C_5  and  C_1 
REMARK    2  A    between atoms: N_4  and  C_2 
REMARK       I    between atoms: C_3  and  N_4 
REMARK    3  A    between atoms: C_10  and  C_3 
REMARK    4  A    between atoms: O_15  and  C_5 
REMARK    5  A    between atoms: C_6  and  C_7 
REMARK    6  A    between atoms: O_16  and  C_6 
ROOT
ATOM      1  C   UNL d   1     -49.033  12.258  22.934  0.00  0.00     0.093 A 
ATOM      2  C   UNL d   1     -48.664  12.995  22.981  0.00  0.00     0.140 A 
ATOM      3  C   UNL d   1     -49.938  13.638  22.907  0.00  0.00     0.066 A 
ATOM      4  C   UNL d   1     -49.118  13.686  22.967  0.00  0.00     0.038 A 
ATOM      5  C   UNL d   1     -49.857  12.213  22.874  0.00  0.00     0.008 A 
ATOM      6  C   UNL d   1     -50.307  12.902  22.860  0.00  0.00     0.006 A 
ENDROOT
BRANCH   2   7
ATOM      7  N   UNL d   1     -47.843  13.047  23.041  0.00  0.00    -0.368 NA
ATOM      8  C   UNL d   1     -47.027  13.097  23.103  0.00  0.00     0.303 C 
ATOM      9  O   UNL d   1     -46.629  12.687  23.695  0.00  0.00    -0.256 OA
BRANCH   8  10
ATOM     10  C   UNL d   1     -46.605  13.562  22.567  0.00  0.00     0.085 C 
ATOM     11  C   UNL d   1     -46.757  13.522  21.755  0.00  0.00     0.011 C 
ATOM     12  C   UNL d   1     -46.296  13.757  23.307  0.00  0.00     0.011 C 
ATOM     13  C   UNL d   1     -46.018  14.078  22.840  0.00  0.00     0.011 C 
ENDBRANCH   8  10
ENDBRANCH   2   7
BRANCH   1  14
ATOM     14  C   UNL d   1     -48.583  11.570  22.947  0.00  0.00     0.298 C 
ATOM     15  O   UNL d   1     -48.327  11.258  23.667  0.00  0.00    -0.259 OA
BRANCH  14  16
ATOM     16  O   UNL d   1     -48.387  11.194  22.241  0.00  0.00    -0.296 OA
ATOM     17  C   UNL d   1     -48.186  10.388  22.239  0.00  0.00     0.185 C 
ENDBRANCH  14  16
ENDBRANCH   1  14
BRANCH   3  18
ATOM     18  C   UNL d   1     -50.389  14.328  22.894  0.00  0.00     0.296 C 
ATOM     19  O   UNL d   1     -50.521  14.722  22.181  0.00  0.00    -0.259 OA
BRANCH  18  20
ATOM     20  O   UNL d   1     -50.712  14.628  23.598  0.00  0.00    -0.296 OA
ATOM     21  C   UNL d   1     -51.062  15.373  23.606  0.00  0.00     0.185 C 
ENDBRANCH  18  20
ENDBRANCH   3  18
TORSDOF 6
ENDMDL
MODEL 8
REMARK VINA RESULT:      -5.4      8.159      9.810
REMARK  6 active torsions:
REMARK  status: ('A' for Active; 'I' for Inactive)
REMARK    1  A    between atoms: C_5  and  C_1 
REMARK    2  A    between atoms: N_4  and  C_2 
REMARK       I    between atoms: C_3  and  N_4 
REMARK    3  A    between atoms: C_10  and  C_3 
REMARK    4  A    between atoms: O_15  and  C_5 
REMARK    5  A    between atoms: C_6  and  C_7 
REMARK    6  A    between atoms: O_16  and  C_6 
ROOT
ATOM      1  C   UNL d   1     -39.828  14.488  17.599  0.00  0.00     0.093 A 
ATOM      2  C   UNL d   1     -39.733  14.241  18.381  0.00  0.00     0.140 A 
ATOM      3  C   UNL d   1     -38.860  13.197  17.945  0.00  0.00     0.066 A 
ATOM      4  C   UNL d   1     -39.247  13.593  18.553  0.00  0.00     0.038 A 
ATOM      5  C   UNL d   1     -39.437  14.088  16.990  0.00  0.00     0.008 A 
ATOM      6  C   UNL d   1     -38.954  13.444  17.163  0.00  0.00     0.006 A 
ENDROOT
BRANCH   2   7
ATOM      7  N   UNL d   1     -40.120  14.636  18.993  0.00  0.00    -0.368 NA
ATOM      8  C   UNL d   1     -40.507  15.028  19.599  0.00  0.00     0.303 C 
ATOM      9  O   UNL d   1     -41.286  15.274  19.506  0.00  0.00    -0.256 OA
BRANCH   8  10
ATOM     10  C   UNL d   1     -40.110  15.176  20.309  0.00  0.00     0.085 C 
ATOM     11  C   UNL d   1     -39.352  15.507  20.313  0.00  0.00     0.011 C 
ATOM     12  C   UNL d   1     -40.835  14.851  20.534  0.00  0.00     0.011 C 
ATOM     13  C   UNL d   1     -40.471  14.992  21.030  0.00  0.00     0.011 C 
ENDBRANCH   8  10
ENDBRANCH   2   7
BRANCH   1  14
ATOM     14  C   UNL d   1     -40.310  15.131  17.426  0.00  0.00     0.298 C 
ATOM     15  O   UNL d   1     -40.021  15.899  17.511  0.00  0.00    -0.259 OA
BRANCH  14  16
ATOM     16  O   UNL d   1     -41.083  15.008  17.169  0.00  0.00    -0.296 OA
ATOM     17  C   UNL d   1     -41.437  15.542  16.641  0.00  0.00     0.185 C 
ENDBRANCH  14  16
ENDBRANCH   1  14
BRANCH   3  18
ATOM     18  C   UNL d   1     -38.376  12.553  18.118  0.00  0.00     0.296 C 
ATOM     19  O   UNL d   1     -37.956  12.531  18.827  0.00  0.00    -0.259 OA
BRANCH  18  20
ATOM     20  O   UNL d   1     -38.312  11.923  17.579  0.00  0.00    -0.296 OA
ATOM     21  C   UNL d   1     -37.948  11.221  17.808  0.00  0.00     0.185 C 
ENDBRANCH  18  20
ENDBRANCH   3  18
TORSDOF 6
ENDMDL
MODEL 9
REMARK VINA RESULT:      -5.4      1.567      2.183
REMARK  6 active torsions:
REMARK  status: ('A' for Active; 'I' for Inactive)
REMARK    1  A    between atoms: C_5  and  C_1 
REMARK    2  A    between atoms: N_4  and  C_2 
REMARK       I    between atoms: C_3  and  N_4 
REMARK    3  A    between atoms: C_10  and  C_3 
REMARK    4  A    between atoms: O_15  and  C_5 
REMARK    5  A    between atoms: C_6  and  C_7 
REMARK    6  A    between atoms: O_16  and  C_6 
ROOT
ATOM      1  C   UNL d   1     -46.563  13.135  23.103  0.00  0.00     0.093 A 
ATOM      2  C   UNL d   1     -47.010  12.460  23.256  0.00  0.00     0.140 A 
ATOM      3  C   UNL d   1     -45.811  11.689  23.360  0.00  0.00     0.066 A 
ATOM      4  C   UNL d   1     -46.633  11.735  23.385  0.00  0.00     0.038 A 
ATOM      5  C   UNL d   1     -45.738  13.086  23.079  0.00  0.00     0.008 A 
ATOM      6  C   UNL d   1     -45.364  12.365  23.207  0.00  0.00     0.006 A 
ENDROOT
BRANCH   2   7
ATOM      7  N   UNL d   1     -47.834  12.502  23.282  0.00  0.00    -0.368 NA
ATOM      8  C   UNL d   1     -48.652  12.546  23.308  0.00  0.00     0.303 C 
ATOM      9  O   UNL d   1     -49.023  13.201  23.641  0.00  0.00    -0.256 OA
BRANCH   8  10
ATOM     10  C   UNL d   1     -49.104  11.928  22.999  0.00  0.00     0.085 C 
ATOM     11  C   UNL d   1     -48.894  11.559  22.290  0.00  0.00     0.011 C 
ATOM     12  C   UNL d   1     -49.488  12.144  23.698  0.00  0.00     0.011 C 
ATOM     13  C   UNL d   1     -49.780  11.670  23.401  0.00  0.00     0.011 C 
ENDBRANCH   8  10
ENDBRANCH   2   7
BRANCH   1  14
ATOM     14  C   UNL d   1     -46.937  13.857  22.975  0.00  0.00     0.298 C 
ATOM     15  O   UNL d   1     -47.201  14.305  23.616  0.00  0.00    -0.259 OA
BRANCH  14  16
ATOM     16  O   UNL d   1     -47.047  14.132  22.207  0.00  0.00    -0.296 OA
ATOM     17  C   UNL d   1     -46.984  14.943  22.040  0.00  0.00     0.185 C 
ENDBRANCH  14  16
ENDBRANCH   1  14
BRANCH   3  18
ATOM     18  C   UNL d   1     -45.437  10.966  23.488  0.00  0.00     0.296 C 
ATOM     19  O   UNL d   1     -45.881  10.301  23.692  0.00  0.00    -0.259 OA
BRANCH  18  20
ATOM     20  O   UNL d   1     -44.612  10.905  23.413  0.00  0.00    -0.296 OA
ATOM     21  C   UNL d   1     -44.247  10.168  23.462  0.00  0.00     0.185 C 
ENDBRANCH  18  20
ENDBRANCH   3  18
TORSDOF 6
ENDMDL
