MODEL 1
REMARK VINA RESULT:      46.8      0.000      0.000
REMARK  6 active torsions:
REMARK  status: ('A' for Active; 'I' for Inactive)
REMARK    1  A    between atoms: C_6  and  N_2 
REMARK    2  A    between atoms: C_7  and  C_3 
REMARK    3  A    between atoms: C_14  and  C_6 
REMARK    4  A    between atoms: C_8  and  O_16 
REMARK    5  A    between atoms: C_19  and  C_14 
REMARK    6  A    between atoms: O_16  and  C_19 
ROOT
ATOM      1  N   UNL d   1      44.172 -13.818  44.102  0.00  0.00    -0.224 NA
ATOM      2  N   UNL d   1      45.100 -12.970  43.615  0.00  0.00    -0.286 N 
ATOM      3  C   UNL d   1      44.284 -13.114  43.661  0.00  0.00     0.191 A 
ATOM      4  C   UNL d   1      45.498 -13.578  44.023  0.00  0.00     0.083 A 
ATOM      5  C   UNL d   1      44.929 -14.100  44.323  0.00  0.00     0.099 A 
ATOM      6  C   UNL d   1      46.298 -13.729  44.163  0.00  0.00     0.019 A 
ATOM      7  C   UNL d   1      45.157 -14.763  44.756  0.00  0.00     0.021 A 
ATOM      8  C   UNL d   1      46.525 -14.393  44.597  0.00  0.00     0.002 A 
ATOM      9  C   UNL d   1      45.953 -14.909  44.893  0.00  0.00     0.002 A 
ENDROOT
BRANCH   2  10
ATOM     10  C   UNL d   1      45.297 -12.290  43.194  0.00  0.00     0.084 C 
BRANCH  10  11
ATOM     11  C   UNL d   1      45.690 -12.358  42.482  0.00  0.00     0.046 C 
BRANCH  11  12
ATOM     12  C   UNL d   1      45.254 -12.481  41.796  0.00  0.00     0.124 C 
BRANCH  12  13
ATOM     13  O   UNL d   1      45.453 -12.080  41.103  0.00  0.00    -0.305 OA
BRANCH  13  14
ATOM     14  C   UNL d   1      45.212 -12.377  40.372  0.00  0.00     0.100 A 
ATOM     15  C   UNL d   1      45.719 -12.865  39.937  0.00  0.00     0.025 A 
ATOM     16  C   UNL d   1      45.480 -13.160  39.210  0.00  0.00     0.002 A 
ATOM     17  C   UNL d   1      44.733 -12.970  38.909  0.00  0.00     0.000 A 
ATOM     18  C   UNL d   1      44.226 -12.478  39.350  0.00  0.00     0.002 A 
ATOM     19  C   UNL d   1      44.492 -13.264  38.182  0.00  0.00     0.000 C 
ATOM     20  C   UNL d   1      44.470 -12.185  40.079  0.00  0.00     0.025 A 
ENDBRANCH  13  14
ENDBRANCH  12  13
ENDBRANCH  11  12
ENDBRANCH  10  11
ENDBRANCH   2  10
BRANCH   3  21
ATOM     21  C   UNL d   1      43.686 -12.650  43.334  0.00  0.00     0.271 C 
ATOM     22  O   UNL d   1      43.058 -13.007  42.937  0.00  0.00    -0.280 OA
ENDBRANCH   3  21
TORSDOF 6
ENDMDL
