MODEL 1
REMARK VINA RESULT:      57.4      0.000      0.000
REMARK  4 active torsions:
REMARK  status: ('A' for Active; 'I' for Inactive)
REMARK    1  A    between atoms: C_2  and  C_1 
REMARK    2  A    between atoms: N_12  and  C_6 
REMARK    3  A    between atoms: C_16  and  N_12 
REMARK    4  A    between atoms: O_25  and  C_17 
ROOT
ATOM      1  C   UNL d   1     -54.751-100.791 -41.735  0.00  0.00     0.082 A 
ATOM      2  C   UNL d   1     -54.761-101.527 -42.111  0.00  0.00     0.302 A 
ATOM      3  C   UNL d   1     -54.746-100.747 -40.899  0.00  0.00     0.009 A 
ATOM      4  O   UNL d   1     -54.767-102.227 -41.666  0.00  0.00    -0.273 OA
ATOM      5  C   UNL d   1     -54.752-101.448 -40.460  0.00  0.00     0.025 A 
ATOM      6  C   UNL d   1     -54.763-102.191 -40.840  0.00  0.00     0.103 A 
ATOM      7  O   UNL d   1     -54.766-101.566 -42.939  0.00  0.00    -0.259 OA
ATOM      8  C   UNL d   1     -54.748-101.407 -39.636  0.00  0.00     0.026 A 
ATOM      9  C   UNL d   1     -54.769-102.880 -40.390  0.00  0.00     0.027 A 
ATOM     10  C   UNL d   1     -54.754-102.104 -39.194  0.00  0.00     0.094 A 
ATOM     11  C   UNL d   1     -54.764-102.837 -39.569  0.00  0.00     0.026 A 
ENDROOT
BRANCH   1  12
ATOM     12  C   UNL d   1     -54.745-100.101 -42.180  0.00  0.00     0.095 A 
ATOM     13  N   UNL d   1     -54.762-100.052 -42.995  0.00  0.00    -0.221 NA
ATOM     14  C   UNL d   1     -54.748 -99.258 -43.206  0.00  0.00     0.194 A 
ATOM     15  S   UNL d   1     -54.723 -98.814 -42.516  0.00  0.00    -0.046 SA
ATOM     16  C   UNL d   1     -54.721 -99.338 -41.873  0.00  0.00     0.058 A 
BRANCH  14  17
ATOM     17  N   UNL d   1     -54.759 -98.964 -43.974  0.00  0.00    -0.221 NA
BRANCH  17  18
ATOM     18  C   UNL d   1     -55.478 -98.916 -44.379  0.00  0.00     0.084 A 
ATOM     19  C   UNL d   1     -56.186 -98.964 -43.954  0.00  0.00     0.022 A 
ATOM     20  C   UNL d   1     -56.903 -98.918 -44.346  0.00  0.00     0.044 A 
ATOM     21  C   UNL d   1     -56.909 -98.823 -45.169  0.00  0.00     0.196 A 
ATOM     22  C   UNL d   1     -56.198 -98.776 -45.590  0.00  0.00     0.044 A 
ATOM     23  O   UNL d   1     -57.632 -98.777 -45.566  0.00  0.00    -0.287 OA
ATOM     24  C   UNL d   1     -55.486 -98.823 -45.187  0.00  0.00     0.022 A 
ENDBRANCH  17  18
ENDBRANCH  14  17
ENDBRANCH   1  12
BRANCH  10  25
ATOM     25  O   UNL d   1     -54.750-102.062 -38.374  0.00  0.00    -0.328 OA
ATOM     26  C   UNL d   1     -54.946-102.725 -37.926  0.00  0.00     0.181 C 
ENDBRANCH  10  25
TORSDOF 4
ENDMDL
