MODEL 1
REMARK VINA RESULT:      -8.6      0.000      0.000
REMARK  5 active torsions:
REMARK  status: ('A' for Active; 'I' for Inactive)
REMARK    1  A    between atoms: C_2  and  C_3 
REMARK    2  A    between atoms: S_14  and  C_6 
REMARK    3  A    between atoms: C_7  and  N_12 
REMARK       I    between atoms: N_12  and  C_13 
REMARK    4  A    between atoms: C_13  and  C_20 
REMARK    5  A    between atoms: C_20  and  S_14 
ROOT
ATOM      1  N   UNL d   1      53.013  33.385  53.639  0.00  0.00    -0.208 NA
ATOM      2  C   UNL d   1      53.558  32.786  53.804  0.00  0.00     0.286 C 
ATOM      3  O   UNL d   1      54.161  32.932  54.354  0.00  0.00    -0.265 OA
ENDROOT
BRANCH   2   4
ATOM      4  C   UNL d   1      53.499  32.066  53.430  0.00  0.00     0.099 C 
BRANCH   4   5
ATOM      5  S   UNL d   1      53.580  31.369  53.856  0.00  0.00    -0.061 SA
BRANCH   5   6
ATOM      6  C   UNL d   1      53.279  30.660  53.559  0.00  0.00     0.133 A 
ATOM      7  C   UNL d   1      53.280  29.981  54.032  0.00  0.00     0.143 A 
ATOM      8  C   UNL d   1      52.979  29.273  53.735  0.00  0.00     0.185 A 
ATOM      9  N   UNL d   1      53.541  29.848  54.805  0.00  0.00    -0.219 NA
ATOM     10  N   UNL d   1      53.056  28.708  54.326  0.00  0.00    -0.203 NA
ATOM     11  N   UNL d   1      52.678  29.240  52.971  0.00  0.00    -0.203 NA
ATOM     12  C   UNL d   1      53.401  29.062  54.983  0.00  0.00     0.201 A 
ATOM     13  C   UNL d   1      52.675  29.911  52.500  0.00  0.00     0.201 A 
ATOM     14  N   UNL d   1      52.974  30.625  52.787  0.00  0.00    -0.216 NA
ENDBRANCH   5   6
ENDBRANCH   4   5
ENDBRANCH   2   4
BRANCH   1  15
ATOM     15  C   UNL d   1      53.066  34.122  54.016  0.00  0.00     0.088 A 
ATOM     16  C   UNL d   1      52.674  34.772  53.704  0.00  0.00     0.089 A 
ATOM     17  C   UNL d   1      52.730  35.500  54.082  0.00  0.00     0.005 A 
ATOM     18  C   UNL d   1      53.178  35.579  54.771  0.00  0.00     0.000 A 
ATOM     19  C   UNL d   1      53.572  34.924  55.083  0.00  0.00     0.002 A 
ATOM     20  C   UNL d   1      53.515  34.191  54.702  0.00  0.00     0.019 A 
BRANCH  16  21
ATOM     21  C   UNL d   1      52.224  34.697  53.014  0.00  0.00     0.420 C 
ATOM     22  F   UNL d   1      51.818  34.631  52.382  0.00  0.00    -0.166 F 
ATOM     23  F   UNL d   1      51.413  34.435  52.918  0.00  0.00    -0.166 F 
ATOM     24  F   UNL d   1      52.453  34.864  52.205  0.00  0.00    -0.166 F 
ENDBRANCH  16  21
ENDBRANCH   1  15
TORSDOF 5
ENDMDL
MODEL 2
REMARK VINA RESULT:      -8.5      3.114      4.956
REMARK  5 active torsions:
REMARK  status: ('A' for Active; 'I' for Inactive)
REMARK    1  A    between atoms: C_2  and  C_3 
REMARK    2  A    between atoms: S_14  and  C_6 
REMARK    3  A    between atoms: C_7  and  N_12 
REMARK       I    between atoms: N_12  and  C_13 
REMARK    4  A    between atoms: C_13  and  C_20 
REMARK    5  A    between atoms: C_20  and  S_14 
ROOT
ATOM      1  N   UNL d   1      52.039  33.162  52.994  0.00  0.00    -0.208 NA
ATOM      2  C   UNL d   1      51.663  33.898  53.014  0.00  0.00     0.286 C 
ATOM      3  O   UNL d   1      51.969  34.493  53.504  0.00  0.00    -0.265 OA
ENDROOT
BRANCH   2   4
ATOM      4  C   UNL d   1      51.002  34.032  52.559  0.00  0.00     0.099 C 
BRANCH   4   5
ATOM      5  S   UNL d   1      50.377  34.476  52.853  0.00  0.00    -0.061 SA
BRANCH   5   6
ATOM      6  C   UNL d   1      49.724  34.646  52.377  0.00  0.00     0.133 A 
ATOM      7  C   UNL d   1      49.122  35.136  52.664  0.00  0.00     0.143 A 
ATOM      8  C   UNL d   1      48.470  35.306  52.188  0.00  0.00     0.185 A 
ATOM      9  N   UNL d   1      49.024  35.525  53.386  0.00  0.00    -0.219 NA
ATOM     10  N   UNL d   1      47.975  35.799  52.620  0.00  0.00    -0.203 NA
ATOM     11  N   UNL d   1      48.417  34.990  51.431  0.00  0.00    -0.203 NA
ATOM     12  C   UNL d   1      48.316  35.933  53.356  0.00  0.00     0.201 A 
ATOM     13  C   UNL d   1      49.012  34.505  51.145  0.00  0.00     0.201 A 
ATOM     14  N   UNL d   1      49.669  34.328  51.612  0.00  0.00    -0.216 NA
ENDBRANCH   5   6
ENDBRANCH   4   5
ENDBRANCH   2   4
BRANCH   1  15
ATOM     15  C   UNL d   1      52.713  33.019  53.455  0.00  0.00     0.088 A 
ATOM     16  C   UNL d   1      53.055  32.273  53.460  0.00  0.00     0.089 A 
ATOM     17  C   UNL d   1      53.723  32.136  53.920  0.00  0.00     0.005 A 
ATOM     18  C   UNL d   1      54.049  32.743  54.373  0.00  0.00     0.000 A 
ATOM     19  C   UNL d   1      53.704  33.493  54.367  0.00  0.00     0.002 A 
ATOM     20  C   UNL d   1      53.031  33.631  53.904  0.00  0.00     0.019 A 
BRANCH  16  21
ATOM     21  C   UNL d   1      52.732  31.662  53.007  0.00  0.00     0.420 C 
ATOM     22  F   UNL d   1      52.434  31.103  52.598  0.00  0.00    -0.166 F 
ATOM     23  F   UNL d   1      52.892  31.443  52.193  0.00  0.00    -0.166 F 
ATOM     24  F   UNL d   1      52.146  31.079  53.235  0.00  0.00    -0.166 F 
ENDBRANCH  16  21
ENDBRANCH   1  15
TORSDOF 5
ENDMDL
MODEL 3
REMARK VINA RESULT:      -8.0      3.078      4.988
REMARK  5 active torsions:
REMARK  status: ('A' for Active; 'I' for Inactive)
REMARK    1  A    between atoms: C_2  and  C_3 
REMARK    2  A    between atoms: S_14  and  C_6 
REMARK    3  A    between atoms: C_7  and  N_12 
REMARK       I    between atoms: N_12  and  C_13 
REMARK    4  A    between atoms: C_13  and  C_20 
REMARK    5  A    between atoms: C_20  and  S_14 
ROOT
ATOM      1  N   UNL d   1      52.104  33.871  53.685  0.00  0.00    -0.208 NA
ATOM      2  C   UNL d   1      51.575  33.847  53.050  0.00  0.00     0.286 C 
ATOM      3  O   UNL d   1      51.708  33.305  52.437  0.00  0.00    -0.265 OA
ENDROOT
BRANCH   2   4
ATOM      4  C   UNL d   1      50.935  34.349  53.032  0.00  0.00     0.099 C 
BRANCH   4   5
ATOM      5  S   UNL d   1      50.363  34.272  52.448  0.00  0.00    -0.061 SA
BRANCH   5   6
ATOM      6  C   UNL d   1      49.666  34.714  52.485  0.00  0.00     0.133 A 
ATOM      7  C   UNL d   1      49.156  34.732  51.834  0.00  0.00     0.143 A 
ATOM      8  C   UNL d   1      48.459  35.173  51.870  0.00  0.00     0.185 A 
ATOM      9  N   UNL d   1      49.195  34.373  51.090  0.00  0.00    -0.219 NA
ATOM     10  N   UNL d   1      48.075  35.083  51.150  0.00  0.00    -0.203 NA
ATOM     11  N   UNL d   1      48.271  35.594  52.551  0.00  0.00    -0.203 NA
ATOM     12  C   UNL d   1      48.528  34.591  50.672  0.00  0.00     0.201 A 
ATOM     13  C   UNL d   1      48.775  35.577  53.197  0.00  0.00     0.201 A 
ATOM     14  N   UNL d   1      49.475  35.139  53.172  0.00  0.00    -0.216 NA
ENDBRANCH   5   6
ENDBRANCH   4   5
ENDBRANCH   2   4
BRANCH   1  15
ATOM     15  C   UNL d   1      52.758  33.363  53.711  0.00  0.00     0.088 A 
ATOM     16  C   UNL d   1      53.401  33.546  54.187  0.00  0.00     0.089 A 
ATOM     17  C   UNL d   1      54.047  33.038  54.209  0.00  0.00     0.005 A 
ATOM     18  C   UNL d   1      54.052  32.349  53.755  0.00  0.00     0.000 A 
ATOM     19  C   UNL d   1      53.404  32.166  53.276  0.00  0.00     0.002 A 
ATOM     20  C   UNL d   1      52.753  32.678  53.255  0.00  0.00     0.019 A 
BRANCH  16  21
ATOM     21  C   UNL d   1      53.401  34.235  54.644  0.00  0.00     0.420 C 
ATOM     22  F   UNL d   1      53.398  34.861  55.064  0.00  0.00    -0.166 F 
ATOM     23  F   UNL d   1      53.668  35.024  54.440  0.00  0.00    -0.166 F 
ATOM     24  F   UNL d   1      53.130  34.343  55.450  0.00  0.00    -0.166 F 
ENDBRANCH  16  21
ENDBRANCH   1  15
TORSDOF 5
ENDMDL
MODEL 4
REMARK VINA RESULT:      -7.4      3.230      4.533
REMARK  5 active torsions:
REMARK  status: ('A' for Active; 'I' for Inactive)
REMARK    1  A    between atoms: C_2  and  C_3 
REMARK    2  A    between atoms: S_14  and  C_6 
REMARK    3  A    between atoms: C_7  and  N_12 
REMARK       I    between atoms: N_12  and  C_13 
REMARK    4  A    between atoms: C_13  and  C_20 
REMARK    5  A    between atoms: C_20  and  S_14 
ROOT
ATOM      1  N   UNL d   1      49.437  35.046  52.756  0.00  0.00    -0.208 NA
ATOM      2  C   UNL d   1      50.038  34.535  52.510  0.00  0.00     0.286 C 
ATOM      3  O   UNL d   1      49.967  34.154  51.776  0.00  0.00    -0.265 OA
ENDROOT
BRANCH   2   4
ATOM      4  C   UNL d   1      50.687  34.409  52.984  0.00  0.00     0.099 C 
BRANCH   4   5
ATOM      5  S   UNL d   1      51.253  33.851  52.776  0.00  0.00    -0.061 SA
BRANCH   5   6
ATOM      6  C   UNL d   1      51.951  33.780  53.210  0.00  0.00     0.133 A 
ATOM      7  C   UNL d   1      52.396  33.085  53.164  0.00  0.00     0.143 A 
ATOM      8  C   UNL d   1      53.094  33.014  53.599  0.00  0.00     0.185 A 
ATOM      9  N   UNL d   1      52.284  32.384  52.740  0.00  0.00    -0.219 NA
ATOM     10  N   UNL d   1      53.406  32.271  53.440  0.00  0.00    -0.203 NA
ATOM     11  N   UNL d   1      53.347  33.632  54.077  0.00  0.00    -0.203 NA
ATOM     12  C   UNL d   1      52.908  31.885  52.912  0.00  0.00     0.201 A 
ATOM     13  C   UNL d   1      52.908  34.323  54.125  0.00  0.00     0.201 A 
ATOM     14  N   UNL d   1      52.208  34.405  53.694  0.00  0.00    -0.216 NA
ENDBRANCH   5   6
ENDBRANCH   4   5
ENDBRANCH   2   4
BRANCH   1  15
ATOM     15  C   UNL d   1      48.772  35.178  52.278  0.00  0.00     0.088 A 
ATOM     16  C   UNL d   1      48.145  35.625  52.563  0.00  0.00     0.089 A 
ATOM     17  C   UNL d   1      47.488  35.753  52.086  0.00  0.00     0.005 A 
ATOM     18  C   UNL d   1      47.458  35.436  51.324  0.00  0.00     0.000 A 
ATOM     19  C   UNL d   1      48.090  34.988  51.039  0.00  0.00     0.002 A 
ATOM     20  C   UNL d   1      48.751  34.859  51.520  0.00  0.00     0.019 A 
BRANCH  16  21
ATOM     21  C   UNL d   1      48.171  35.943  53.326  0.00  0.00     0.420 C 
ATOM     22  F   UNL d   1      48.197  36.239  54.019  0.00  0.00    -0.166 F 
ATOM     23  F   UNL d   1      47.916  35.601  54.070  0.00  0.00    -0.166 F 
ATOM     24  F   UNL d   1      48.464  36.710  53.576  0.00  0.00    -0.166 F 
ENDBRANCH  16  21
ENDBRANCH   1  15
TORSDOF 5
ENDMDL
MODEL 5
REMARK VINA RESULT:      -7.2      1.952      4.702
REMARK  5 active torsions:
REMARK  status: ('A' for Active; 'I' for Inactive)
REMARK    1  A    between atoms: C_2  and  C_3 
REMARK    2  A    between atoms: S_14  and  C_6 
REMARK    3  A    between atoms: C_7  and  N_12 
REMARK       I    between atoms: N_12  and  C_13 
REMARK    4  A    between atoms: C_13  and  C_20 
REMARK    5  A    between atoms: C_20  and  S_14 
ROOT
ATOM      1  N   UNL d   1      53.468  31.223  53.744  0.00  0.00    -0.208 NA
ATOM      2  C   UNL d   1      53.648  31.854  54.247  0.00  0.00     0.286 C 
ATOM      3  O   UNL d   1      53.755  31.706  55.056  0.00  0.00    -0.265 OA
ENDROOT
BRANCH   2   4
ATOM      4  C   UNL d   1      53.717  32.608  53.948  0.00  0.00     0.099 C 
BRANCH   4   5
ATOM      5  S   UNL d   1      53.492  33.256  54.399  0.00  0.00    -0.061 SA
BRANCH   5   6
ATOM      6  C   UNL d   1      53.199  33.937  54.035  0.00  0.00     0.133 A 
ATOM      7  C   UNL d   1      53.177  34.650  54.453  0.00  0.00     0.143 A 
ATOM      8  C   UNL d   1      52.885  35.331  54.090  0.00  0.00     0.185 A 
ATOM      9  N   UNL d   1      53.405  34.846  55.223  0.00  0.00    -0.219 NA
ATOM     10  N   UNL d   1      52.934  35.941  54.637  0.00  0.00    -0.203 NA
ATOM     11  N   UNL d   1      52.615  35.302  53.314  0.00  0.00    -0.203 NA
ATOM     12  C   UNL d   1      53.253  35.642  55.333  0.00  0.00     0.201 A 
ATOM     13  C   UNL d   1      52.636  34.596  52.897  0.00  0.00     0.201 A 
ATOM     14  N   UNL d   1      52.927  33.909  53.251  0.00  0.00    -0.216 NA
ENDBRANCH   5   6
ENDBRANCH   4   5
ENDBRANCH   2   4
BRANCH   1  15
ATOM     15  C   UNL d   1      53.396  30.453  54.042  0.00  0.00     0.088 A 
ATOM     16  C   UNL d   1      53.119  29.850  53.557  0.00  0.00     0.089 A 
ATOM     17  C   UNL d   1      53.050  29.088  53.857  0.00  0.00     0.005 A 
ATOM     18  C   UNL d   1      53.255  28.927  54.639  0.00  0.00     0.000 A 
ATOM     19  C   UNL d   1      53.533  29.534  55.126  0.00  0.00     0.002 A 
ATOM     20  C   UNL d   1      53.603  30.302  54.823  0.00  0.00     0.019 A 
BRANCH  16  21
ATOM     21  C   UNL d   1      52.913  30.007  52.772  0.00  0.00     0.420 C 
ATOM     22  F   UNL d   1      52.719  30.152  52.058  0.00  0.00    -0.166 F 
ATOM     23  F   UNL d   1      53.377  29.915  52.056  0.00  0.00    -0.166 F 
ATOM     24  F   UNL d   1      52.171  30.306  52.463  0.00  0.00    -0.166 F 
ENDBRANCH  16  21
ENDBRANCH   1  15
TORSDOF 5
ENDMDL
MODEL 6
REMARK VINA RESULT:      -6.4     10.560     11.234
REMARK  5 active torsions:
REMARK  status: ('A' for Active; 'I' for Inactive)
REMARK    1  A    between atoms: C_2  and  C_3 
REMARK    2  A    between atoms: S_14  and  C_6 
REMARK    3  A    between atoms: C_7  and  N_12 
REMARK       I    between atoms: N_12  and  C_13 
REMARK    4  A    between atoms: C_13  and  C_20 
REMARK    5  A    between atoms: C_20  and  S_14 
ROOT
ATOM      1  N   UNL d   1      44.671  29.533  60.915  0.00  0.00    -0.208 NA
ATOM      2  C   UNL d   1      44.551  29.786  60.137  0.00  0.00     0.286 C 
ATOM      3  O   UNL d   1      44.340  30.576  60.000  0.00  0.00    -0.265 OA
ENDROOT
BRANCH   2   4
ATOM      4  C   UNL d   1      44.641  29.265  59.519  0.00  0.00     0.099 C 
BRANCH   4   5
ATOM      5  S   UNL d   1      44.906  29.529  58.788  0.00  0.00    -0.061 SA
BRANCH   5   6
ATOM      6  C   UNL d   1      45.028  28.995  58.170  0.00  0.00     0.133 A 
ATOM      7  C   UNL d   1      44.911  29.238  57.388  0.00  0.00     0.143 A 
ATOM      8  C   UNL d   1      45.032  28.705  56.770  0.00  0.00     0.185 A 
ATOM      9  N   UNL d   1      44.678  29.961  57.063  0.00  0.00    -0.219 NA
ATOM     10  N   UNL d   1      44.874  29.103  56.069  0.00  0.00    -0.203 NA
ATOM     11  N   UNL d   1      45.269  27.934  56.929  0.00  0.00    -0.203 NA
ATOM     12  C   UNL d   1      44.657  29.874  56.250  0.00  0.00     0.201 A 
ATOM     13  C   UNL d   1      45.386  27.691  57.703  0.00  0.00     0.201 A 
ATOM     14  N   UNL d   1      45.267  28.216  58.330  0.00  0.00    -0.216 NA
ENDBRANCH   5   6
ENDBRANCH   4   5
ENDBRANCH   2   4
BRANCH   1  15
ATOM     15  C   UNL d   1      44.581  30.058  61.550  0.00  0.00     0.088 A 
ATOM     16  C   UNL d   1      44.668  29.789  62.321  0.00  0.00     0.089 A 
ATOM     17  C   UNL d   1      44.578  30.314  62.947  0.00  0.00     0.005 A 
ATOM     18  C   UNL d   1      44.402  31.107  62.804  0.00  0.00     0.000 A 
ATOM     19  C   UNL d   1      44.314  31.377  62.028  0.00  0.00     0.002 A 
ATOM     20  C   UNL d   1      44.405  30.847  61.397  0.00  0.00     0.019 A 
BRANCH  16  21
ATOM     21  C   UNL d   1      44.845  28.995  62.469  0.00  0.00     0.420 C 
ATOM     22  F   UNL d   1      45.012  28.272  62.604  0.00  0.00    -0.166 F 
ATOM     23  F   UNL d   1      44.318  28.322  62.540  0.00  0.00    -0.166 F 
ATOM     24  F   UNL d   1      45.612  28.631  62.591  0.00  0.00    -0.166 F 
ENDBRANCH  16  21
ENDBRANCH   1  15
TORSDOF 5
ENDMDL
MODEL 7
REMARK VINA RESULT:      -6.2      9.491     10.134
REMARK  5 active torsions:
REMARK  status: ('A' for Active; 'I' for Inactive)
REMARK    1  A    between atoms: C_2  and  C_3 
REMARK    2  A    between atoms: S_14  and  C_6 
REMARK    3  A    between atoms: C_7  and  N_12 
REMARK       I    between atoms: N_12  and  C_13 
REMARK    4  A    between atoms: C_13  and  C_20 
REMARK    5  A    between atoms: C_20  and  S_14 
ROOT
ATOM      1  N   UNL d   1      44.881  29.374  57.932  0.00  0.00    -0.208 NA
ATOM      2  C   UNL d   1      45.005  28.732  57.426  0.00  0.00     0.286 C 
ATOM      3  O   UNL d   1      45.044  28.867  56.608  0.00  0.00    -0.265 OA
ENDROOT
BRANCH   2   4
ATOM      4  C   UNL d   1      45.087  27.982  57.729  0.00  0.00     0.099 C 
BRANCH   4   5
ATOM      5  S   UNL d   1      44.971  27.325  57.251  0.00  0.00    -0.061 SA
BRANCH   5   6
ATOM      6  C   UNL d   1      44.874  26.576  57.584  0.00  0.00     0.133 A 
ATOM      7  C   UNL d   1      44.748  25.921  57.096  0.00  0.00     0.143 A 
ATOM      8  C   UNL d   1      44.651  25.172  57.429  0.00  0.00     0.185 A 
ATOM      9  N   UNL d   1      44.692  25.847  56.274  0.00  0.00    -0.219 NA
ATOM     10  N   UNL d   1      44.537  24.643  56.812  0.00  0.00    -0.203 NA
ATOM     11  N   UNL d   1      44.680  25.077  58.245  0.00  0.00    -0.203 NA
ATOM     12  C   UNL d   1      44.562  25.058  56.103  0.00  0.00     0.201 A 
ATOM     13  C   UNL d   1      44.805  25.724  58.732  0.00  0.00     0.201 A 
ATOM     14  N   UNL d   1      44.903  26.478  58.409  0.00  0.00    -0.216 NA
ENDBRANCH   5   6
ENDBRANCH   4   5
ENDBRANCH   2   4
BRANCH   1  15
ATOM     15  C   UNL d   1      44.796  30.141  57.630  0.00  0.00     0.088 A 
ATOM     16  C   UNL d   1      44.869  30.789  58.129  0.00  0.00     0.089 A 
ATOM     17  C   UNL d   1      44.784  31.548  57.824  0.00  0.00     0.005 A 
ATOM     18  C   UNL d   1      44.627  31.660  57.022  0.00  0.00     0.000 A 
ATOM     19  C   UNL d   1      44.555  31.008  56.521  0.00  0.00     0.002 A 
ATOM     20  C   UNL d   1      44.640  30.243  56.828  0.00  0.00     0.019 A 
BRANCH  16  21
ATOM     21  C   UNL d   1      45.026  30.681  58.934  0.00  0.00     0.420 C 
ATOM     22  F   UNL d   1      45.164  30.582  59.668  0.00  0.00    -0.166 F 
ATOM     23  F   UNL d   1      45.780  30.623  59.340  0.00  0.00    -0.166 F 
ATOM     24  F   UNL d   1      44.470  30.597  59.581  0.00  0.00    -0.166 F 
ENDBRANCH  16  21
ENDBRANCH   1  15
TORSDOF 5
ENDMDL
MODEL 8
REMARK VINA RESULT:      -5.7      9.796     10.480
REMARK  5 active torsions:
REMARK  status: ('A' for Active; 'I' for Inactive)
REMARK    1  A    between atoms: C_2  and  C_3 
REMARK    2  A    between atoms: S_14  and  C_6 
REMARK    3  A    between atoms: C_7  and  N_12 
REMARK       I    between atoms: N_12  and  C_13 
REMARK    4  A    between atoms: C_13  and  C_20 
REMARK    5  A    between atoms: C_20  and  S_14 
ROOT
ATOM      1  N   UNL d   1      44.913  29.230  58.834  0.00  0.00    -0.208 NA
ATOM      2  C   UNL d   1      44.873  28.417  58.976  0.00  0.00     0.286 C 
ATOM      3  O   UNL d   1      44.722  28.150  59.746  0.00  0.00    -0.265 OA
ENDROOT
BRANCH   2   4
ATOM      4  C   UNL d   1      44.980  27.890  58.365  0.00  0.00     0.099 C 
BRANCH   4   5
ATOM      5  S   UNL d   1      44.856  27.087  58.482  0.00  0.00    -0.061 SA
BRANCH   5   6
ATOM      6  C   UNL d   1      44.826  26.570  57.840  0.00  0.00     0.133 A 
ATOM      7  C   UNL d   1      44.637  25.774  57.960  0.00  0.00     0.143 A 
ATOM      8  C   UNL d   1      44.608  25.257  57.317  0.00  0.00     0.185 A 
ATOM      9  N   UNL d   1      44.455  25.346  58.644  0.00  0.00    -0.219 NA
ATOM     10  N   UNL d   1      44.408  24.515  57.609  0.00  0.00    -0.203 NA
ATOM     11  N   UNL d   1      44.766  25.531  56.559  0.00  0.00    -0.203 NA
ATOM     12  C   UNL d   1      44.315  24.571  58.424  0.00  0.00     0.201 A 
ATOM     13  C   UNL d   1      44.954  26.320  56.437  0.00  0.00     0.201 A 
ATOM     14  N   UNL d   1      44.986  26.846  57.073  0.00  0.00    -0.216 NA
ENDBRANCH   5   6
ENDBRANCH   4   5
ENDBRANCH   2   4
BRANCH   1  15
ATOM     15  C   UNL d   1      44.805  29.773  59.452  0.00  0.00     0.088 A 
ATOM     16  C   UNL d   1      44.826  30.579  59.297  0.00  0.00     0.089 A 
ATOM     17  C   UNL d   1      44.718  31.113  59.913  0.00  0.00     0.005 A 
ATOM     18  C   UNL d   1      44.589  30.843  60.682  0.00  0.00     0.000 A 
ATOM     19  C   UNL d   1      44.569  30.032  60.835  0.00  0.00     0.002 A 
ATOM     20  C   UNL d   1      44.677  29.494  60.215  0.00  0.00     0.019 A 
BRANCH  16  21
ATOM     21  C   UNL d   1      44.955  30.854  58.528  0.00  0.00     0.420 C 
ATOM     22  F   UNL d   1      45.077  31.106  57.828  0.00  0.00    -0.166 F 
ATOM     23  F   UNL d   1      44.391  30.993  57.897  0.00  0.00    -0.166 F 
ATOM     24  F   UNL d   1      45.694  31.076  58.156  0.00  0.00    -0.166 F 
ENDBRANCH  16  21
ENDBRANCH   1  15
TORSDOF 5
ENDMDL
MODEL 9
REMARK VINA RESULT:      -5.6     10.463     11.549
REMARK  5 active torsions:
REMARK  status: ('A' for Active; 'I' for Inactive)
REMARK    1  A    between atoms: C_2  and  C_3 
REMARK    2  A    between atoms: S_14  and  C_6 
REMARK    3  A    between atoms: C_7  and  N_12 
REMARK       I    between atoms: N_12  and  C_13 
REMARK    4  A    between atoms: C_13  and  C_20 
REMARK    5  A    between atoms: C_20  and  S_14 
ROOT
ATOM      1  N   UNL d   1      44.964  28.751  58.840  0.00  0.00    -0.208 NA
ATOM      2  C   UNL d   1      44.749  28.710  59.637  0.00  0.00     0.286 C 
ATOM      3  O   UNL d   1      44.603  27.968  59.977  0.00  0.00    -0.265 OA
ENDROOT
BRANCH   2   4
ATOM      4  C   UNL d   1      44.683  29.391  60.078  0.00  0.00     0.099 C 
BRANCH   4   5
ATOM      5  S   UNL d   1      44.473  29.354  60.871  0.00  0.00    -0.061 SA
BRANCH   5   6
ATOM      6  C   UNL d   1      44.437  30.042  61.326  0.00  0.00     0.133 A 
ATOM      7  C   UNL d   1      44.391  29.987  62.150  0.00  0.00     0.143 A 
ATOM      8  C   UNL d   1      44.355  30.675  62.606  0.00  0.00     0.185 A 
ATOM      9  N   UNL d   1      44.373  29.338  62.661  0.00  0.00    -0.219 NA
ATOM     10  N   UNL d   1      44.314  30.444  63.393  0.00  0.00    -0.203 NA
ATOM     11  N   UNL d   1      44.364  31.412  62.243  0.00  0.00    -0.203 NA
ATOM     12  C   UNL d   1      44.325  29.623  63.426  0.00  0.00     0.201 A 
ATOM     13  C   UNL d   1      44.409  31.469  61.426  0.00  0.00     0.201 A 
ATOM     14  N   UNL d   1      44.446  30.787  60.960  0.00  0.00    -0.216 NA
ENDBRANCH   5   6
ENDBRANCH   4   5
ENDBRANCH   2   4
BRANCH   1  15
ATOM     15  C   UNL d   1      45.032  28.061  58.385  0.00  0.00     0.088 A 
ATOM     16  C   UNL d   1      45.059  28.112  57.565  0.00  0.00     0.089 A 
ATOM     17  C   UNL d   1      45.128  27.425  57.119  0.00  0.00     0.005 A 
ATOM     18  C   UNL d   1      45.169  26.689  57.489  0.00  0.00     0.000 A 
ATOM     19  C   UNL d   1      45.142  26.640  58.313  0.00  0.00     0.002 A 
ATOM     20  C   UNL d   1      45.073  27.332  58.763  0.00  0.00     0.019 A 
BRANCH  16  21
ATOM     21  C   UNL d   1      45.018  28.847  57.190  0.00  0.00     0.420 C 
ATOM     22  F   UNL d   1      44.975  29.518  56.849  0.00  0.00    -0.166 F 
ATOM     23  F   UNL d   1      45.652  29.360  56.924  0.00  0.00    -0.166 F 
ATOM     24  F   UNL d   1      44.323  29.296  56.967  0.00  0.00    -0.166 F 
ENDBRANCH  16  21
ENDBRANCH   1  15
TORSDOF 5
ENDMDL
