MODEL 1
REMARK VINA RESULT:      13.9      0.000      0.000
REMARK  6 active torsions:
REMARK  status: ('A' for Active; 'I' for Inactive)
REMARK    1  A    between atoms: S_12  and  C_1 
REMARK    2  A    between atoms: C_2  and  S_11 
REMARK    3  A    between atoms: S_11  and  C_15 
REMARK    4  A    between atoms: C_16  and  S_12 
REMARK    5  A    between atoms: C_13  and  C_16 
REMARK    6  A    between atoms: C_15  and  C_13 
ROOT
ATOM      1  C   UNL d   1      45.752 -16.832  44.642  0.00  0.00     0.209 C 
ATOM      2  O   UNL d   1      45.051 -17.099  44.276  0.00  0.00    -0.285 OA
ENDROOT
BRANCH   1   3
ATOM      3  C   UNL d   1      46.352 -17.377  44.827  0.00  0.00     0.080 C 
BRANCH   3   4
ATOM      4  S   UNL d   1      46.224 -18.190  44.746  0.00  0.00    -0.058 SA
BRANCH   4   5
ATOM      5  C   UNL d   1      46.308 -18.556  44.013  0.00  0.00     0.141 A 
ATOM      6  N   UNL d   1      46.363 -18.177  43.275  0.00  0.00    -0.232 NA
ATOM      7  C   UNL d   1      46.442 -18.758  42.693  0.00  0.00     0.088 A 
ATOM      8  C   UNL d   1      46.518 -18.708  41.873  0.00  0.00     0.020 A 
ATOM      9  C   UNL d   1      46.438 -19.506  43.064  0.00  0.00     0.049 A 
ATOM     10  C   UNL d   1      46.590 -19.390  41.416  0.00  0.00     0.002 A 
ATOM     11  C   UNL d   1      46.585 -20.137  41.787  0.00  0.00     0.001 A 
ATOM     12  C   UNL d   1      46.509 -20.187  42.611  0.00  0.00     0.008 A 
ATOM     13  S   UNL d   1      46.355 -19.382  43.879  0.00  0.00    -0.060 SA
ENDBRANCH   4   5
ENDBRANCH   3   4
ENDBRANCH   1   3
BRANCH   1  14
ATOM     14  C   UNL d   1      45.844 -16.032  44.816  0.00  0.00     0.080 C 
BRANCH  14  15
ATOM     15  S   UNL d   1      46.227 -15.528  44.283  0.00  0.00    -0.058 SA
BRANCH  15  16
ATOM     16  C   UNL d   1      46.031 -14.729  44.250  0.00  0.00     0.141 A 
ATOM     17  N   UNL d   1      46.141 -14.222  43.598  0.00  0.00    -0.232 NA
ATOM     18  C   UNL d   1      45.863 -13.466  43.813  0.00  0.00     0.088 A 
ATOM     19  C   UNL d   1      45.832 -12.758  43.401  0.00  0.00     0.020 A 
ATOM     20  C   UNL d   1      45.584 -13.503  44.587  0.00  0.00     0.049 A 
ATOM     21  C   UNL d   1      45.523 -12.080  43.755  0.00  0.00     0.002 A 
ATOM     22  C   UNL d   1      45.241 -12.121  44.541  0.00  0.00     0.001 A 
ATOM     23  C   UNL d   1      45.272 -12.833  44.955  0.00  0.00     0.008 A 
ATOM     24  S   UNL d   1      45.687 -14.287  44.862  0.00  0.00    -0.060 SA
ENDBRANCH  15  16
ENDBRANCH  14  15
ENDBRANCH   1  14
TORSDOF 6
ENDMDL
