MODEL 1
REMARK VINA RESULT:      31.3      0.000      0.000
REMARK  4 active torsions:
REMARK  status: ('A' for Active; 'I' for Inactive)
REMARK    1  A    between atoms: N_10  and  C_1 
REMARK       I    between atoms: C_12  and  N_10 
REMARK    2  A    between atoms: C_17  and  C_12 
REMARK    3  A    between atoms: C_18  and  C_17 
REMARK    4  A    between atoms: C_19  and  C_18 
ROOT
ATOM      1  C   UNL d   1     -50.690  26.065  33.311  0.00  0.00     0.197 A 
ATOM      2  C   UNL d   1     -51.448  24.989  33.309  0.00  0.00     0.057 A 
ATOM      3  C   UNL d   1     -52.036  24.450  33.308  0.00  0.00     0.056 A 
ATOM      4  N   UNL d   1     -50.189  25.446  33.310  0.00  0.00    -0.221 NA
ATOM      5  S   UNL d   1     -51.484  25.820  33.311  0.00  0.00    -0.046 SA
ATOM      6  N   UNL d   1     -52.557  23.241  33.306  0.00  0.00    -0.238 NA
ATOM      7  S   UNL d   1     -52.840  24.513  33.309  0.00  0.00    -0.066 SA
ATOM      8  C   UNL d   1     -50.663  24.761  33.308  0.00  0.00     0.090 A 
ATOM      9  C   UNL d   1     -51.866  23.643  33.306  0.00  0.00     0.088 A 
ATOM     10  C   UNL d   1     -53.175  23.724  33.307  0.00  0.00     0.111 A 
ATOM     11  C   UNL d   1     -51.089  23.390  33.306  0.00  0.00     0.021 A 
ATOM     12  C   UNL d   1     -50.477  23.963  33.307  0.00  0.00     0.021 A 
ATOM     13  C   UNL d   1     -53.980  23.510  33.307  0.00  0.00     0.028 C 
ENDROOT
BRANCH   1  14
ATOM     14  N   UNL d   1     -50.453  26.883  33.313  0.00  0.00    -0.183 NA
ATOM     15  C   UNL d   1     -50.100  27.183  33.982  0.00  0.00     0.281 C 
ATOM     16  O   UNL d   1     -49.998  26.642  34.629  0.00  0.00    -0.265 OA
BRANCH  15  17
ATOM     17  C   UNL d   1     -49.883  27.934  33.983  0.00  0.00     0.063 C 
BRANCH  17  18
ATOM     18  C   UNL d   1     -48.960  28.149  34.066  0.00  0.00     0.005 C 
BRANCH  18  19
ATOM     19  C   UNL d   1     -48.598  28.300  34.926  0.00  0.00     0.000 C 
ATOM     20  C   UNL d   1     -48.397  29.014  35.292  0.00  0.00     0.000 C 
ENDBRANCH  18  19
ENDBRANCH  17  18
ENDBRANCH  15  17
ENDBRANCH   1  14
TORSDOF 4
ENDMDL
