MODEL 1
REMARK VINA RESULT:      -3.5      0.000      0.000
REMARK  4 active torsions:
REMARK  status: ('A' for Active; 'I' for Inactive)
REMARK    1  A    between atoms: C_5  and  C_1 
REMARK    2  A    between atoms: O_8  and  C_5 
REMARK    3  A    between atoms: C_11  and  O_8 
REMARK    4  A    between atoms: C_12  and  C_11 
ROOT
ATOM      1  C   UNL d   1      31.098  16.441 -23.731  0.00  0.00     0.127 A 
ATOM      2  C   UNL d   1      31.038  15.803 -23.255  0.00  0.00     0.305 A 
ATOM      3  C   UNL d   1      30.434  16.787 -24.077  0.00  0.00     0.013 A 
ATOM      4  O   UNL d   1      30.307  15.459 -23.085  0.00  0.00    -0.273 OA
ATOM      5  C   UNL d   1      29.703  16.442 -23.907  0.00  0.00     0.023 A 
ATOM      6  C   UNL d   1      29.643  15.805 -23.431  0.00  0.00     0.103 A 
ATOM      7  O   UNL d   1      31.702  15.458 -22.909  0.00  0.00    -0.259 OA
ATOM      8  C   UNL d   1      29.039  16.788 -24.253  0.00  0.00     0.002 A 
ATOM      9  C   UNL d   1      28.912  15.461 -23.261  0.00  0.00     0.025 A 
ATOM     10  C   UNL d   1      28.248  15.806 -23.607  0.00  0.00     0.002 A 
ATOM     11  C   UNL d   1      28.308  16.444 -24.083  0.00  0.00     0.000 A 
ENDROOT
BRANCH   1  12
ATOM     12  C   UNL d   1      31.829  16.785 -23.901  0.00  0.00     0.305 C 
ATOM     13  O   UNL d   1      32.379  16.416 -24.409  0.00  0.00    -0.259 OA
BRANCH  12  14
ATOM     14  O   UNL d   1      32.013  17.495 -23.566  0.00  0.00    -0.271 OA
BRANCH  14  15
ATOM     15  C   UNL d   1      32.701  17.876 -23.748  0.00  0.00     0.126 C 
BRANCH  15  16
ATOM     16  C   UNL d   1      32.877  18.596 -23.429  0.00  0.00     0.025 A 
ATOM     17  C   UNL d   1      32.985  19.251 -23.934  0.00  0.00     0.002 A 
ATOM     18  C   UNL d   1      33.167  19.993 -23.586  0.00  0.00     0.000 A 
ATOM     19  C   UNL d   1      33.240  20.091 -22.788  0.00  0.00     0.000 A 
ATOM     20  C   UNL d   1      33.132  19.436 -22.284  0.00  0.00     0.000 A 
ATOM     21  C   UNL d   1      32.956  18.715 -22.602  0.00  0.00     0.002 A 
ENDBRANCH  15  16
ENDBRANCH  14  15
ENDBRANCH  12  14
ENDBRANCH   1  12
TORSDOF 4
ENDMDL
MODEL 2
REMARK VINA RESULT:      -3.3      0.878      1.395
REMARK  4 active torsions:
REMARK  status: ('A' for Active; 'I' for Inactive)
REMARK    1  A    between atoms: C_5  and  C_1 
REMARK    2  A    between atoms: O_8  and  C_5 
REMARK    3  A    between atoms: C_11  and  O_8 
REMARK    4  A    between atoms: C_12  and  C_11 
ROOT
ATOM      1  C   UNL d   1      31.807  17.333 -24.022  0.00  0.00     0.127 A 
ATOM      2  C   UNL d   1      31.722  16.605 -23.707  0.00  0.00     0.305 A 
ATOM      3  C   UNL d   1      31.200  17.691 -24.451  0.00  0.00     0.013 A 
ATOM      4  O   UNL d   1      31.023  16.175 -23.795  0.00  0.00    -0.273 OA
ATOM      5  C   UNL d   1      30.501  17.261 -24.539  0.00  0.00     0.023 A 
ATOM      6  C   UNL d   1      30.416  16.533 -24.224  0.00  0.00     0.103 A 
ATOM      7  O   UNL d   1      32.329  16.246 -23.278  0.00  0.00    -0.259 OA
ATOM      8  C   UNL d   1      29.894  17.620 -24.969  0.00  0.00     0.002 A 
ATOM      9  C   UNL d   1      29.718  16.103 -24.312  0.00  0.00     0.025 A 
ATOM     10  C   UNL d   1      29.111  16.461 -24.741  0.00  0.00     0.002 A 
ATOM     11  C   UNL d   1      29.196  17.190 -25.057  0.00  0.00     0.000 A 
ENDROOT
BRANCH   1  12
ATOM     12  C   UNL d   1      32.505  17.763 -23.934  0.00  0.00     0.305 C 
ATOM     13  O   UNL d   1      33.192  17.575 -24.370  0.00  0.00    -0.259 OA
BRANCH  12  14
ATOM     14  O   UNL d   1      32.522  18.379 -23.415  0.00  0.00    -0.271 OA
BRANCH  14  15
ATOM     15  C   UNL d   1      33.206  18.779 -23.264  0.00  0.00     0.126 C 
BRANCH  15  16
ATOM     16  C   UNL d   1      33.215  19.426 -22.781  0.00  0.00     0.025 A 
ATOM     17  C   UNL d   1      33.232  19.319 -21.954  0.00  0.00     0.002 A 
ATOM     18  C   UNL d   1      33.240  20.002 -21.467  0.00  0.00     0.000 A 
ATOM     19  C   UNL d   1      33.232  20.750 -21.769  0.00  0.00     0.000 A 
ATOM     20  C   UNL d   1      33.215  20.857 -22.596  0.00  0.00     0.000 A 
ATOM     21  C   UNL d   1      33.207  20.210 -23.079  0.00  0.00     0.002 A 
ENDBRANCH  15  16
ENDBRANCH  14  15
ENDBRANCH  12  14
ENDBRANCH   1  12
TORSDOF 4
ENDMDL
MODEL 3
REMARK VINA RESULT:      -2.9      1.002      4.565
REMARK  4 active torsions:
REMARK  status: ('A' for Active; 'I' for Inactive)
REMARK    1  A    between atoms: C_5  and  C_1 
REMARK    2  A    between atoms: O_8  and  C_5 
REMARK    3  A    between atoms: C_11  and  O_8 
REMARK    4  A    between atoms: C_12  and  C_11 
ROOT
ATOM      1  C   UNL d   1      32.704  18.707 -23.708  0.00  0.00     0.127 A 
ATOM      2  C   UNL d   1      32.781  19.360 -24.161  0.00  0.00     0.305 A 
ATOM      3  C   UNL d   1      32.778  18.740 -22.887  0.00  0.00     0.013 A 
ATOM      4  O   UNL d   1      32.937  20.099 -23.830  0.00  0.00    -0.273 OA
ATOM      5  C   UNL d   1      32.934  19.479 -22.556  0.00  0.00     0.023 A 
ATOM      6  C   UNL d   1      33.011  20.132 -23.009  0.00  0.00     0.103 A 
ATOM      7  O   UNL d   1      32.707  19.327 -24.982  0.00  0.00    -0.259 OA
ATOM      8  C   UNL d   1      33.008  19.512 -21.735  0.00  0.00     0.002 A 
ATOM      9  C   UNL d   1      33.167  20.872 -22.677  0.00  0.00     0.025 A 
ATOM     10  C   UNL d   1      33.241  20.904 -21.856  0.00  0.00     0.002 A 
ATOM     11  C   UNL d   1      33.164  20.252 -21.404  0.00  0.00     0.000 A 
ENDROOT
BRANCH   1  12
ATOM     12  C   UNL d   1      32.548  17.968 -24.039  0.00  0.00     0.305 C 
ATOM     13  O   UNL d   1      33.095  17.591 -24.545  0.00  0.00    -0.259 OA
BRANCH  12  14
ATOM     14  O   UNL d   1      31.850  17.603 -23.868  0.00  0.00    -0.271 OA
BRANCH  14  15
ATOM     15  C   UNL d   1      31.702  16.848 -24.113  0.00  0.00     0.126 C 
BRANCH  15  16
ATOM     16  C   UNL d   1      31.007  16.479 -23.933  0.00  0.00     0.025 A 
ATOM     17  C   UNL d   1      30.306  16.719 -24.316  0.00  0.00     0.002 A 
ATOM     18  C   UNL d   1      29.592  16.324 -24.118  0.00  0.00     0.000 A 
ATOM     19  C   UNL d   1      29.563  15.728 -23.575  0.00  0.00     0.000 A 
ATOM     20  C   UNL d   1      30.265  15.488 -23.192  0.00  0.00     0.000 A 
ATOM     21  C   UNL d   1      30.960  15.858 -23.372  0.00  0.00     0.002 A 
ENDBRANCH  15  16
ENDBRANCH  14  15
ENDBRANCH  12  14
ENDBRANCH   1  12
TORSDOF 4
ENDMDL
MODEL 4
REMARK VINA RESULT:      -1.0      2.947      4.269
REMARK  4 active torsions:
REMARK  status: ('A' for Active; 'I' for Inactive)
REMARK    1  A    between atoms: C_5  and  C_1 
REMARK    2  A    between atoms: O_8  and  C_5 
REMARK    3  A    between atoms: C_11  and  O_8 
REMARK    4  A    between atoms: C_12  and  C_11 
ROOT
ATOM      1  C   UNL d   1      33.140  19.388 -22.322  0.00  0.00     0.127 A 
ATOM      2  C   UNL d   1      33.176  18.599 -22.203  0.00  0.00     0.305 A 
ATOM      3  C   UNL d   1      33.075  19.709 -23.079  0.00  0.00     0.013 A 
ATOM      4  O   UNL d   1      33.149  18.067 -22.833  0.00  0.00    -0.273 OA
ATOM      5  C   UNL d   1      33.048  19.176 -23.708  0.00  0.00     0.023 A 
ATOM      6  C   UNL d   1      33.084  18.387 -23.590  0.00  0.00     0.103 A 
ATOM      7  O   UNL d   1      33.241  18.279 -21.446  0.00  0.00    -0.259 OA
ATOM      8  C   UNL d   1      32.983  19.497 -24.466  0.00  0.00     0.002 A 
ATOM      9  C   UNL d   1      33.057  17.855 -24.220  0.00  0.00     0.025 A 
ATOM     10  C   UNL d   1      32.991  18.175 -24.977  0.00  0.00     0.002 A 
ATOM     11  C   UNL d   1      32.956  18.964 -25.095  0.00  0.00     0.000 A 
ENDROOT
BRANCH   1  12
ATOM     12  C   UNL d   1      33.167  19.921 -21.692  0.00  0.00     0.305 C 
ATOM     13  O   UNL d   1      33.198  19.660 -20.900  0.00  0.00    -0.259 OA
BRANCH  12  14
ATOM     14  O   UNL d   1      33.164  20.711 -21.849  0.00  0.00    -0.271 OA
BRANCH  14  15
ATOM     15  C   UNL d   1      33.076  21.254 -21.258  0.00  0.00     0.126 C 
BRANCH  15  16
ATOM     16  C   UNL d   1      32.856  22.014 -21.418  0.00  0.00     0.025 A 
ATOM     17  C   UNL d   1      32.300  22.391 -20.923  0.00  0.00     0.002 A 
ATOM     18  C   UNL d   1      32.082  23.181 -21.103  0.00  0.00     0.000 A 
ATOM     19  C   UNL d   1      32.389  23.582 -21.733  0.00  0.00     0.000 A 
ATOM     20  C   UNL d   1      32.944  23.205 -22.228  0.00  0.00     0.000 A 
ATOM     21  C   UNL d   1      33.165  22.445 -22.068  0.00  0.00     0.002 A 
ENDBRANCH  15  16
ENDBRANCH  14  15
ENDBRANCH  12  14
ENDBRANCH   1  12
TORSDOF 4
ENDMDL
MODEL 5
REMARK VINA RESULT:      -0.5      0.953      4.217
REMARK  4 active torsions:
REMARK  status: ('A' for Active; 'I' for Inactive)
REMARK    1  A    between atoms: C_5  and  C_1 
REMARK    2  A    between atoms: O_8  and  C_5 
REMARK    3  A    between atoms: C_11  and  O_8 
REMARK    4  A    between atoms: C_12  and  C_11 
ROOT
ATOM      1  C   UNL d   1      32.138  17.266 -24.055  0.00  0.00     0.127 A 
ATOM      2  C   UNL d   1      32.524  16.985 -23.416  0.00  0.00     0.305 A 
ATOM      3  C   UNL d   1      32.097  18.074 -24.215  0.00  0.00     0.013 A 
ATOM      4  O   UNL d   1      32.901  17.490 -22.883  0.00  0.00    -0.273 OA
ATOM      5  C   UNL d   1      32.475  18.579 -23.683  0.00  0.00     0.023 A 
ATOM      6  C   UNL d   1      32.861  18.298 -23.043  0.00  0.00     0.103 A 
ATOM      7  O   UNL d   1      32.565  16.177 -23.256  0.00  0.00    -0.259 OA
ATOM      8  C   UNL d   1      32.434  19.387 -23.843  0.00  0.00     0.002 A 
ATOM      9  C   UNL d   1      33.238  18.803 -22.511  0.00  0.00     0.025 A 
ATOM     10  C   UNL d   1      33.198  19.612 -22.671  0.00  0.00     0.002 A 
ATOM     11  C   UNL d   1      32.812  19.892 -23.310  0.00  0.00     0.000 A 
ENDROOT
BRANCH   1  12
ATOM     12  C   UNL d   1      31.761  16.761 -24.588  0.00  0.00     0.305 C 
ATOM     13  O   UNL d   1      32.193  16.247 -25.085  0.00  0.00    -0.259 OA
BRANCH  12  14
ATOM     14  O   UNL d   1      30.956  16.765 -24.627  0.00  0.00    -0.271 OA
BRANCH  14  15
ATOM     15  C   UNL d   1      30.533  16.078 -24.625  0.00  0.00     0.126 C 
BRANCH  15  16
ATOM     16  C   UNL d   1      29.730  16.081 -24.550  0.00  0.00     0.025 A 
ATOM     17  C   UNL d   1      29.356  16.728 -24.181  0.00  0.00     0.002 A 
ATOM     18  C   UNL d   1      28.519  16.715 -24.111  0.00  0.00     0.000 A 
ATOM     19  C   UNL d   1      28.072  16.103 -24.386  0.00  0.00     0.000 A 
ATOM     20  C   UNL d   1      28.446  15.455 -24.756  0.00  0.00     0.000 A 
ATOM     21  C   UNL d   1      29.249  15.453 -24.831  0.00  0.00     0.002 A 
ENDBRANCH  15  16
ENDBRANCH  14  15
ENDBRANCH  12  14
ENDBRANCH   1  12
TORSDOF 4
ENDMDL
