MODEL 1
REMARK VINA RESULT:      -0.9      0.000      0.000
REMARK  7 active torsions:
REMARK  status: ('A' for Active; 'I' for Inactive)
REMARK    1  A    between atoms: N_4  and  C_1 
REMARK    2  A    between atoms: C_9  and  C_2 
REMARK    3  A    between atoms: C_7  and  N_4 
REMARK       I    between atoms: C_10  and  N_8 
REMARK    4  A    between atoms: C_17  and  C_10 
REMARK    5  A    between atoms: C_12  and  C_18 
REMARK    6  A    between atoms: O_20  and  C_12 
REMARK    7  A    between atoms: C_18  and  C_17 
ROOT
ATOM      1  N   UNL d   1     -41.798-122.527 -50.938  0.00  0.00    -0.211 NA
ENDROOT
BRANCH   1   2
ATOM      2  C   UNL d   1     -41.851-122.888 -50.177  0.00  0.00     0.118 A 
ATOM      3  C   UNL d   1     -42.565-123.118 -49.786  0.00  0.00     0.084 A 
ATOM      4  C   UNL d   1     -42.357-123.446 -49.058  0.00  0.00     0.013 A 
ATOM      5  C   UNL d   1     -42.903-123.755 -48.475  0.00  0.00     0.001 C 
ATOM      6  C   UNL d   1     -41.553-123.431 -48.982  0.00  0.00     0.031 A 
ATOM      7  S   UNL d   1     -41.231-123.091 -49.662  0.00  0.00    -0.068 SA
ATOM      8  C   UNL d   1     -41.125-123.723 -48.303  0.00  0.00     0.007 C 
BRANCH   3   9
ATOM      9  C   UNL d   1     -43.355-123.025 -50.091  0.00  0.00     0.299 C 
ATOM     10  O   UNL d   1     -43.649-122.254 -50.272  0.00  0.00    -0.264 OA
ATOM     11  N   UNL d   1     -43.858-123.705 -50.218  0.00  0.00    -0.102 N 
ENDBRANCH   3   9
ENDBRANCH   1   2
BRANCH   1  12
ATOM     12  C   UNL d   1     -41.423-121.822 -51.016  0.00  0.00     0.224 C 
ATOM     13  N   UNL d   1     -41.134-121.441 -52.113  0.00  0.00    -0.179 NA
ATOM     14  C   UNL d   1     -41.319-121.896 -52.755  0.00  0.00     0.281 C 
ATOM     15  O   UNL d   1     -41.124-121.638 -53.493  0.00  0.00    -0.265 OA
ATOM     16  S   UNL d   1     -41.240-121.371 -50.370  0.00  0.00    -0.037 SA
BRANCH  14  17
ATOM     17  C   UNL d   1     -41.693-122.595 -52.664  0.00  0.00     0.068 C 
BRANCH  17  18
ATOM     18  C   UNL d   1     -41.557-123.180 -53.210  0.00  0.00     0.073 C 
BRANCH  18  19
ATOM     19  C   UNL d   1     -42.138-123.325 -53.762  0.00  0.00     0.296 C 
ATOM     20  O   UNL d   1     -42.726-123.813 -53.595  0.00  0.00    -0.259 OA
BRANCH  19  21
ATOM     21  O   UNL d   1     -42.103-122.961 -54.486  0.00  0.00    -0.296 OA
ATOM     22  C   UNL d   1     -42.504-123.290 -55.119  0.00  0.00     0.185 C 
ENDBRANCH  19  21
ENDBRANCH  18  19
ENDBRANCH  17  18
ENDBRANCH  14  17
ENDBRANCH   1  12
TORSDOF 7
ENDMDL
MODEL 2
REMARK VINA RESULT:       0.0      1.517      2.078
REMARK  7 active torsions:
REMARK  status: ('A' for Active; 'I' for Inactive)
REMARK    1  A    between atoms: N_4  and  C_1 
REMARK    2  A    between atoms: C_9  and  C_2 
REMARK    3  A    between atoms: C_7  and  N_4 
REMARK       I    between atoms: C_10  and  N_8 
REMARK    4  A    between atoms: C_17  and  C_10 
REMARK    5  A    between atoms: C_12  and  C_18 
REMARK    6  A    between atoms: O_20  and  C_12 
REMARK    7  A    between atoms: C_18  and  C_17 
ROOT
ATOM      1  N   UNL d   1     -41.965-122.853 -51.837  0.00  0.00    -0.211 NA
ENDROOT
BRANCH   1   2
ATOM      2  C   UNL d   1     -42.373-122.743 -51.107  0.00  0.00     0.118 A 
ATOM      3  C   UNL d   1     -42.468-122.008 -50.699  0.00  0.00     0.084 A 
ATOM      4  C   UNL d   1     -42.901-122.158 -50.012  0.00  0.00     0.013 A 
ATOM      5  C   UNL d   1     -43.130-121.574 -49.429  0.00  0.00     0.001 C 
ATOM      6  C   UNL d   1     -43.077-122.945 -49.978  0.00  0.00     0.031 A 
ATOM      7  S   UNL d   1     -42.759-123.315 -50.643  0.00  0.00    -0.068 SA
ATOM      8  C   UNL d   1     -43.521-123.315 -49.349  0.00  0.00     0.007 C 
BRANCH   3   9
ATOM      9  C   UNL d   1     -42.169-121.252 -50.953  0.00  0.00     0.299 C 
ATOM     10  O   UNL d   1     -42.653-120.743 -51.422  0.00  0.00    -0.264 OA
ATOM     11  N   UNL d   1     -41.379-120.999 -50.739  0.00  0.00    -0.102 N 
ENDBRANCH   3   9
ENDBRANCH   1   2
BRANCH   1  12
ATOM     12  C   UNL d   1     -41.439-123.455 -51.909  0.00  0.00     0.224 C 
ATOM     13  N   UNL d   1     -41.123-123.817 -53.005  0.00  0.00    -0.179 NA
ATOM     14  C   UNL d   1     -41.441-123.453 -53.652  0.00  0.00     0.281 C 
ATOM     15  O   UNL d   1     -41.228-123.698 -54.390  0.00  0.00    -0.265 OA
ATOM     16  S   UNL d   1     -41.123-123.816 -51.257  0.00  0.00    -0.037 SA
BRANCH  14  17
ATOM     17  C   UNL d   1     -41.964-122.856 -53.567  0.00  0.00     0.068 C 
BRANCH  17  18
ATOM     18  C   UNL d   1     -42.448-122.673 -54.193  0.00  0.00     0.073 C 
BRANCH  18  19
ATOM     19  C   UNL d   1     -42.542-121.887 -54.382  0.00  0.00     0.296 C 
ATOM     20  O   UNL d   1     -43.242-121.546 -54.308  0.00  0.00    -0.259 OA
BRANCH  19  21
ATOM     21  O   UNL d   1     -41.906-121.460 -54.648  0.00  0.00    -0.296 OA
ATOM     22  C   UNL d   1     -42.014-120.914 -55.248  0.00  0.00     0.185 C 
ENDBRANCH  19  21
ENDBRANCH  18  19
ENDBRANCH  17  18
ENDBRANCH  14  17
ENDBRANCH   1  12
TORSDOF 7
ENDMDL
MODEL 3
REMARK VINA RESULT:       2.0      1.760      4.116
REMARK  7 active torsions:
REMARK  status: ('A' for Active; 'I' for Inactive)
REMARK    1  A    between atoms: N_4  and  C_1 
REMARK    2  A    between atoms: C_9  and  C_2 
REMARK    3  A    between atoms: C_7  and  N_4 
REMARK       I    between atoms: C_10  and  N_8 
REMARK    4  A    between atoms: C_17  and  C_10 
REMARK    5  A    between atoms: C_12  and  C_18 
REMARK    6  A    between atoms: O_20  and  C_12 
REMARK    7  A    between atoms: C_18  and  C_17 
ROOT
ATOM      1  N   UNL d   1     -42.093-121.803 -52.540  0.00  0.00    -0.211 NA
ENDROOT
BRANCH   1   2
ATOM      2  C   UNL d   1     -41.977-122.258 -53.242  0.00  0.00     0.118 A 
ATOM      3  C   UNL d   1     -42.377-122.143 -53.978  0.00  0.00     0.084 A 
ATOM      4  C   UNL d   1     -42.094-122.710 -54.507  0.00  0.00     0.013 A 
ATOM      5  C   UNL d   1     -42.343-122.801 -55.322  0.00  0.00     0.001 C 
ATOM      6  C   UNL d   1     -41.543-123.166 -54.134  0.00  0.00     0.031 A 
ATOM      7  S   UNL d   1     -41.462-122.900 -53.357  0.00  0.00    -0.068 SA
ATOM      8  C   UNL d   1     -41.123-123.815 -54.500  0.00  0.00     0.007 C 
BRANCH   3   9
ATOM      9  C   UNL d   1     -42.964-121.548 -54.141  0.00  0.00     0.299 C 
ATOM     10  O   UNL d   1     -43.636-121.469 -53.636  0.00  0.00    -0.264 OA
ATOM     11  N   UNL d   1     -42.883-121.025 -54.814  0.00  0.00    -0.102 N 
ENDBRANCH   3   9
ENDBRANCH   1   2
BRANCH   1  12
ATOM     12  C   UNL d   1     -41.511-121.312 -52.288  0.00  0.00     0.224 C 
ATOM     13  N   UNL d   1     -41.219-121.311 -51.127  0.00  0.00    -0.179 NA
ATOM     14  C   UNL d   1     -41.610-121.803 -50.618  0.00  0.00     0.281 C 
ATOM     15  O   UNL d   1     -41.413-121.802 -49.836  0.00  0.00    -0.265 OA
ATOM     16  S   UNL d   1     -41.123-120.822 -52.802  0.00  0.00    -0.037 SA
BRANCH  14  17
ATOM     17  C   UNL d   1     -42.188-122.287 -50.882  0.00  0.00     0.068 C 
BRANCH  17  18
ATOM     18  C   UNL d   1     -42.483-122.847 -50.375  0.00  0.00     0.073 C 
BRANCH  18  19
ATOM     19  C   UNL d   1     -43.293-122.913 -50.313  0.00  0.00     0.296 C 
ATOM     20  O   UNL d   1     -43.755-122.334 -50.564  0.00  0.00    -0.259 OA
BRANCH  19  21
ATOM     21  O   UNL d   1     -43.617-123.582 -49.989  0.00  0.00    -0.296 OA
ATOM     22  C   UNL d   1     -43.385-123.817 -49.241  0.00  0.00     0.185 C 
ENDBRANCH  19  21
ENDBRANCH  18  19
ENDBRANCH  17  18
ENDBRANCH  14  17
ENDBRANCH   1  12
TORSDOF 7
ENDMDL
