MODEL 1
REMARK VINA RESULT:      58.8      0.000      0.000
REMARK  4 active torsions:
REMARK  status: ('A' for Active; 'I' for Inactive)
REMARK    1  A    between atoms: C_4  and  C_1 
REMARK    2  A    between atoms: C_7  and  C_4 
REMARK    3  A    between atoms: N_10  and  C_7 
REMARK    4  A    between atoms: C_11  and  N_10 
ROOT
ATOM      1  C   UNL d   1     -51.269  26.414  34.395  0.00  0.00     0.122 C 
ATOM      2  C   UNL d   1     -51.268  27.039  33.861  0.00  0.00     0.106 C 
ATOM      3  N   UNL d   1     -51.267  27.664  33.327  0.00  0.00    -0.191 NA
ENDROOT
BRANCH   1   4
ATOM      4  C   UNL d   1     -51.589  25.686  34.178  0.00  0.00     0.159 A 
ATOM      5  N   UNL d   1     -52.365  25.437  34.310  0.00  0.00    -0.226 NA
ATOM      6  C   UNL d   1     -52.444  24.681  34.007  0.00  0.00     0.099 A 
ATOM      7  C   UNL d   1     -53.087  24.157  33.978  0.00  0.00     0.021 A 
ATOM      8  C   UNL d   1     -51.719  24.457  33.685  0.00  0.00     0.083 A 
ATOM      9  C   UNL d   1     -52.994  23.415  33.627  0.00  0.00     0.002 A 
ATOM     10  C   UNL d   1     -52.269  23.191  33.306  0.00  0.00     0.002 A 
ATOM     11  C   UNL d   1     -51.630  23.707  33.333  0.00  0.00     0.019 A 
ATOM     12  N   UNL d   1     -51.189  25.074  33.789  0.00  0.00    -0.287 N 
ATOM     13  C   UNL d   1     -50.396  25.092  33.552  0.00  0.00     0.101 C 
ENDBRANCH   1   4
BRANCH   1  14
ATOM     14  C   UNL d   1     -50.948  26.516  35.146  0.00  0.00     0.114 C 
BRANCH  14  15
ATOM     15  N   UNL d   1     -51.261  27.084  35.654  0.00  0.00    -0.225 NA
BRANCH  15  16
ATOM     16  C   UNL d   1     -51.175  26.997  36.471  0.00  0.00     0.163 A 
ATOM     17  N   UNL d   1     -51.644  26.462  36.886  0.00  0.00    -0.225 NA
ATOM     18  C   UNL d   1     -51.556  26.378  37.701  0.00  0.00     0.101 A 
ATOM     19  C   UNL d   1     -50.995  26.834  38.101  0.00  0.00     0.021 A 
ATOM     20  C   UNL d   1     -50.517  27.378  37.683  0.00  0.00     0.005 A 
ATOM     21  C   UNL d   1     -50.613  27.454  36.866  0.00  0.00     0.039 A 
ENDBRANCH  15  16
ENDBRANCH  14  15
ENDBRANCH   1  14
TORSDOF 4
ENDMDL
