MODEL 1
REMARK VINA RESULT:      -4.1      0.000      0.000
REMARK  8 active torsions:
REMARK  status: ('A' for Active; 'I' for Inactive)
REMARK    1  A    between atoms: N_6  and  C_1 
REMARK    2  A    between atoms: N_2  and  C_3 
REMARK       I    between atoms: C_4  and  N_2 
REMARK    3  A    between atoms: C_3  and  N_6 
REMARK    4  A    between atoms: C_10  and  C_4 
REMARK    5  A    between atoms: C_9  and  C_7 
REMARK    6  A    between atoms: C_12  and  C_9 
REMARK    7  A    between atoms: O_17  and  C_12 
REMARK    8  A    between atoms: C_21  and  O_17 
ROOT
ATOM      1  C   UNL d   1     -42.413-122.653 -50.268  0.00  0.00     0.225 C 
ATOM      2  S   UNL d   1     -43.178-122.784 -50.550  0.00  0.00    -0.037 SA
ENDROOT
BRANCH   1   3
ATOM      3  N   UNL d   1     -42.150-123.024 -49.541  0.00  0.00    -0.179 NA
ATOM      4  C   UNL d   1     -42.426-122.726 -48.808  0.00  0.00     0.281 C 
ATOM      5  O   UNL d   1     -42.962-122.060 -48.798  0.00  0.00    -0.265 OA
BRANCH   4   6
ATOM      6  C   UNL d   1     -42.201-123.049 -48.097  0.00  0.00     0.058 A 
ATOM      7  C   UNL d   1     -42.708-123.486 -47.649  0.00  0.00     0.005 A 
ATOM      8  C   UNL d   1     -43.477-123.611 -47.916  0.00  0.00     0.000 C 
ATOM      9  C   UNL d   1     -42.462-123.801 -46.941  0.00  0.00     0.000 A 
ATOM     10  C   UNL d   1     -41.681-123.670 -46.676  0.00  0.00     0.000 A 
ATOM     11  C   UNL d   1     -41.136-123.224 -47.116  0.00  0.00     0.000 A 
ATOM     12  C   UNL d   1     -41.390-122.900 -47.847  0.00  0.00     0.005 A 
ENDBRANCH   4   6
ENDBRANCH   1   3
BRANCH   1  13
ATOM     13  N   UNL d   1     -41.876-122.167 -50.663  0.00  0.00    -0.192 NA
BRANCH  13  14
ATOM     14  C   UNL d   1     -41.625-122.406 -51.423  0.00  0.00     0.196 A 
ATOM     15  N   UNL d   1     -41.588-121.984 -52.147  0.00  0.00    -0.220 NA
ATOM     16  C   UNL d   1     -41.300-122.485 -52.717  0.00  0.00     0.095 A 
ATOM     17  C   UNL d   1     -41.147-123.241 -52.368  0.00  0.00     0.058 A 
ATOM     18  S   UNL d   1     -41.354-123.171 -51.570  0.00  0.00    -0.046 SA
BRANCH  16  19
ATOM     19  C   UNL d   1     -41.169-122.310 -53.513  0.00  0.00     0.088 C 
BRANCH  19  20
ATOM     20  C   UNL d   1     -41.677-122.560 -54.098  0.00  0.00     0.302 C 
ATOM     21  O   UNL d   1     -41.912-123.342 -54.157  0.00  0.00    -0.259 OA
BRANCH  20  22
ATOM     22  O   UNL d   1     -41.972-122.017 -54.654  0.00  0.00    -0.271 OA
BRANCH  22  23
ATOM     23  C   UNL d   1     -42.115-122.310 -55.456  0.00  0.00     0.126 C 
ATOM     24  C   UNL d   1     -42.433-121.874 -55.919  0.00  0.00     0.029 C 
ENDBRANCH  22  23
ENDBRANCH  20  22
ENDBRANCH  19  20
ENDBRANCH  16  19
ENDBRANCH  13  14
ENDBRANCH   1  13
TORSDOF 8
ENDMDL
