MODEL 1
REMARK VINA RESULT:       3.3      0.000      0.000
REMARK  2 active torsions:
REMARK  status: ('A' for Active; 'I' for Inactive)
REMARK    1  A    between atoms: C_6  and  C_1 
REMARK    2  A    between atoms: C_7  and  C_3 
ROOT
ATOM      1  C   UNL d   1     -41.864-123.104 -49.663  0.00  0.00     0.081 A 
ATOM      2  N   UNL d   1     -41.218-123.137 -49.158  0.00  0.00    -0.246 NA
ATOM      3  C   UNL d   1     -42.545-123.122 -49.205  0.00  0.00     0.019 A 
ATOM      4  C   UNL d   1     -42.321-123.165 -48.419  0.00  0.00     0.019 A 
ATOM      5  C   UNL d   1     -41.503-123.175 -48.382  0.00  0.00     0.081 A 
ATOM      6  C   UNL d   1     -42.775-123.198 -47.725  0.00  0.00     0.002 A 
ATOM      7  C   UNL d   1     -41.123-123.217 -47.652  0.00  0.00     0.019 A 
ATOM      8  C   UNL d   1     -42.385-123.240 -46.994  0.00  0.00     0.000 A 
ATOM      9  C   UNL d   1     -41.559-123.249 -46.957  0.00  0.00     0.002 A 
ENDROOT
BRANCH   1  10
ATOM     10  C   UNL d   1     -41.615-123.065 -50.453  0.00  0.00     0.018 A 
ATOM     11  C   UNL d   1     -41.500-122.335 -50.804  0.00  0.00     0.002 A 
ATOM     12  C   UNL d   1     -41.253-122.298 -51.587  0.00  0.00     0.000 A 
ATOM     13  C   UNL d   1     -41.123-122.984 -52.017  0.00  0.00     0.000 A 
ATOM     14  C   UNL d   1     -41.241-123.717 -51.655  0.00  0.00     0.000 A 
ATOM     15  C   UNL d   1     -41.486-123.757 -50.877  0.00  0.00     0.002 A 
ENDBRANCH   1  10
BRANCH   3  16
ATOM     16  C   UNL d   1     -43.321-123.100 -49.498  0.00  0.00     0.002 A 
ATOM     17  C   UNL d   1     -43.750-123.797 -49.598  0.00  0.00     0.000 A 
ATOM     18  C   UNL d   1     -44.517-123.771 -49.887  0.00  0.00     0.000 A 
ATOM     19  C   UNL d   1     -44.872-123.045 -50.083  0.00  0.00     0.000 A 
ATOM     20  C   UNL d   1     -44.440-122.340 -49.982  0.00  0.00     0.000 A 
ATOM     21  C   UNL d   1     -43.666-122.369 -49.690  0.00  0.00     0.000 A 
ENDBRANCH   3  16
TORSDOF 2
ENDMDL
MODEL 2
REMARK VINA RESULT:       5.9      1.646      4.345
REMARK  2 active torsions:
REMARK  status: ('A' for Active; 'I' for Inactive)
REMARK    1  A    between atoms: C_6  and  C_1 
REMARK    2  A    between atoms: C_7  and  C_3 
ROOT
ATOM      1  C   UNL d   1     -41.637-123.042 -51.836  0.00  0.00     0.081 A 
ATOM      2  N   UNL d   1     -41.690-123.688 -52.338  0.00  0.00    -0.246 NA
ATOM      3  C   UNL d   1     -41.443-122.384 -52.286  0.00  0.00     0.019 A 
ATOM      4  C   UNL d   1     -41.375-122.623 -53.067  0.00  0.00     0.019 A 
ATOM      5  C   UNL d   1     -41.526-123.427 -53.106  0.00  0.00     0.081 A 
ATOM      6  C   UNL d   1     -41.192-122.194 -53.752  0.00  0.00     0.002 A 
ATOM      7  C   UNL d   1     -41.496-123.817 -53.832  0.00  0.00     0.019 A 
ATOM      8  C   UNL d   1     -41.163-122.593 -54.479  0.00  0.00     0.000 A 
ATOM      9  C   UNL d   1     -41.315-123.405 -54.519  0.00  0.00     0.002 A 
ENDROOT
BRANCH   1  10
ATOM     10  C   UNL d   1     -41.796-123.268 -51.053  0.00  0.00     0.018 A 
ATOM     11  C   UNL d   1     -42.548-123.162 -50.748  0.00  0.00     0.002 A 
ATOM     12  C   UNL d   1     -42.703-123.386 -49.972  0.00  0.00     0.000 A 
ATOM     13  C   UNL d   1     -42.113-123.713 -49.505  0.00  0.00     0.000 A 
ATOM     14  C   UNL d   1     -41.356-123.817 -49.823  0.00  0.00     0.000 A 
ATOM     15  C   UNL d   1     -41.200-123.595 -50.592  0.00  0.00     0.002 A 
ENDBRANCH   1  10
BRANCH   3  16
ATOM     16  C   UNL d   1     -41.337-121.615 -51.993  0.00  0.00     0.002 A 
ATOM     17  C   UNL d   1     -41.336-120.969 -52.506  0.00  0.00     0.000 A 
ATOM     18  C   UNL d   1     -41.231-120.211 -52.213  0.00  0.00     0.000 A 
ATOM     19  C   UNL d   1     -41.123-120.082 -51.399  0.00  0.00     0.000 A 
ATOM     20  C   UNL d   1     -41.123-120.733 -50.880  0.00  0.00     0.000 A 
ATOM     21  C   UNL d   1     -41.230-121.498 -51.178  0.00  0.00     0.000 A 
ENDBRANCH   3  16
TORSDOF 2
ENDMDL
