MODEL 1
REMARK VINA RESULT:      -7.6      0.000      0.000
REMARK  6 active torsions:
REMARK  status: ('A' for Active; 'I' for Inactive)
REMARK    1  A    between atoms: N_5  and  C_1 
REMARK       I    between atoms: C_11  and  N_5 
REMARK    2  A    between atoms: C_22  and  C_7 
REMARK    3  A    between atoms: C_8  and  C_10 
REMARK    4  A    between atoms: C_20  and  C_11 
REMARK    5  A    between atoms: C_13  and  S_15 
REMARK    6  A    between atoms: S_15  and  C_20 
ROOT
ATOM      1  S   UNL d   1      50.392  34.367  52.617  0.00  0.00    -0.061 SA
ENDROOT
BRANCH   1   2
ATOM      2  C   UNL d   1      51.104  34.078  52.914  0.00  0.00     0.133 A 
ATOM      3  N   UNL d   1      51.127  33.380  53.335  0.00  0.00    -0.141 NA
ATOM      4  N   UNL d   1      51.831  33.090  53.631  0.00  0.00    -0.147 NA
ATOM      5  C   UNL d   1      52.528  33.509  53.502  0.00  0.00     0.109 A 
ATOM      6  C   UNL d   1      52.513  34.216  53.077  0.00  0.00     0.024 A 
ATOM      7  C   UNL d   1      51.810  34.498  52.786  0.00  0.00     0.029 A 
BRANCH   5   8
ATOM      8  C   UNL d   1      53.240  33.224  53.796  0.00  0.00     0.049 A 
ATOM      9  S   UNL d   1      53.574  33.400  54.526  0.00  0.00    -0.085 SA
ATOM     10  C   UNL d   1      54.287  32.997  54.598  0.00  0.00     0.035 A 
ATOM     11  C   UNL d   1      54.399  32.560  53.896  0.00  0.00     0.007 A 
ATOM     12  C   UNL d   1      53.753  32.699  53.401  0.00  0.00     0.009 A 
ENDBRANCH   5   8
ENDBRANCH   1   2
BRANCH   1  13
ATOM     13  C   UNL d   1      49.912  34.840  53.082  0.00  0.00     0.099 C 
BRANCH  13  14
ATOM     14  C   UNL d   1      49.199  35.121  52.777  0.00  0.00     0.288 C 
ATOM     15  N   UNL d   1      48.775  35.693  53.188  0.00  0.00    -0.181 NA
ATOM     16  O   UNL d   1      48.912  34.832  52.065  0.00  0.00    -0.265 OA
BRANCH  15  17
ATOM     17  C   UNL d   1      48.069  35.973  52.889  0.00  0.00     0.219 A 
ATOM     18  S   UNL d   1      47.387  36.136  53.326  0.00  0.00    -0.026 SA
ATOM     19  C   UNL d   1      46.816  36.404  52.809  0.00  0.00     0.135 A 
ATOM     20  N   UNL d   1      47.138  36.408  52.054  0.00  0.00    -0.139 NA
ATOM     21  N   UNL d   1      47.907  36.143  52.108  0.00  0.00    -0.121 NA
BRANCH  19  22
ATOM     22  C   UNL d   1      46.048  36.630  53.009  0.00  0.00     0.028 C 
ATOM     23  C   UNL d   1      45.476  36.709  52.431  0.00  0.00     0.002 C 
ENDBRANCH  19  22
ENDBRANCH  15  17
ENDBRANCH  13  14
ENDBRANCH   1  13
TORSDOF 6
ENDMDL
MODEL 2
REMARK VINA RESULT:      -7.1      1.053      6.111
REMARK  6 active torsions:
REMARK  status: ('A' for Active; 'I' for Inactive)
REMARK    1  A    between atoms: N_5  and  C_1 
REMARK       I    between atoms: C_11  and  N_5 
REMARK    2  A    between atoms: C_22  and  C_7 
REMARK    3  A    between atoms: C_8  and  C_10 
REMARK    4  A    between atoms: C_20  and  C_11 
REMARK    5  A    between atoms: C_13  and  S_15 
REMARK    6  A    between atoms: S_15  and  C_20 
ROOT
ATOM      1  S   UNL d   1      50.070  34.475  52.137  0.00  0.00    -0.061 SA
ENDROOT
BRANCH   1   2
ATOM      2  C   UNL d   1      49.337  34.847  52.197  0.00  0.00     0.133 A 
ATOM      3  N   UNL d   1      49.132  35.253  52.875  0.00  0.00    -0.141 NA
ATOM      4  N   UNL d   1      48.408  35.623  52.939  0.00  0.00    -0.147 NA
ATOM      5  C   UNL d   1      47.876  35.588  52.311  0.00  0.00     0.109 A 
ATOM      6  C   UNL d   1      48.076  35.180  51.623  0.00  0.00     0.024 A 
ATOM      7  C   UNL d   1      48.799  34.813  51.566  0.00  0.00     0.029 A 
BRANCH   5   8
ATOM      8  C   UNL d   1      47.146  35.958  52.369  0.00  0.00     0.049 A 
ATOM      9  S   UNL d   1      46.525  35.903  51.833  0.00  0.00    -0.085 SA
ATOM     10  C   UNL d   1      45.897  36.361  52.103  0.00  0.00     0.035 A 
ATOM     11  C   UNL d   1      46.134  36.709  52.824  0.00  0.00     0.007 A 
ATOM     12  C   UNL d   1      46.904  36.461  52.989  0.00  0.00     0.009 A 
ENDBRANCH   5   8
ENDBRANCH   1   2
BRANCH   1  13
ATOM     13  C   UNL d   1      50.448  34.194  52.806  0.00  0.00     0.099 C 
BRANCH  13  14
ATOM     14  C   UNL d   1      51.204  33.871  52.742  0.00  0.00     0.288 C 
ATOM     15  N   UNL d   1      51.472  33.341  53.310  0.00  0.00    -0.181 NA
ATOM     16  O   UNL d   1      51.689  34.076  52.113  0.00  0.00    -0.265 OA
BRANCH  15  17
ATOM     17  C   UNL d   1      52.220  33.019  53.249  0.00  0.00     0.219 A 
ATOM     18  S   UNL d   1      52.884  33.246  53.686  0.00  0.00    -0.026 SA
ATOM     19  C   UNL d   1      53.511  32.782  53.449  0.00  0.00     0.135 A 
ATOM     20  N   UNL d   1      53.242  32.268  52.868  0.00  0.00    -0.139 NA
ATOM     21  N   UNL d   1      52.449  32.417  52.748  0.00  0.00    -0.121 NA
BRANCH  19  22
ATOM     22  C   UNL d   1      54.281  32.821  53.742  0.00  0.00     0.028 C 
ATOM     23  C   UNL d   1      54.416  32.995  54.529  0.00  0.00     0.002 C 
ENDBRANCH  19  22
ENDBRANCH  15  17
ENDBRANCH  13  14
ENDBRANCH   1  13
TORSDOF 6
ENDMDL
MODEL 3
REMARK VINA RESULT:      -5.3     10.408     11.315
REMARK  6 active torsions:
REMARK  status: ('A' for Active; 'I' for Inactive)
REMARK    1  A    between atoms: N_5  and  C_1 
REMARK       I    between atoms: C_11  and  N_5 
REMARK    2  A    between atoms: C_22  and  C_7 
REMARK    3  A    between atoms: C_8  and  C_10 
REMARK    4  A    between atoms: C_20  and  C_11 
REMARK    5  A    between atoms: C_13  and  S_15 
REMARK    6  A    between atoms: S_15  and  C_20 
ROOT
ATOM      1  S   UNL d   1      45.367  27.239  56.986  0.00  0.00    -0.061 SA
ENDROOT
BRANCH   1   2
ATOM      2  C   UNL d   1      45.241  27.914  57.442  0.00  0.00     0.133 A 
ATOM      3  N   UNL d   1      45.355  27.898  58.250  0.00  0.00    -0.141 NA
ATOM      4  N   UNL d   1      45.232  28.564  58.705  0.00  0.00    -0.147 NA
ATOM      5  C   UNL d   1      44.989  29.264  58.343  0.00  0.00     0.109 A 
ATOM      6  C   UNL d   1      44.872  29.288  57.527  0.00  0.00     0.024 A 
ATOM      7  C   UNL d   1      44.997  28.622  57.081  0.00  0.00     0.029 A 
BRANCH   5   8
ATOM      8  C   UNL d   1      44.863  29.938  58.795  0.00  0.00     0.049 A 
ATOM      9  S   UNL d   1      44.514  29.971  59.538  0.00  0.00    -0.085 SA
ATOM     10  C   UNL d   1      44.497  30.754  59.791  0.00  0.00     0.035 A 
ATOM     11  C   UNL d   1      44.845  31.218  59.190  0.00  0.00     0.007 A 
ATOM     12  C   UNL d   1      45.071  30.715  58.576  0.00  0.00     0.009 A 
ENDBRANCH   5   8
ENDBRANCH   1   2
BRANCH   1  13
ATOM     13  C   UNL d   1      44.781  26.671  56.918  0.00  0.00     0.099 C 
BRANCH  13  14
ATOM     14  C   UNL d   1      44.926  25.988  56.480  0.00  0.00     0.288 C 
ATOM     15  N   UNL d   1      44.332  25.427  56.389  0.00  0.00    -0.181 NA
ATOM     16  O   UNL d   1      45.659  25.866  56.135  0.00  0.00    -0.265 OA
BRANCH  15  17
ATOM     17  C   UNL d   1      44.472  24.749  55.956  0.00  0.00     0.219 A 
ATOM     18  S   UNL d   1      44.565  23.987  56.263  0.00  0.00    -0.026 SA
ATOM     19  C   UNL d   1      44.693  23.480  55.637  0.00  0.00     0.135 A 
ATOM     20  N   UNL d   1      44.681  23.920  54.945  0.00  0.00    -0.139 NA
ATOM     21  N   UNL d   1      44.545  24.699  55.145  0.00  0.00    -0.121 NA
BRANCH  19  22
ATOM     22  C   UNL d   1      44.815  22.665  55.691  0.00  0.00     0.028 C 
ATOM     23  C   UNL d   1      45.464  22.320  55.333  0.00  0.00     0.002 C 
ENDBRANCH  19  22
ENDBRANCH  15  17
ENDBRANCH  13  14
ENDBRANCH   1  13
TORSDOF 6
ENDMDL
MODEL 4
REMARK VINA RESULT:      -5.3     10.432     10.844
REMARK  6 active torsions:
REMARK  status: ('A' for Active; 'I' for Inactive)
REMARK    1  A    between atoms: N_5  and  C_1 
REMARK       I    between atoms: C_11  and  N_5 
REMARK    2  A    between atoms: C_22  and  C_7 
REMARK    3  A    between atoms: C_8  and  C_10 
REMARK    4  A    between atoms: C_20  and  C_11 
REMARK    5  A    between atoms: C_13  and  S_15 
REMARK    6  A    between atoms: S_15  and  C_20 
ROOT
ATOM      1  S   UNL d   1      45.003  26.977  57.793  0.00  0.00    -0.061 SA
ENDROOT
BRANCH   1   2
ATOM      2  C   UNL d   1      44.921  26.368  57.245  0.00  0.00     0.133 A 
ATOM      3  N   UNL d   1      45.265  26.422  56.508  0.00  0.00    -0.141 NA
ATOM      4  N   UNL d   1      45.186  25.821  55.962  0.00  0.00    -0.147 NA
ATOM      5  C   UNL d   1      44.753  25.148  56.158  0.00  0.00     0.109 A 
ATOM      6  C   UNL d   1      44.401  25.086  56.902  0.00  0.00     0.024 A 
ATOM      7  C   UNL d   1      44.484  25.688  57.440  0.00  0.00     0.029 A 
BRANCH   5   8
ATOM      8  C   UNL d   1      44.669  24.539  55.614  0.00  0.00     0.049 A 
ATOM      9  S   UNL d   1      44.348  24.597  54.860  0.00  0.00    -0.085 SA
ATOM     10  C   UNL d   1      44.371  23.856  54.502  0.00  0.00     0.035 A 
ATOM     11  C   UNL d   1      44.714  23.326  55.047  0.00  0.00     0.007 A 
ATOM     12  C   UNL d   1      44.898  23.746  55.734  0.00  0.00     0.009 A 
ENDBRANCH   5   8
ENDBRANCH   1   2
BRANCH   1  13
ATOM     13  C   UNL d   1      45.037  27.756  57.543  0.00  0.00     0.099 C 
BRANCH  13  14
ATOM     14  C   UNL d   1      45.179  28.354  58.094  0.00  0.00     0.288 C 
ATOM     15  N   UNL d   1      44.743  29.050  58.063  0.00  0.00    -0.181 NA
ATOM     16  O   UNL d   1      45.753  28.257  58.670  0.00  0.00    -0.265 OA
BRANCH  15  17
ATOM     17  C   UNL d   1      44.881  29.644  58.605  0.00  0.00     0.219 A 
ATOM     18  S   UNL d   1      44.367  29.882  59.207  0.00  0.00    -0.026 SA
ATOM     19  C   UNL d   1      44.724  30.490  59.616  0.00  0.00     0.135 A 
ATOM     20  N   UNL d   1      45.457  30.632  59.274  0.00  0.00    -0.139 NA
ATOM     21  N   UNL d   1      45.549  30.111  58.654  0.00  0.00    -0.121 NA
BRANCH  19  22
ATOM     22  C   UNL d   1      44.406  30.893  60.262  0.00  0.00     0.028 C 
ATOM     23  C   UNL d   1      44.701  30.768  61.014  0.00  0.00     0.002 C 
ENDBRANCH  19  22
ENDBRANCH  15  17
ENDBRANCH  13  14
ENDBRANCH   1  13
TORSDOF 6
ENDMDL
