MODEL 1
REMARK VINA RESULT:      28.0      0.000      0.000
REMARK  4 active torsions:
REMARK  status: ('A' for Active; 'I' for Inactive)
REMARK    1  A    between atoms: N_3  and  S_1 
REMARK    2  A    between atoms: N_4  and  S_1 
REMARK    3  A    between atoms: N_2  and  C_7 
REMARK    4  A    between atoms: C_10  and  N_4 
ROOT
ATOM      1  N   UNL d   1     -52.011  25.836  33.370  0.00  0.00    -0.144 NA
ENDROOT
BRANCH   1   2
ATOM      2  S   UNL d   1     -51.899  25.018  33.352  0.00  0.00     0.351 S 
ATOM      3  O   UNL d   1     -51.082  25.131  33.325  0.00  0.00    -0.180 OA
ATOM      4  O   UNL d   1     -51.393  24.366  33.323  0.00  0.00    -0.180 OA
BRANCH   2   5
ATOM      5  N   UNL d   1     -52.550  24.511  33.366  0.00  0.00    -0.215 N 
ATOM      6  C   UNL d   1     -53.314  24.822  33.365  0.00  0.00     0.093 A 
ATOM      7  C   UNL d   1     -53.965  24.316  33.379  0.00  0.00     0.020 A 
ATOM      8  C   UNL d   1     -53.849  23.502  33.394  0.00  0.00     0.003 A 
ATOM      9  C   UNL d   1     -53.088  23.188  33.395  0.00  0.00     0.020 A 
ATOM     10  C   UNL d   1     -52.437  23.694  33.381  0.00  0.00     0.093 A 
ENDBRANCH   2   5
ENDBRANCH   1   2
BRANCH   1  11
ATOM     11  C   UNL d   1     -51.362  26.340  33.438  0.00  0.00     0.095 A 
ATOM     12  C   UNL d   1     -50.597  26.040  33.355  0.00  0.00     0.022 A 
ATOM     13  C   UNL d   1     -49.948  26.545  33.423  0.00  0.00     0.025 A 
ATOM     14  C   UNL d   1     -50.063  27.348  33.575  0.00  0.00     0.127 A 
ATOM     15  C   UNL d   1     -50.831  27.650  33.660  0.00  0.00     0.025 A 
ATOM     16  C   UNL d   1     -51.480  27.145  33.591  0.00  0.00     0.022 A 
BRANCH  14  17
ATOM     17  N   UNL d   1     -49.413  27.852  33.644  0.00  0.00    -0.114 N 
ATOM     18  O   UNL d   1     -48.719  27.582  34.006  0.00  0.00    -0.532 OA
ATOM     19  O   UNL d   1     -49.457  28.623  33.352  0.00  0.00    -0.532 OA
ENDBRANCH  14  17
ENDBRANCH   1  11
TORSDOF 4
ENDMDL
