MODEL 1
REMARK VINA RESULT:      -4.6      0.000      0.000
REMARK  9 active torsions:
REMARK  status: ('A' for Active; 'I' for Inactive)
REMARK    1  A    between atoms: C_2  and  C_1 
REMARK    2  A    between atoms: C_3  and  C_1 
REMARK    3  A    between atoms: C_12  and  C_1 
REMARK    4  A    between atoms: C_13  and  N_4 
REMARK    5  A    between atoms: C_14  and  N_5 
REMARK    6  A    between atoms: C_17  and  C_12 
REMARK    7  A    between atoms: N_16  and  C_15 
REMARK    8  A    between atoms: C_32  and  N_16 
REMARK    9  A    between atoms: C_33  and  N_16 
ROOT
ATOM      1  C   UNL d   1      53.375  32.713  53.986  0.00  0.00     0.075 C 
ENDROOT
BRANCH   1   2
ATOM      2  C   UNL d   1      53.619  32.737  54.774  0.00  0.00     0.191 A 
ATOM      3  N   UNL d   1      53.728  33.408  55.222  0.00  0.00    -0.192 N 
ATOM      4  N   UNL d   1      53.972  33.178  55.972  0.00  0.00    -0.039 NA
ATOM      5  N   UNL d   1      54.012  32.363  55.981  0.00  0.00    -0.022 NA
ATOM      6  N   UNL d   1      53.797  32.089  55.252  0.00  0.00    -0.108 NA
BRANCH   3   7
ATOM      7  C   UNL d   1      53.626  34.197  55.008  0.00  0.00     0.086 A 
ATOM      8  C   UNL d   1      54.187  34.594  54.567  0.00  0.00     0.019 A 
ATOM      9  C   UNL d   1      54.078  35.383  54.356  0.00  0.00     0.002 A 
ATOM     10  C   UNL d   1      53.407  35.776  54.588  0.00  0.00     0.000 A 
ATOM     11  C   UNL d   1      52.830  35.391  55.034  0.00  0.00     0.002 A 
ATOM     12  C   UNL d   1      53.296  36.577  54.374  0.00  0.00     0.000 C 
ATOM     13  C   UNL d   1      52.940  34.602  55.245  0.00  0.00     0.019 A 
ENDBRANCH   3   7
ENDBRANCH   1   2
BRANCH   1  14
ATOM     14  C   UNL d   1      53.940  32.677  53.396  0.00  0.00     0.191 A 
ATOM     15  N   UNL d   1      54.089  31.968  53.025  0.00  0.00    -0.192 N 
ATOM     16  N   UNL d   1      54.671  32.094  52.467  0.00  0.00    -0.039 NA
ATOM     17  N   UNL d   1      54.887  32.871  52.485  0.00  0.00    -0.022 NA
ATOM     18  N   UNL d   1      54.433  33.239  53.064  0.00  0.00    -0.108 NA
BRANCH  15  19
ATOM     19  C   UNL d   1      53.720  31.262  53.185  0.00  0.00     0.086 A 
ATOM     20  C   UNL d   1      53.034  31.052  52.785  0.00  0.00     0.019 A 
ATOM     21  C   UNL d   1      52.655  30.344  52.938  0.00  0.00     0.002 A 
ATOM     22  C   UNL d   1      52.977  29.835  53.510  0.00  0.00     0.000 A 
ATOM     23  C   UNL d   1      53.661  30.039  53.912  0.00  0.00     0.002 A 
ATOM     24  C   UNL d   1      52.595  29.106  53.674  0.00  0.00     0.000 C 
ATOM     25  C   UNL d   1      54.034  30.755  53.750  0.00  0.00     0.019 A 
ENDBRANCH  15  19
ENDBRANCH   1  14
BRANCH   1  26
ATOM     26  C   UNL d   1      52.464  32.721  53.603  0.00  0.00     0.006 C 
BRANCH  26  27
ATOM     27  C   UNL d   1      51.897  33.195  53.212  0.00  0.00     0.000 A 
ATOM     28  C   UNL d   1      51.976  33.743  52.528  0.00  0.00     0.002 A 
ATOM     29  C   UNL d   1      51.271  34.180  52.225  0.00  0.00     0.018 A 
ATOM     30  C   UNL d   1      50.478  34.071  52.606  0.00  0.00     0.064 A 
ATOM     31  C   UNL d   1      50.400  33.515  53.298  0.00  0.00     0.018 A 
ATOM     32  C   UNL d   1      51.099  33.082  53.599  0.00  0.00     0.002 A 
BRANCH  30  33
ATOM     33  N   UNL d   1      49.771  34.512  52.298  0.00  0.00    -0.304 N 
BRANCH  33  34
ATOM     34  C   UNL d   1      49.212  34.891  52.867  0.00  0.00     0.080 C 
ATOM     35  C   UNL d   1      48.801  35.647  52.650  0.00  0.00     0.021 C 
ENDBRANCH  33  34
BRANCH  33  36
ATOM     36  C   UNL d   1      49.630  34.569  51.426  0.00  0.00     0.080 C 
ATOM     37  C   UNL d   1      48.813  34.472  51.101  0.00  0.00     0.021 C 
ENDBRANCH  33  36
ENDBRANCH  30  33
ENDBRANCH  26  27
ENDBRANCH   1  26
TORSDOF 9
ENDMDL
MODEL 2
REMARK VINA RESULT:      -3.8      0.281      3.635
REMARK  9 active torsions:
REMARK  status: ('A' for Active; 'I' for Inactive)
REMARK    1  A    between atoms: C_2  and  C_1 
REMARK    2  A    between atoms: C_3  and  C_1 
REMARK    3  A    between atoms: C_12  and  C_1 
REMARK    4  A    between atoms: C_13  and  N_4 
REMARK    5  A    between atoms: C_14  and  N_5 
REMARK    6  A    between atoms: C_17  and  C_12 
REMARK    7  A    between atoms: N_16  and  C_15 
REMARK    8  A    between atoms: C_32  and  N_16 
REMARK    9  A    between atoms: C_33  and  N_16 
ROOT
ATOM      1  C   UNL d   1      53.437  32.900  54.036  0.00  0.00     0.075 C 
ENDROOT
BRANCH   1   2
ATOM      2  C   UNL d   1      54.003  32.747  53.456  0.00  0.00     0.191 A 
ATOM      3  N   UNL d   1      54.102  32.044  53.056  0.00  0.00    -0.192 N 
ATOM      4  N   UNL d   1      54.726  32.135  52.530  0.00  0.00    -0.039 NA
ATOM      5  N   UNL d   1      55.009  32.896  52.610  0.00  0.00    -0.022 NA
ATOM      6  N   UNL d   1      54.571  33.274  53.174  0.00  0.00    -0.108 NA
BRANCH   3   7
ATOM      7  C   UNL d   1      53.678  31.341  53.129  0.00  0.00     0.086 A 
ATOM      8  C   UNL d   1      52.984  31.218  52.715  0.00  0.00     0.019 A 
ATOM      9  C   UNL d   1      52.566  30.513  52.794  0.00  0.00     0.002 A 
ATOM     10  C   UNL d   1      52.841  29.930  53.286  0.00  0.00     0.000 A 
ATOM     11  C   UNL d   1      53.540  30.038  53.712  0.00  0.00     0.002 A 
ATOM     12  C   UNL d   1      52.416  29.214  53.366  0.00  0.00     0.000 C 
ATOM     13  C   UNL d   1      53.958  30.743  53.633  0.00  0.00     0.019 A 
ENDBRANCH   3   7
ENDBRANCH   1   2
BRANCH   1  14
ATOM     14  C   UNL d   1      53.628  32.773  54.821  0.00  0.00     0.191 A 
ATOM     15  N   UNL d   1      53.779  33.410  55.305  0.00  0.00    -0.192 N 
ATOM     16  N   UNL d   1      53.953  33.123  56.050  0.00  0.00    -0.039 NA
ATOM     17  N   UNL d   1      53.912  32.318  56.035  0.00  0.00    -0.022 NA
ATOM     18  N   UNL d   1      53.710  32.095  55.270  0.00  0.00    -0.108 NA
BRANCH  15  19
ATOM     19  C   UNL d   1      53.759  34.191  55.083  0.00  0.00     0.086 A 
ATOM     20  C   UNL d   1      54.408  34.534  54.715  0.00  0.00     0.019 A 
ATOM     21  C   UNL d   1      54.399  35.320  54.487  0.00  0.00     0.002 A 
ATOM     22  C   UNL d   1      53.717  35.769  54.635  0.00  0.00     0.000 A 
ATOM     23  C   UNL d   1      53.067  35.433  55.001  0.00  0.00     0.002 A 
ATOM     24  C   UNL d   1      53.698  36.577  54.404  0.00  0.00     0.000 C 
ATOM     25  C   UNL d   1      53.087  34.641  55.227  0.00  0.00     0.019 A 
ENDBRANCH  15  19
ENDBRANCH   1  14
BRANCH   1  26
ATOM     26  C   UNL d   1      52.509  33.231  53.947  0.00  0.00     0.006 C 
BRANCH  26  27
ATOM     27  C   UNL d   1      51.945  33.529  53.406  0.00  0.00     0.000 A 
ATOM     28  C   UNL d   1      52.045  33.928  52.628  0.00  0.00     0.002 A 
ATOM     29  C   UNL d   1      51.337  34.188  52.168  0.00  0.00     0.018 A 
ATOM     30  C   UNL d   1      50.520  34.050  52.486  0.00  0.00     0.064 A 
ATOM     31  C   UNL d   1      50.422  33.646  53.274  0.00  0.00     0.018 A 
ATOM     32  C   UNL d   1      51.123  33.388  53.730  0.00  0.00     0.002 A 
BRANCH  30  33
ATOM     33  N   UNL d   1      49.811  34.313  52.020  0.00  0.00    -0.304 N 
BRANCH  33  34
ATOM     34  C   UNL d   1      49.086  34.585  52.445  0.00  0.00     0.080 C 
ATOM     35  C   UNL d   1      48.807  35.422  52.359  0.00  0.00     0.021 C 
ENDBRANCH  33  34
BRANCH  33  36
ATOM     36  C   UNL d   1      49.834  34.302  51.136  0.00  0.00     0.080 C 
ATOM     37  C   UNL d   1      49.083  34.232  50.673  0.00  0.00     0.021 C 
ENDBRANCH  33  36
ENDBRANCH  30  33
ENDBRANCH  26  27
ENDBRANCH   1  26
TORSDOF 9
ENDMDL
