MODEL 1
REMARK VINA RESULT:      73.3      0.000      0.000
REMARK  5 active torsions:
REMARK  status: ('A' for Active; 'I' for Inactive)
REMARK    1  A    between atoms: N_12  and  C_4 
REMARK    2  A    between atoms: C_19  and  N_5 
REMARK    3  A    between atoms: C_11  and  S_18 
REMARK    4  A    between atoms: S_18  and  C_21 
REMARK    5  A    between atoms: C_21  and  C_19 
ROOT
ATOM      1  C   UNL d   1     -51.455  25.376  33.379  0.00  0.00     0.191 A 
ATOM      2  C   UNL d   1     -50.642  25.514  33.373  0.00  0.00     0.174 A 
ATOM      3  N   UNL d   1     -51.834  26.105  33.367  0.00  0.00    -0.042 NA
ATOM      4  C   UNL d   1     -51.265  26.690  33.354  0.00  0.00     0.722 A 
ATOM      5  N   UNL d   1     -50.520  26.328  33.357  0.00  0.00    -0.132 N 
ATOM      6  N   UNL d   1     -51.741  24.602  33.395  0.00  0.00    -0.239 N 
ATOM      7  C   UNL d   1     -51.215  23.966  33.404  0.00  0.00     0.358 A 
ATOM      8  N   UNL d   1     -50.403  24.104  33.397  0.00  0.00    -0.152 NA
ATOM      9  C   UNL d   1     -50.115  24.878  33.382  0.00  0.00     0.303 A 
ATOM     10  O   UNL d   1     -51.507  23.193  33.419  0.00  0.00    -0.244 OA
ATOM     11  O   UNL d   1     -49.303  25.016  33.375  0.00  0.00    -0.263 OA
ATOM     12  C   UNL d   1     -52.546  24.465  33.401  0.00  0.00     0.105 C 
ENDROOT
BRANCH   5  13
ATOM     13  C   UNL d   1     -49.786  26.713  33.346  0.00  0.00     0.105 C 
BRANCH  13  14
ATOM     14  C   UNL d   1     -49.531  27.141  34.009  0.00  0.00     0.058 C 
BRANCH  14  15
ATOM     15  S   UNL d   1     -48.717  27.302  34.110  0.00  0.00    -0.041 SA
BRANCH  15  16
ATOM     16  C   UNL d   1     -48.486  27.874  34.661  0.00  0.00     0.215 A 
ATOM     17  N   UNL d   1     -48.191  28.596  34.415  0.00  0.00    -0.214 NA
ATOM     18  C   UNL d   1     -48.014  29.037  35.074  0.00  0.00     0.107 A 
ATOM     19  C   UNL d   1     -47.702  29.803  35.147  0.00  0.00     0.021 A 
ATOM     20  C   UNL d   1     -48.191  28.607  35.735  0.00  0.00     0.120 A 
ATOM     21  C   UNL d   1     -47.574  30.124  35.900  0.00  0.00     0.002 A 
ATOM     22  C   UNL d   1     -47.752  29.690  36.560  0.00  0.00     0.002 A 
ATOM     23  C   UNL d   1     -48.062  28.928  36.477  0.00  0.00     0.026 A 
ATOM     24  O   UNL d   1     -48.490  27.871  35.480  0.00  0.00    -0.283 OA
ENDBRANCH  15  16
ENDBRANCH  14  15
ENDBRANCH  13  14
ENDBRANCH   5  13
BRANCH   4  25
ATOM     25  N   UNL d   1     -51.371  27.508  33.340  0.00  0.00    -0.139 N 
ATOM     26  C   UNL d   1     -50.709  28.010  33.321  0.00  0.00     0.098 A 
ATOM     27  C   UNL d   1     -50.815  28.829  33.306  0.00  0.00     0.020 A 
ATOM     28  C   UNL d   1     -51.570  29.147  33.310  0.00  0.00     0.003 A 
ATOM     29  C   UNL d   1     -52.224  28.646  33.329  0.00  0.00     0.020 A 
ATOM     30  C   UNL d   1     -52.126  27.826  33.344  0.00  0.00     0.098 A 
ENDBRANCH   4  25
TORSDOF 5
ENDMDL
