MODEL 1
REMARK VINA RESULT:      29.3      0.000      0.000
REMARK  6 active torsions:
REMARK  status: ('A' for Active; 'I' for Inactive)
REMARK    1  A    between atoms: S_6  and  C_1 
REMARK    2  A    between atoms: C_7  and  S_6 
REMARK    3  A    between atoms: C_8  and  C_7 
REMARK    4  A    between atoms: O_14  and  C_9 
REMARK    5  A    between atoms: C_17  and  O_14 
REMARK    6  A    between atoms: C_18  and  C_17 
ROOT
ATOM      1  C   UNL d   1     -55.204-102.042 -39.335  0.00  0.00     0.038 C 
ENDROOT
BRANCH   1   2
ATOM      2  S   UNL d   1     -55.162-102.748 -38.910  0.00  0.00    -0.048 SA
BRANCH   2   3
ATOM      3  C   UNL d   1     -55.281-102.746 -38.094  0.00  0.00     0.194 A 
ATOM      4  N   UNL d   1     -54.711-102.858 -37.512  0.00  0.00    -0.220 NA
ATOM      5  C   UNL d   1     -55.097-102.808 -36.764  0.00  0.00     0.101 A 
ATOM      6  C   UNL d   1     -54.798-102.878 -35.999  0.00  0.00     0.021 A 
ATOM      7  C   UNL d   1     -55.897-102.666 -36.881  0.00  0.00     0.101 A 
ATOM      8  C   UNL d   1     -55.299-102.805 -35.377  0.00  0.00     0.002 A 
ATOM      9  C   UNL d   1     -56.099-102.663 -35.494  0.00  0.00     0.002 A 
ATOM     10  C   UNL d   1     -56.401-102.593 -36.234  0.00  0.00     0.021 A 
ATOM     11  N   UNL d   1     -56.020-102.626 -37.704  0.00  0.00    -0.220 NA
ENDBRANCH   2   3
ENDBRANCH   1   2
BRANCH   1  12
ATOM     12  C   UNL d   1     -55.095-102.076 -40.153  0.00  0.00     0.007 A 
ATOM     13  C   UNL d   1     -55.291-102.778 -40.540  0.00  0.00     0.003 A 
ATOM     14  C   UNL d   1     -55.193-102.840 -41.356  0.00  0.00     0.025 A 
ATOM     15  C   UNL d   1     -54.898-102.200 -41.787  0.00  0.00     0.100 A 
ATOM     16  C   UNL d   1     -54.712-101.526 -41.398  0.00  0.00     0.025 A 
ATOM     17  C   UNL d   1     -54.811-101.464 -40.582  0.00  0.00     0.003 A 
BRANCH  15  18
ATOM     18  O   UNL d   1     -54.800-102.262 -42.603  0.00  0.00    -0.305 OA
BRANCH  18  19
ATOM     19  C   UNL d   1     -54.911-101.600 -43.083  0.00  0.00     0.123 C 
BRANCH  19  20
ATOM     20  C   UNL d   1     -54.880-101.676 -43.904  0.00  0.00     0.027 C 
ATOM     21  C   UNL d   1     -55.087-101.035 -44.387  0.00  0.00     0.002 C 
ENDBRANCH  19  20
ENDBRANCH  18  19
ENDBRANCH  15  18
ENDBRANCH   1  12
TORSDOF 6
ENDMDL
