MODEL 1
REMARK VINA RESULT:      25.5      0.000      0.000
REMARK  4 active torsions:
REMARK  status: ('A' for Active; 'I' for Inactive)
REMARK    1  A    between atoms: C_10  and  C_1 
REMARK    2  A    between atoms: N_7  and  C_4 
REMARK    3  A    between atoms: N_16  and  C_9 
REMARK    4  A    between atoms: C_15  and  C_10 
ROOT
ATOM      1  C   UNL d   1      46.200 -18.155  42.677  0.00  0.00     0.143 A 
ATOM      2  C   UNL d   1      46.198 -18.789  43.210  0.00  0.00     0.086 A 
ATOM      3  C   UNL d   1      46.346 -17.388  42.944  0.00  0.00     0.025 A 
ATOM      4  C   UNL d   1      46.344 -18.647  44.013  0.00  0.00     0.019 A 
ATOM      5  C   UNL d   1      46.490 -17.258  43.745  0.00  0.00     0.002 A 
ATOM      6  C   UNL d   1      46.488 -17.893  44.278  0.00  0.00     0.002 A 
ENDROOT
BRANCH   5   7
ATOM      7  C   UNL d   1      46.635 -16.493  44.011  0.00  0.00     0.010 C 
BRANCH   7   8
ATOM      8  C   UNL d   1      45.988 -16.020  44.251  0.00  0.00     0.116 A 
ATOM      9  C   UNL d   1      45.972 -15.237  44.016  0.00  0.00     0.288 A 
ATOM     10  N   UNL d   1      45.337 -14.764  44.249  0.00  0.00    -0.152 NA
ATOM     11  O   UNL d   1      46.574 -14.925  43.558  0.00  0.00    -0.265 OA
ATOM     12  C   UNL d   1      44.729 -15.079  44.711  0.00  0.00     0.374 A 
ATOM     13  N   UNL d   1      44.760 -15.863  44.938  0.00  0.00    -0.152 NA
ATOM     14  O   UNL d   1      44.089 -14.611  44.948  0.00  0.00    -0.242 OA
ATOM     15  C   UNL d   1      45.380 -16.334  44.713  0.00  0.00     0.288 A 
ATOM     16  O   UNL d   1      45.398 -17.134  44.952  0.00  0.00    -0.265 OA
ENDBRANCH   7   8
ENDBRANCH   5   7
BRANCH   1  17
ATOM     17  N   UNL d   1      46.057 -18.289  41.884  0.00  0.00    -0.112 N 
ATOM     18  O   UNL d   1      45.343 -18.048  41.561  0.00  0.00    -0.532 OA
ATOM     19  O   UNL d   1      46.630 -18.659  41.439  0.00  0.00    -0.532 OA
ENDBRANCH   1  17
BRANCH   2  20
ATOM     20  N   UNL d   1      46.053 -19.547  42.941  0.00  0.00    -0.300 N 
ATOM     21  C   UNL d   1      46.594 -19.915  42.431  0.00  0.00     0.100 C 
ATOM     22  C   UNL d   1      45.381 -19.924  43.179  0.00  0.00     0.100 C 
ENDBRANCH   2  20
TORSDOF 4
ENDMDL
MODEL 2
REMARK VINA RESULT:      26.4      1.219      1.686
REMARK  4 active torsions:
REMARK  status: ('A' for Active; 'I' for Inactive)
REMARK    1  A    between atoms: C_10  and  C_1 
REMARK    2  A    between atoms: N_7  and  C_4 
REMARK    3  A    between atoms: N_16  and  C_9 
REMARK    4  A    between atoms: C_15  and  C_10 
ROOT
ATOM      1  C   UNL d   1      45.540 -17.242  43.392  0.00  0.00     0.143 A 
ATOM      2  C   UNL d   1      46.049 -17.759  43.794  0.00  0.00     0.086 A 
ATOM      3  C   UNL d   1      45.243 -16.573  43.771  0.00  0.00     0.025 A 
ATOM      4  C   UNL d   1      46.255 -17.597  44.579  0.00  0.00     0.019 A 
ATOM      5  C   UNL d   1      45.455 -16.422  44.552  0.00  0.00     0.002 A 
ATOM      6  C   UNL d   1      45.964 -16.938  44.954  0.00  0.00     0.002 A 
ENDROOT
BRANCH   5   7
ATOM      7  C   UNL d   1      45.159 -15.753  44.930  0.00  0.00     0.010 C 
BRANCH   7   8
ATOM      8  C   UNL d   1      45.260 -15.006  44.567  0.00  0.00     0.116 A 
ATOM      9  C   UNL d   1      46.010 -14.683  44.546  0.00  0.00     0.288 A 
ATOM     10  N   UNL d   1      46.118 -13.947  44.190  0.00  0.00    -0.152 NA
ATOM     11  O   UNL d   1      46.647 -15.081  44.873  0.00  0.00    -0.265 OA
ATOM     12  C   UNL d   1      45.475 -13.544  43.860  0.00  0.00     0.374 A 
ATOM     13  N   UNL d   1      44.732 -13.881  43.889  0.00  0.00    -0.152 NA
ATOM     14  O   UNL d   1      45.576 -12.805  43.501  0.00  0.00    -0.242 OA
ATOM     15  C   UNL d   1      44.618 -14.603  44.237  0.00  0.00     0.288 A 
ATOM     16  O   UNL d   1      43.852 -14.934  44.259  0.00  0.00    -0.265 OA
ENDBRANCH   7   8
ENDBRANCH   5   7
BRANCH   1  17
ATOM     17  N   UNL d   1      45.332 -17.397  42.617  0.00  0.00    -0.112 N 
ATOM     18  O   UNL d   1      45.787 -17.082  42.012  0.00  0.00    -0.532 OA
ATOM     19  O   UNL d   1      44.679 -17.860  42.471  0.00  0.00    -0.532 OA
ENDBRANCH   1  17
BRANCH   2  20
ATOM     20  N   UNL d   1      46.340 -18.421  43.414  0.00  0.00    -0.300 N 
ATOM     21  C   UNL d   1      46.647 -18.355  42.647  0.00  0.00     0.100 C 
ATOM     22  C   UNL d   1      46.324 -19.130  43.798  0.00  0.00     0.100 C 
ENDBRANCH   2  20
TORSDOF 4
ENDMDL
MODEL 3
REMARK VINA RESULT:      27.9      2.134      4.632
REMARK  4 active torsions:
REMARK  status: ('A' for Active; 'I' for Inactive)
REMARK    1  A    between atoms: C_10  and  C_1 
REMARK    2  A    between atoms: N_7  and  C_4 
REMARK    3  A    between atoms: N_16  and  C_9 
REMARK    4  A    between atoms: C_15  and  C_10 
ROOT
ATOM      1  C   UNL d   1      45.238 -13.043  43.388  0.00  0.00     0.143 A 
ATOM      2  C   UNL d   1      44.496 -13.059  43.018  0.00  0.00     0.086 A 
ATOM      3  C   UNL d   1      45.392 -13.537  44.031  0.00  0.00     0.025 A 
ATOM      4  C   UNL d   1      43.912 -13.573  43.299  0.00  0.00     0.019 A 
ATOM      5  C   UNL d   1      44.803 -14.045  44.302  0.00  0.00     0.002 A 
ATOM      6  C   UNL d   1      44.061 -14.060  43.932  0.00  0.00     0.002 A 
ENDROOT
BRANCH   5   7
ATOM      7  C   UNL d   1      44.957 -14.538  44.943  0.00  0.00     0.010 C 
BRANCH   7   8
ATOM      8  C   UNL d   1      45.263 -15.303  44.799  0.00  0.00     0.116 A 
ATOM      9  C   UNL d   1      46.071 -15.389  44.711  0.00  0.00     0.288 A 
ATOM     10  N   UNL d   1      46.378 -16.141  44.569  0.00  0.00    -0.152 NA
ATOM     11  O   UNL d   1      46.568 -14.741  44.762  0.00  0.00    -0.265 OA
ATOM     12  C   UNL d   1      45.876 -16.796  44.518  0.00  0.00     0.374 A 
ATOM     13  N   UNL d   1      45.071 -16.693  44.608  0.00  0.00    -0.152 NA
ATOM     14  O   UNL d   1      46.179 -17.553  44.376  0.00  0.00    -0.242 OA
ATOM     15  C   UNL d   1      44.760 -15.958  44.748  0.00  0.00     0.288 A 
ATOM     16  O   UNL d   1      43.936 -15.870  44.838  0.00  0.00    -0.265 OA
ENDBRANCH   7   8
ENDBRANCH   5   7
BRANCH   1  17
ATOM     17  N   UNL d   1      45.819 -12.538  43.115  0.00  0.00    -0.112 N 
ATOM     18  O   UNL d   1      46.237 -12.083  43.654  0.00  0.00    -0.532 OA
ATOM     19  O   UNL d   1      45.964 -12.502  42.315  0.00  0.00    -0.532 OA
ENDBRANCH   1  17
BRANCH   2  20
ATOM     20  N   UNL d   1      44.349 -12.568  42.382  0.00  0.00    -0.300 N 
ATOM     21  C   UNL d   1      44.856 -12.577  41.726  0.00  0.00     0.100 C 
ATOM     22  C   UNL d   1      43.707 -12.081  42.406  0.00  0.00     0.100 C 
ENDBRANCH   2  20
TORSDOF 4
ENDMDL
