MODEL 1
REMARK VINA RESULT:      -6.7      0.000      0.000
REMARK  5 active torsions:
REMARK  status: ('A' for Active; 'I' for Inactive)
REMARK    1  A    between atoms: C_2  and  S_1 
REMARK    2  A    between atoms: N_4  and  S_1 
REMARK    3  A    between atoms: C_11  and  N_4 
REMARK    4  A    between atoms: O_13  and  C_5 
REMARK    5  A    between atoms: O_14  and  C_6 
ROOT
ATOM      1  C   UNL d   1     -47.635  12.939  22.992  0.00  0.00     0.141 A 
ATOM      2  C   UNL d   1     -46.876  13.209  22.810  0.00  0.00     0.040 A 
ATOM      3  C   UNL d   1     -47.737  12.194  23.302  0.00  0.00     0.107 A 
ATOM      4  C   UNL d   1     -46.225  12.732  22.940  0.00  0.00     0.095 A 
ATOM      5  C   UNL d   1     -47.091  11.707  23.437  0.00  0.00     0.027 A 
ATOM      6  C   UNL d   1     -46.332  11.976  23.255  0.00  0.00     0.024 A 
ATOM      7  C   UNL d   1     -45.674  11.484  23.390  0.00  0.00     0.002 C 
ENDROOT
BRANCH   1   8
ATOM      8  S   UNL d   1     -48.282  13.428  22.857  0.00  0.00     0.329 S 
ATOM      9  O   UNL d   1     -48.356  13.118  22.100  0.00  0.00    -0.186 OA
ATOM     10  O   UNL d   1     -48.216  13.742  23.608  0.00  0.00    -0.186 OA
BRANCH   8  11
ATOM     11  N   UNL d   1     -48.931  13.915  22.713  0.00  0.00    -0.316 NA
BRANCH  11  12
ATOM     12  C   UNL d   1     -49.585  14.403  22.562  0.00  0.00     0.165 A 
ATOM     13  C   UNL d   1     -49.568  15.187  22.794  0.00  0.00     0.132 A 
ATOM     14  N   UNL d   1     -50.221  15.674  22.643  0.00  0.00    -0.240 NA
ATOM     15  C   UNL d   1     -50.888  15.374  22.261  0.00  0.00     0.099 A 
ATOM     16  C   UNL d   1     -50.898  14.580  22.030  0.00  0.00     0.023 A 
ATOM     17  C   UNL d   1     -50.253  14.089  22.176  0.00  0.00     0.036 A 
ENDBRANCH  11  12
ENDBRANCH   8  11
ENDBRANCH   1   8
BRANCH   3  18
ATOM     18  O   UNL d   1     -48.497  11.924  23.484  0.00  0.00    -0.327 OA
ATOM     19  C   UNL d   1     -48.613  11.128  23.696  0.00  0.00     0.181 C 
ENDBRANCH   3  18
BRANCH   4  20
ATOM     20  O   UNL d   1     -45.466  13.002  22.758  0.00  0.00    -0.328 OA
ATOM     21  C   UNL d   1     -45.366  13.649  22.256  0.00  0.00     0.181 C 
ENDBRANCH   4  20
TORSDOF 5
ENDMDL
MODEL 2
REMARK VINA RESULT:      -6.4      1.429      3.922
REMARK  5 active torsions:
REMARK  status: ('A' for Active; 'I' for Inactive)
REMARK    1  A    between atoms: C_2  and  S_1 
REMARK    2  A    between atoms: N_4  and  S_1 
REMARK    3  A    between atoms: C_11  and  N_4 
REMARK    4  A    between atoms: O_13  and  C_5 
REMARK    5  A    between atoms: O_14  and  C_6 
ROOT
ATOM      1  C   UNL d   1     -48.688  13.552  23.017  0.00  0.00     0.141 A 
ATOM      2  C   UNL d   1     -48.941  14.323  22.862  0.00  0.00     0.040 A 
ATOM      3  C   UNL d   1     -49.221  12.996  23.277  0.00  0.00     0.107 A 
ATOM      4  C   UNL d   1     -49.725  14.531  22.968  0.00  0.00     0.095 A 
ATOM      5  C   UNL d   1     -50.011  13.193  23.387  0.00  0.00     0.027 A 
ATOM      6  C   UNL d   1     -50.263  13.964  23.232  0.00  0.00     0.024 A 
ATOM      7  C   UNL d   1     -51.063  14.168  23.342  0.00  0.00     0.002 C 
ENDROOT
BRANCH   1   8
ATOM      8  S   UNL d   1     -47.898  13.355  22.907  0.00  0.00     0.329 S 
ATOM      9  O   UNL d   1     -48.060  13.149  22.128  0.00  0.00    -0.186 OA
ATOM     10  O   UNL d   1     -47.728  13.557  23.680  0.00  0.00    -0.186 OA
BRANCH   8  11
ATOM     11  N   UNL d   1     -47.107  13.155  22.788  0.00  0.00    -0.316 NA
BRANCH  11  12
ATOM     12  C   UNL d   1     -46.310  12.957  22.673  0.00  0.00     0.165 A 
ATOM     13  C   UNL d   1     -45.997  12.300  23.046  0.00  0.00     0.132 A 
ATOM     14  N   UNL d   1     -45.200  12.104  22.931  0.00  0.00    -0.240 NA
ATOM     15  C   UNL d   1     -44.721  12.566  22.443  0.00  0.00     0.099 A 
ATOM     16  C   UNL d   1     -45.045  13.229  22.069  0.00  0.00     0.023 A 
ATOM     17  C   UNL d   1     -45.836  13.431  22.178  0.00  0.00     0.036 A 
ENDBRANCH  11  12
ENDBRANCH   8  11
ENDBRANCH   1   8
BRANCH   3  18
ATOM     18  O   UNL d   1     -48.968  12.224  23.433  0.00  0.00    -0.327 OA
ATOM     19  C   UNL d   1     -49.521  11.646  23.662  0.00  0.00     0.181 C 
ENDBRANCH   3  18
BRANCH   4  20
ATOM     20  O   UNL d   1     -49.978  15.302  22.812  0.00  0.00    -0.328 OA
ATOM     21  C   UNL d   1     -49.785  15.913  23.332  0.00  0.00     0.181 C 
ENDBRANCH   4  20
TORSDOF 5
ENDMDL
MODEL 3
REMARK VINA RESULT:      -6.4      1.514      4.163
REMARK  5 active torsions:
REMARK  status: ('A' for Active; 'I' for Inactive)
REMARK    1  A    between atoms: C_2  and  S_1 
REMARK    2  A    between atoms: N_4  and  S_1 
REMARK    3  A    between atoms: C_11  and  N_4 
REMARK    4  A    between atoms: O_13  and  C_5 
REMARK    5  A    between atoms: O_14  and  C_6 
ROOT
ATOM      1  C   UNL d   1     -48.671  13.481  23.048  0.00  0.00     0.141 A 
ATOM      2  C   UNL d   1     -49.190  12.896  23.315  0.00  0.00     0.040 A 
ATOM      3  C   UNL d   1     -48.949  14.230  22.898  0.00  0.00     0.107 A 
ATOM      4  C   UNL d   1     -49.981  13.065  23.430  0.00  0.00     0.095 A 
ATOM      5  C   UNL d   1     -49.741  14.412  23.009  0.00  0.00     0.027 A 
ATOM      6  C   UNL d   1     -50.260  13.827  23.276  0.00  0.00     0.024 A 
ATOM      7  C   UNL d   1     -51.064  14.007  23.390  0.00  0.00     0.002 C 
ENDROOT
BRANCH   1   8
ATOM      8  S   UNL d   1     -47.878  13.299  22.937  0.00  0.00     0.329 S 
ATOM      9  O   UNL d   1     -48.043  13.050  22.172  0.00  0.00    -0.186 OA
ATOM     10  O   UNL d   1     -47.703  13.544  23.697  0.00  0.00    -0.186 OA
BRANCH   8  11
ATOM     11  N   UNL d   1     -47.083  13.113  22.817  0.00  0.00    -0.316 NA
BRANCH  11  12
ATOM     12  C   UNL d   1     -46.286  12.921  22.695  0.00  0.00     0.165 A 
ATOM     13  C   UNL d   1     -45.964  12.267  23.068  0.00  0.00     0.132 A 
ATOM     14  N   UNL d   1     -45.167  12.076  22.946  0.00  0.00    -0.240 NA
ATOM     15  C   UNL d   1     -44.696  12.539  22.451  0.00  0.00     0.099 A 
ATOM     16  C   UNL d   1     -45.029  13.198  22.077  0.00  0.00     0.023 A 
ATOM     17  C   UNL d   1     -45.820  13.395  22.193  0.00  0.00     0.036 A 
ENDBRANCH  11  12
ENDBRANCH   8  11
ENDBRANCH   1   8
BRANCH   3  18
ATOM     18  O   UNL d   1     -48.430  14.816  22.631  0.00  0.00    -0.327 OA
ATOM     19  C   UNL d   1     -48.731  15.541  22.358  0.00  0.00     0.181 C 
ENDBRANCH   3  18
BRANCH   4  20
ATOM     20  O   UNL d   1     -50.500  12.480  23.696  0.00  0.00    -0.328 OA
ATOM     21  C   UNL d   1     -50.292  11.684  23.635  0.00  0.00     0.181 C 
ENDBRANCH   4  20
TORSDOF 5
ENDMDL
MODEL 4
REMARK VINA RESULT:      -5.8      1.479      2.341
REMARK  5 active torsions:
REMARK  status: ('A' for Active; 'I' for Inactive)
REMARK    1  A    between atoms: C_2  and  S_1 
REMARK    2  A    between atoms: N_4  and  S_1 
REMARK    3  A    between atoms: C_11  and  N_4 
REMARK    4  A    between atoms: O_13  and  C_5 
REMARK    5  A    between atoms: O_14  and  C_6 
ROOT
ATOM      1  C   UNL d   1     -47.091  12.934  22.757  0.00  0.00     0.141 A 
ATOM      2  C   UNL d   1     -46.511  12.354  22.853  0.00  0.00     0.040 A 
ATOM      3  C   UNL d   1     -46.880  13.682  22.520  0.00  0.00     0.107 A 
ATOM      4  C   UNL d   1     -45.725  12.527  22.712  0.00  0.00     0.095 A 
ATOM      5  C   UNL d   1     -46.093  13.868  22.375  0.00  0.00     0.027 A 
ATOM      6  C   UNL d   1     -45.513  13.288  22.472  0.00  0.00     0.024 A 
ATOM      7  C   UNL d   1     -44.715  13.472  22.326  0.00  0.00     0.002 C 
ENDROOT
BRANCH   1   8
ATOM      8  S   UNL d   1     -47.878  12.748  22.902  0.00  0.00     0.329 S 
ATOM      9  O   UNL d   1     -47.981  12.567  22.107  0.00  0.00    -0.186 OA
ATOM     10  O   UNL d   1     -47.787  12.925  23.694  0.00  0.00    -0.186 OA
BRANCH   8  11
ATOM     11  N   UNL d   1     -48.669  12.559  23.038  0.00  0.00    -0.316 NA
BRANCH  11  12
ATOM     12  C   UNL d   1     -49.464  12.372  23.182  0.00  0.00     0.165 A 
ATOM     13  C   UNL d   1     -49.655  11.669  23.554  0.00  0.00     0.132 A 
ATOM     14  N   UNL d   1     -50.450  11.483  23.697  0.00  0.00    -0.240 NA
ATOM     15  C   UNL d   1     -51.050  12.001  23.466  0.00  0.00     0.099 A 
ATOM     16  C   UNL d   1     -50.849  12.710  23.091  0.00  0.00     0.023 A 
ATOM     17  C   UNL d   1     -50.062  12.903  22.945  0.00  0.00     0.036 A 
ENDBRANCH  11  12
ENDBRANCH   8  11
ENDBRANCH   1   8
BRANCH   3  18
ATOM     18  O   UNL d   1     -47.461  14.263  22.423  0.00  0.00    -0.327 OA
ATOM     19  C   UNL d   1     -47.250  15.067  22.453  0.00  0.00     0.181 C 
ENDBRANCH   3  18
BRANCH   4  20
ATOM     20  O   UNL d   1     -45.145  11.947  22.809  0.00  0.00    -0.328 OA
ATOM     21  C   UNL d   1     -45.297  11.283  23.275  0.00  0.00     0.181 C 
ENDBRANCH   4  20
TORSDOF 5
ENDMDL
MODEL 5
REMARK VINA RESULT:      -5.6      8.129     10.124
REMARK  5 active torsions:
REMARK  status: ('A' for Active; 'I' for Inactive)
REMARK    1  A    between atoms: C_2  and  S_1 
REMARK    2  A    between atoms: N_4  and  S_1 
REMARK    3  A    between atoms: C_11  and  N_4 
REMARK    4  A    between atoms: O_13  and  C_5 
REMARK    5  A    between atoms: O_14  and  C_6 
ROOT
ATOM      1  C   UNL d   1     -39.261  14.194  17.709  0.00  0.00     0.141 A 
ATOM      2  C   UNL d   1     -38.810  13.502  17.721  0.00  0.00     0.040 A 
ATOM      3  C   UNL d   1     -39.290  14.647  17.034  0.00  0.00     0.107 A 
ATOM      4  C   UNL d   1     -38.392  13.269  17.059  0.00  0.00     0.095 A 
ATOM      5  C   UNL d   1     -38.874  14.422  16.363  0.00  0.00     0.027 A 
ATOM      6  C   UNL d   1     -38.423  13.730  16.375  0.00  0.00     0.024 A 
ATOM      7  C   UNL d   1     -37.999  13.500  15.697  0.00  0.00     0.002 C 
ENDROOT
BRANCH   1   8
ATOM      8  S   UNL d   1     -39.678  14.418  18.380  0.00  0.00     0.329 S 
ATOM      9  O   UNL d   1     -39.014  14.816  18.657  0.00  0.00    -0.186 OA
ATOM     10  O   UNL d   1     -40.343  14.026  18.114  0.00  0.00    -0.186 OA
BRANCH   8  11
ATOM     11  N   UNL d   1     -40.089  14.648  19.058  0.00  0.00    -0.316 NA
BRANCH  11  12
ATOM     12  C   UNL d   1     -40.497  14.882  19.740  0.00  0.00     0.165 A 
ATOM     13  C   UNL d   1     -40.775  14.317  20.262  0.00  0.00     0.132 A 
ATOM     14  N   UNL d   1     -41.183  14.552  20.944  0.00  0.00    -0.240 NA
ATOM     15  C   UNL d   1     -41.311  15.352  21.100  0.00  0.00     0.099 A 
ATOM     16  C   UNL d   1     -41.027  15.918  20.568  0.00  0.00     0.023 A 
ATOM     17  C   UNL d   1     -40.620  15.693  19.888  0.00  0.00     0.036 A 
ENDBRANCH  11  12
ENDBRANCH   8  11
ENDBRANCH   1   8
BRANCH   3  18
ATOM     18  O   UNL d   1     -39.741  15.339  17.021  0.00  0.00    -0.327 OA
ATOM     19  C   UNL d   1     -39.712  15.839  16.357  0.00  0.00     0.181 C 
ENDBRANCH   3  18
BRANCH   4  20
ATOM     20  O   UNL d   1     -37.941  12.577  17.071  0.00  0.00    -0.328 OA
ATOM     21  C   UNL d   1     -38.115  11.979  17.613  0.00  0.00     0.181 C 
ENDBRANCH   4  20
TORSDOF 5
ENDMDL
MODEL 6
REMARK VINA RESULT:      -5.6      1.935      4.567
REMARK  5 active torsions:
REMARK  status: ('A' for Active; 'I' for Inactive)
REMARK    1  A    between atoms: C_2  and  S_1 
REMARK    2  A    between atoms: N_4  and  S_1 
REMARK    3  A    between atoms: C_11  and  N_4 
REMARK    4  A    between atoms: O_13  and  C_5 
REMARK    5  A    between atoms: O_14  and  C_6 
ROOT
ATOM      1  C   UNL d   1     -47.265  12.873  22.802  0.00  0.00     0.141 A 
ATOM      2  C   UNL d   1     -47.979  12.532  22.563  0.00  0.00     0.040 A 
ATOM      3  C   UNL d   1     -47.218  13.676  22.917  0.00  0.00     0.107 A 
ATOM      4  C   UNL d   1     -48.640  12.998  22.443  0.00  0.00     0.095 A 
ATOM      5  C   UNL d   1     -47.876  14.154  22.799  0.00  0.00     0.027 A 
ATOM      6  C   UNL d   1     -48.589  13.813  22.561  0.00  0.00     0.024 A 
ATOM      7  C   UNL d   1     -49.258  14.294  22.440  0.00  0.00     0.002 C 
ENDROOT
BRANCH   1   8
ATOM      8  S   UNL d   1     -46.607  12.395  22.920  0.00  0.00     0.329 S 
ATOM      9  O   UNL d   1     -46.847  12.258  23.694  0.00  0.00    -0.186 OA
ATOM     10  O   UNL d   1     -46.360  12.524  22.152  0.00  0.00    -0.186 OA
BRANCH   8  11
ATOM     11  N   UNL d   1     -45.950  11.913  23.047  0.00  0.00    -0.316 NA
BRANCH  11  12
ATOM     12  C   UNL d   1     -45.287  11.433  23.179  0.00  0.00     0.165 A 
ATOM     13  C   UNL d   1     -44.549  11.681  22.928  0.00  0.00     0.132 A 
ATOM     14  N   UNL d   1     -43.887  11.200  23.061  0.00  0.00    -0.240 NA
ATOM     15  C   UNL d   1     -43.967  10.474  23.444  0.00  0.00     0.099 A 
ATOM     16  C   UNL d   1     -44.717  10.229  23.695  0.00  0.00     0.023 A 
ATOM     17  C   UNL d   1     -45.380  10.701  23.567  0.00  0.00     0.036 A 
ENDBRANCH  11  12
ENDBRANCH   8  11
ENDBRANCH   1   8
BRANCH   3  18
ATOM     18  O   UNL d   1     -46.504  14.018  23.156  0.00  0.00    -0.327 OA
ATOM     19  C   UNL d   1     -46.336  14.807  22.956  0.00  0.00     0.181 C 
ENDBRANCH   3  18
BRANCH   4  20
ATOM     20  O   UNL d   1     -49.353  12.657  22.204  0.00  0.00    -0.328 OA
ATOM     21  C   UNL d   1     -49.640  11.985  22.588  0.00  0.00     0.181 C 
ENDBRANCH   4  20
TORSDOF 5
ENDMDL
MODEL 7
REMARK VINA RESULT:      -4.8      8.314      9.792
REMARK  5 active torsions:
REMARK  status: ('A' for Active; 'I' for Inactive)
REMARK    1  A    between atoms: C_2  and  S_1 
REMARK    2  A    between atoms: N_4  and  S_1 
REMARK    3  A    between atoms: C_11  and  N_4 
REMARK    4  A    between atoms: O_13  and  C_5 
REMARK    5  A    between atoms: O_14  and  C_6 
ROOT
ATOM      1  C   UNL d   1     -39.760  14.634  19.742  0.00  0.00     0.141 A 
ATOM      2  C   UNL d   1     -39.446  14.399  19.015  0.00  0.00     0.040 A 
ATOM      3  C   UNL d   1     -40.389  15.148  19.764  0.00  0.00     0.107 A 
ATOM      4  C   UNL d   1     -39.764  14.679  18.316  0.00  0.00     0.095 A 
ATOM      5  C   UNL d   1     -40.717  15.436  19.068  0.00  0.00     0.027 A 
ATOM      6  C   UNL d   1     -40.404  15.200  18.342  0.00  0.00     0.024 A 
ATOM      7  C   UNL d   1     -40.734  15.490  17.635  0.00  0.00     0.002 C 
ENDROOT
BRANCH   1   8
ATOM      8  S   UNL d   1     -39.431  14.346  20.438  0.00  0.00     0.329 S 
ATOM      9  O   UNL d   1     -40.013  13.768  20.472  0.00  0.00    -0.186 OA
ATOM     10  O   UNL d   1     -38.848  14.918  20.413  0.00  0.00    -0.186 OA
BRANCH   8  11
ATOM     11  N   UNL d   1     -39.107  14.051  21.136  0.00  0.00    -0.316 NA
BRANCH  11  12
ATOM     12  C   UNL d   1     -38.778  13.750  21.835  0.00  0.00     0.165 A 
ATOM     13  C   UNL d   1     -38.270  13.109  21.802  0.00  0.00     0.132 A 
ATOM     14  N   UNL d   1     -37.941  12.809  22.501  0.00  0.00    -0.240 NA
ATOM     15  C   UNL d   1     -38.123  13.151  23.230  0.00  0.00     0.099 A 
ATOM     16  C   UNL d   1     -38.637  13.798  23.256  0.00  0.00     0.023 A 
ATOM     17  C   UNL d   1     -38.968  14.103  22.565  0.00  0.00     0.036 A 
ENDBRANCH  11  12
ENDBRANCH   8  11
ENDBRANCH   1   8
BRANCH   3  18
ATOM     18  O   UNL d   1     -40.703  15.385  20.491  0.00  0.00    -0.327 OA
ATOM     19  C   UNL d   1     -41.339  15.921  20.512  0.00  0.00     0.181 C 
ENDBRANCH   3  18
BRANCH   4  20
ATOM     20  O   UNL d   1     -39.451  14.443  17.590  0.00  0.00    -0.328 OA
ATOM     21  C   UNL d   1     -39.207  13.662  17.477  0.00  0.00     0.181 C 
ENDBRANCH   4  20
TORSDOF 5
ENDMDL
MODEL 8
REMARK VINA RESULT:      -4.8      8.216      9.407
REMARK  5 active torsions:
REMARK  status: ('A' for Active; 'I' for Inactive)
REMARK    1  A    between atoms: C_2  and  S_1 
REMARK    2  A    between atoms: N_4  and  S_1 
REMARK    3  A    between atoms: C_11  and  N_4 
REMARK    4  A    between atoms: O_13  and  C_5 
REMARK    5  A    between atoms: O_14  and  C_6 
ROOT
ATOM      1  C   UNL d   1     -39.658  14.825  20.090  0.00  0.00     0.141 A 
ATOM      2  C   UNL d   1     -38.985  14.371  20.240  0.00  0.00     0.040 A 
ATOM      3  C   UNL d   1     -40.120  15.081  20.708  0.00  0.00     0.107 A 
ATOM      4  C   UNL d   1     -38.779  14.176  21.006  0.00  0.00     0.095 A 
ATOM      5  C   UNL d   1     -39.923  14.892  21.482  0.00  0.00     0.027 A 
ATOM      6  C   UNL d   1     -39.249  14.437  21.632  0.00  0.00     0.024 A 
ATOM      7  C   UNL d   1     -39.047  14.244  22.416  0.00  0.00     0.002 C 
ENDROOT
BRANCH   1   8
ATOM      8  S   UNL d   1     -39.855  15.014  19.315  0.00  0.00     0.329 S 
ATOM      9  O   UNL d   1     -40.275  14.311  19.251  0.00  0.00    -0.186 OA
ATOM     10  O   UNL d   1     -39.439  15.716  19.368  0.00  0.00    -0.186 OA
BRANCH   8  11
ATOM     11  N   UNL d   1     -40.057  15.197  18.536  0.00  0.00    -0.316 NA
BRANCH  11  12
ATOM     12  C   UNL d   1     -40.254  15.378  17.752  0.00  0.00     0.165 A 
ATOM     13  C   UNL d   1     -40.999  15.195  17.468  0.00  0.00     0.132 A 
ATOM     14  N   UNL d   1     -41.196  15.377  16.683  0.00  0.00    -0.240 NA
ATOM     15  C   UNL d   1     -40.645  15.741  16.187  0.00  0.00     0.099 A 
ATOM     16  C   UNL d   1     -39.894  15.922  16.481  0.00  0.00     0.023 A 
ATOM     17  C   UNL d   1     -39.691  15.745  17.260  0.00  0.00     0.036 A 
ENDBRANCH  11  12
ENDBRANCH   8  11
ENDBRANCH   1   8
BRANCH   3  18
ATOM     18  O   UNL d   1     -40.794  15.535  20.558  0.00  0.00    -0.327 OA
ATOM     19  C   UNL d   1     -41.218  15.867  21.192  0.00  0.00     0.181 C 
ENDBRANCH   3  18
BRANCH   4  20
ATOM     20  O   UNL d   1     -38.105  13.722  21.156  0.00  0.00    -0.328 OA
ATOM     21  C   UNL d   1     -37.940  13.061  20.691  0.00  0.00     0.181 C 
ENDBRANCH   4  20
TORSDOF 5
ENDMDL
