MODEL 1
REMARK VINA RESULT:     100.6      0.000      0.000
REMARK  5 active torsions:
REMARK  status: ('A' for Active; 'I' for Inactive)
REMARK    1  A    between atoms: N_5  and  S_1 
REMARK    2  A    between atoms: C_9  and  S_1 
REMARK    3  A    between atoms: C_2  and  N_4 
REMARK    4  A    between atoms: C_7  and  C_3 
REMARK       I    between atoms: N_4  and  C_6 
REMARK    5  A    between atoms: C_6  and  C_14 
ROOT
ATOM      1  C   UNL d   1      61.321  46.599  50.417  0.00  0.00     0.104 A 
ATOM      2  C   UNL d   1      61.741  45.046  50.048  0.00  0.00     0.058 A 
ATOM      3  C   UNL d   1      61.726  46.433  49.715  0.00  0.00     0.013 A 
ATOM      4  C   UNL d   1      61.129  45.987  50.929  0.00  0.00     0.013 A 
ATOM      5  C   UNL d   1      61.933  45.658  49.536  0.00  0.00     0.005 A 
ATOM      6  C   UNL d   1      61.336  45.213  50.750  0.00  0.00     0.005 A 
ENDROOT
BRANCH   2   7
ATOM      7  C   UNL d   1      61.951  44.265  49.865  0.00  0.00     0.280 C 
ATOM      8  N   UNL d   1      62.308  43.789  50.435  0.00  0.00    -0.201 NA
ATOM      9  O   UNL d   1      61.798  43.979  49.119  0.00  0.00    -0.265 OA
BRANCH   8  10
ATOM     10  C   UNL d   1      62.514  43.015  50.247  0.00  0.00     0.119 A 
ATOM     11  C   UNL d   1      62.610  42.395  50.786  0.00  0.00     0.084 A 
ATOM     12  C   UNL d   1      62.817  41.714  50.357  0.00  0.00     0.014 A 
ATOM     13  C   UNL d   1      62.847  41.920  49.558  0.00  0.00     0.037 A 
ATOM     14  S   UNL d   1      62.660  42.719  49.497  0.00  0.00    -0.067 SA
BRANCH  11  15
ATOM     15  C   UNL d   1      62.519  42.437  51.603  0.00  0.00     0.299 C 
ATOM     16  O   UNL d   1      63.158  42.679  52.072  0.00  0.00    -0.264 OA
ATOM     17  N   UNL d   1      61.798  42.239  51.953  0.00  0.00    -0.102 N 
ENDBRANCH  11  15
ENDBRANCH   8  10
ENDBRANCH   2   7
BRANCH   1  18
ATOM     18  S   UNL d   1      61.115  47.374  50.597  0.00  0.00     0.271 S 
ATOM     19  O   UNL d   1      60.634  47.104  51.216  0.00  0.00    -0.200 OA
ATOM     20  O   UNL d   1      61.590  47.643  49.984  0.00  0.00    -0.200 OA
BRANCH  18  21
ATOM     21  N   UNL d   1      60.908  48.152  50.776  0.00  0.00    -0.229 N 
ATOM     22  C   UNL d   1      60.685  48.670  50.175  0.00  0.00     0.092 A 
ATOM     23  C   UNL d   1      60.477  49.452  50.357  0.00  0.00     0.020 A 
ATOM     24  C   UNL d   1      60.494  49.708  51.134  0.00  0.00     0.003 A 
ATOM     25  C   UNL d   1      60.717  49.192  51.741  0.00  0.00     0.020 A 
ATOM     26  C   UNL d   1      60.923  48.417  51.563  0.00  0.00     0.092 A 
ENDBRANCH  18  21
ENDBRANCH   1  18
TORSDOF 5
ENDMDL
MODEL 2
REMARK VINA RESULT:     101.7      0.957      5.389
REMARK  5 active torsions:
REMARK  status: ('A' for Active; 'I' for Inactive)
REMARK    1  A    between atoms: N_5  and  S_1 
REMARK    2  A    between atoms: C_9  and  S_1 
REMARK    3  A    between atoms: C_2  and  N_4 
REMARK    4  A    between atoms: C_7  and  C_3 
REMARK       I    between atoms: N_4  and  C_6 
REMARK    5  A    between atoms: C_6  and  C_14 
ROOT
ATOM      1  C   UNL d   1      61.921  44.807  50.413  0.00  0.00     0.104 A 
ATOM      2  C   UNL d   1      61.431  46.363  50.159  0.00  0.00     0.058 A 
ATOM      3  C   UNL d   1      62.260  45.256  49.806  0.00  0.00     0.013 A 
ATOM      4  C   UNL d   1      61.340  45.139  50.888  0.00  0.00     0.013 A 
ATOM      5  C   UNL d   1      62.012  46.031  49.684  0.00  0.00     0.005 A 
ATOM      6  C   UNL d   1      61.093  45.912  50.766  0.00  0.00     0.005 A 
ENDROOT
BRANCH   2   7
ATOM      7  C   UNL d   1      61.183  47.144  50.034  0.00  0.00     0.280 C 
ATOM      8  N   UNL d   1      61.098  47.657  50.673  0.00  0.00    -0.201 NA
ATOM      9  O   UNL d   1      61.026  47.392  49.277  0.00  0.00    -0.265 OA
BRANCH   8  10
ATOM     10  C   UNL d   1      60.852  48.431  50.543  0.00  0.00     0.119 A 
ATOM     11  C   UNL d   1      60.747  49.010  51.124  0.00  0.00     0.084 A 
ATOM     12  C   UNL d   1      60.495  49.708  50.747  0.00  0.00     0.014 A 
ATOM     13  C   UNL d   1      60.447  49.551  49.937  0.00  0.00     0.037 A 
ATOM     14  S   UNL d   1      60.668  48.767  49.819  0.00  0.00    -0.067 SA
BRANCH  11  15
ATOM     15  C   UNL d   1      60.867  48.921  51.933  0.00  0.00     0.299 C 
ATOM     16  O   UNL d   1      60.429  48.355  52.350  0.00  0.00    -0.264 OA
ATOM     17  N   UNL d   1      61.420  49.391  52.327  0.00  0.00    -0.102 N 
ENDBRANCH  11  15
ENDBRANCH   8  10
ENDBRANCH   2   7
BRANCH   1  18
ATOM     18  S   UNL d   1      62.169  44.033  50.535  0.00  0.00     0.271 S 
ATOM     19  O   UNL d   1      61.614  43.951  51.146  0.00  0.00    -0.200 OA
ATOM     20  O   UNL d   1      62.718  44.113  49.930  0.00  0.00    -0.200 OA
BRANCH  18  21
ATOM     21  N   UNL d   1      62.418  43.256  50.657  0.00  0.00    -0.229 N 
ATOM     22  C   UNL d   1      62.843  42.861  50.072  0.00  0.00     0.092 A 
ATOM     23  C   UNL d   1      63.092  42.080  50.196  0.00  0.00     0.020 A 
ATOM     24  C   UNL d   1      62.916  41.702  50.900  0.00  0.00     0.003 A 
ATOM     25  C   UNL d   1      62.489  42.095  51.490  0.00  0.00     0.020 A 
ATOM     26  C   UNL d   1      62.241  42.868  51.370  0.00  0.00     0.092 A 
ENDBRANCH  18  21
ENDBRANCH   1  18
TORSDOF 5
ENDMDL
