MODEL 1
REMARK VINA RESULT:       6.8      0.000      0.000
REMARK  0 active torsions:
REMARK  status: ('A' for Active; 'I' for Inactive)
ROOT
ATOM      1  N   UNL d   1     -51.023  25.416  33.312  0.00  0.00    -0.273 N 
ATOM      2  C   UNL d   1     -51.835  25.429  33.309  0.00  0.00     0.068 A 
ATOM      3  C   UNL d   1     -50.598  26.129  33.313  0.00  0.00     0.265 A 
ATOM      4  C   UNL d   1     -52.252  24.718  33.308  0.00  0.00     0.035 A 
ATOM      5  C   UNL d   1     -50.621  24.692  33.314  0.00  0.00     0.085 A 
ATOM      6  C   UNL d   1     -52.229  26.155  33.306  0.00  0.00     0.018 A 
ATOM      7  N   UNL d   1     -52.235  23.195  33.309  0.00  0.00    -0.242 NA
ATOM      8  C   UNL d   1     -51.858  23.993  33.310  0.00  0.00     0.006 A 
ATOM      9  C   UNL d   1     -51.046  23.980  33.313  0.00  0.00     0.037 A 
ATOM     10  C   UNL d   1     -51.812  26.870  33.308  0.00  0.00     0.006 A 
ATOM     11  C   UNL d   1     -51.000  26.857  33.311  0.00  0.00     0.061 A 
ATOM     12  O   UNL d   1     -49.783  26.112  33.316  0.00  0.00    -0.267 OA
ATOM     13  C   UNL d   1     -52.654  24.000  33.307  0.00  0.00     0.100 A 
ATOM     14  C   UNL d   1     -51.413  23.245  33.313  0.00  0.00     0.100 A 
ENDROOT
TORSDOF 0
ENDMDL
