MODEL 1
REMARK VINA RESULT:      56.5      0.000      0.000
REMARK  7 active torsions:
REMARK  status: ('A' for Active; 'I' for Inactive)
REMARK    1  A    between atoms: C_2  and  N_1 
REMARK    2  A    between atoms: C_4  and  C_2 
REMARK    3  A    between atoms: O_3  and  C_9 
REMARK    4  A    between atoms: C_7  and  O_3 
REMARK    5  A    between atoms: C_9  and  C_4 
REMARK    6  A    between atoms: C_10  and  C_12 
REMARK    7  A    between atoms: C_17  and  C_10 
ROOT
ATOM      1  N   UNL d   1     -49.629  27.368  33.852  0.00  0.00    -0.300 N 
ATOM      2  C   UNL d   1     -48.858  27.337  33.664  0.00  0.00     0.080 A 
ATOM      3  C   UNL d   1     -49.885  27.736  34.571  0.00  0.00     0.080 A 
ATOM      4  C   UNL d   1     -48.519  28.025  34.866  0.00  0.00     0.003 A 
ATOM      5  C   UNL d   1     -48.293  27.667  34.172  0.00  0.00     0.019 A 
ATOM      6  C   UNL d   1     -49.316  28.062  35.072  0.00  0.00     0.019 A 
ENDROOT
BRANCH   1   7
ATOM      7  C   UNL d   1     -50.179  27.018  33.306  0.00  0.00     0.125 C 
BRANCH   7   8
ATOM      8  C   UNL d   1     -51.015  27.175  33.369  0.00  0.00     0.238 C 
ATOM      9  O   UNL d   1     -51.291  27.942  33.480  0.00  0.00    -0.283 OA
BRANCH   8  10
ATOM     10  C   UNL d   1     -51.541  26.543  33.315  0.00  0.00     0.166 C 
BRANCH  10  11
ATOM     11  O   UNL d   1     -51.493  25.913  33.843  0.00  0.00    -0.302 OA
BRANCH  11  12
ATOM     12  C   UNL d   1     -51.964  25.228  33.710  0.00  0.00     0.100 A 
ATOM     13  C   UNL d   1     -52.809  25.267  33.792  0.00  0.00     0.026 A 
ATOM     14  C   UNL d   1     -53.274  24.598  33.662  0.00  0.00     0.013 A 
ATOM     15  C   UNL d   1     -52.923  23.888  33.453  0.00  0.00     0.058 A 
ATOM     16  C   UNL d   1     -52.098  23.834  33.368  0.00  0.00     0.013 A 
ATOM     17 CL   UNL d   1     -53.404  23.197  33.319  0.00  0.00    -0.082 Cl
ATOM     18  C   UNL d   1     -51.630  24.499  33.497  0.00  0.00     0.026 A 
ENDBRANCH  11  12
ENDBRANCH  10  11
ENDBRANCH   8  10
ENDBRANCH   7   8
ENDBRANCH   1   7
BRANCH   4  19
ATOM     19  C   UNL d   1     -47.907  28.369  35.391  0.00  0.00     0.000 C 
BRANCH  19  20
ATOM     20  C   UNL d   1     -47.793  29.194  35.405  0.00  0.00     0.000 A 
ATOM     21  C   UNL d   1     -47.639  29.608  34.722  0.00  0.00     0.000 A 
ATOM     22  C   UNL d   1     -47.527  30.436  34.747  0.00  0.00     0.000 A 
ATOM     23  C   UNL d   1     -47.575  30.821  35.472  0.00  0.00     0.000 A 
ATOM     24  C   UNL d   1     -47.729  30.407  36.154  0.00  0.00     0.000 A 
ATOM     25  C   UNL d   1     -47.839  29.597  36.132  0.00  0.00     0.000 A 
ENDBRANCH  19  20
ENDBRANCH   4  19
TORSDOF 7
ENDMDL
