MODEL 1
REMARK VINA RESULT:      35.1      0.000      0.000
REMARK  7 active torsions:
REMARK  status: ('A' for Active; 'I' for Inactive)
REMARK    1  A    between atoms: C_7  and  C_1 
REMARK    2  A    between atoms: C_8  and  C_3 
REMARK    3  A    between atoms: O_17  and  C_7 
REMARK    4  A    between atoms: N_11  and  C_10 
REMARK    5  A    between atoms: C_19  and  N_11 
REMARK    6  A    between atoms: C_20  and  N_11 
REMARK    7  A    between atoms: C_21  and  O_17 
ROOT
ATOM      1  C   UNL d   1      13.621  13.645  -3.740  0.00  0.00     0.099 A 
ATOM      2  C   UNL d   1      13.462  14.074  -4.411  0.00  0.00     0.093 A 
ATOM      3  C   UNL d   1      14.047  13.989  -3.107  0.00  0.00     0.093 A 
ATOM      4  C   UNL d   1      14.152  15.197  -3.832  0.00  0.00     0.369 A 
ATOM      5  N   UNL d   1      13.725  14.853  -4.466  0.00  0.00    -0.191 NA
ATOM      6  N   UNL d   1      14.309  14.755  -3.154  0.00  0.00    -0.191 NA
ATOM      7  O   UNL d   1      14.416  15.989  -3.895  0.00  0.00    -0.242 OA
ATOM      8  C   UNL d   1      13.041  13.735  -5.036  0.00  0.00     0.021 C 
ENDROOT
BRANCH   3   9
ATOM      9  C   UNL d   1      14.204  13.546  -2.428  0.00  0.00     0.018 A 
ATOM     10  C   UNL d   1      14.245  13.918  -1.693  0.00  0.00     0.003 A 
ATOM     11  C   UNL d   1      14.402  13.476  -1.016  0.00  0.00     0.018 A 
ATOM     12  C   UNL d   1      14.519  12.662  -1.058  0.00  0.00     0.064 A 
ATOM     13  C   UNL d   1      14.478  12.291  -1.792  0.00  0.00     0.018 A 
ATOM     14  C   UNL d   1      14.321  12.733  -2.470  0.00  0.00     0.003 A 
BRANCH  12  15
ATOM     15  N   UNL d   1      14.679  12.219  -0.357  0.00  0.00    -0.304 N 
BRANCH  15  16
ATOM     16  C   UNL d   1      15.428  12.224  -0.024  0.00  0.00     0.080 C 
ATOM     17  C   UNL d   1      16.056  11.861  -0.408  0.00  0.00     0.021 C 
ENDBRANCH  15  16
BRANCH  15  18
ATOM     18  C   UNL d   1      14.077  11.786  -0.019  0.00  0.00     0.080 C 
ATOM     19  C   UNL d   1      13.304  11.967  -0.201  0.00  0.00     0.021 C 
ENDBRANCH  15  18
ENDBRANCH  12  15
ENDBRANCH   3   9
BRANCH   1  20
ATOM     20  C   UNL d   1      13.348  12.846  -3.689  0.00  0.00     0.303 C 
ATOM     21  O   UNL d   1      12.771  12.647  -3.135  0.00  0.00    -0.259 OA
BRANCH  20  22
ATOM     22  O   UNL d   1      13.657  12.269  -4.187  0.00  0.00    -0.271 OA
BRANCH  22  23
ATOM     23  C   UNL d   1      13.154  11.835  -4.677  0.00  0.00     0.126 C 
ATOM     24  C   UNL d   1      13.268  11.840  -5.495  0.00  0.00     0.029 C 
ENDBRANCH  22  23
ENDBRANCH  20  22
ENDBRANCH   1  20
TORSDOF 7
ENDMDL
MODEL 2
REMARK VINA RESULT:      36.8      1.694      3.720
REMARK  7 active torsions:
REMARK  status: ('A' for Active; 'I' for Inactive)
REMARK    1  A    between atoms: C_7  and  C_1 
REMARK    2  A    between atoms: C_8  and  C_3 
REMARK    3  A    between atoms: O_17  and  C_7 
REMARK    4  A    between atoms: N_11  and  C_10 
REMARK    5  A    between atoms: C_19  and  N_11 
REMARK    6  A    between atoms: C_20  and  N_11 
REMARK    7  A    between atoms: C_21  and  O_17 
ROOT
ATOM      1  C   UNL d   1      14.964  14.819  -1.265  0.00  0.00     0.099 A 
ATOM      2  C   UNL d   1      15.277  15.306  -0.696  0.00  0.00     0.093 A 
ATOM      3  C   UNL d   1      14.562  15.140  -1.926  0.00  0.00     0.093 A 
ATOM      4  C   UNL d   1      14.794  16.444  -1.434  0.00  0.00     0.369 A 
ATOM      5  N   UNL d   1      15.196  16.123  -0.774  0.00  0.00    -0.191 NA
ATOM      6  N   UNL d   1      14.479  15.943  -2.008  0.00  0.00    -0.191 NA
ATOM      7  O   UNL d   1      14.715  17.274  -1.505  0.00  0.00    -0.242 OA
ATOM      8  C   UNL d   1      15.674  14.990  -0.045  0.00  0.00     0.021 C 
ENDROOT
BRANCH   3   9
ATOM      9  C   UNL d   1      14.246  14.637  -2.500  0.00  0.00     0.018 A 
ATOM     10  C   UNL d   1      13.698  14.060  -2.287  0.00  0.00     0.003 A 
ATOM     11  C   UNL d   1      13.383  13.559  -2.861  0.00  0.00     0.018 A 
ATOM     12  C   UNL d   1      13.608  13.623  -3.650  0.00  0.00     0.064 A 
ATOM     13  C   UNL d   1      14.156  14.201  -3.863  0.00  0.00     0.018 A 
ATOM     14  C   UNL d   1      14.471  14.702  -3.289  0.00  0.00     0.003 A 
BRANCH  12  15
ATOM     15  N   UNL d   1      13.279  13.105  -4.229  0.00  0.00    -0.304 N 
BRANCH  15  16
ATOM     16  C   UNL d   1      13.403  13.241  -5.027  0.00  0.00     0.080 C 
ATOM     17  C   UNL d   1      13.753  12.666  -5.498  0.00  0.00     0.021 C 
ENDBRANCH  15  16
BRANCH  15  18
ATOM     18  C   UNL d   1      12.836  12.466  -3.981  0.00  0.00     0.080 C 
ATOM     19  C   UNL d   1      12.831  11.786  -4.428  0.00  0.00     0.021 C 
ENDBRANCH  15  18
ENDBRANCH  12  15
ENDBRANCH   3   9
BRANCH   1  20
ATOM     20  C   UNL d   1      15.050  13.981  -1.182  0.00  0.00     0.303 C 
ATOM     21  O   UNL d   1      15.595  13.579  -1.653  0.00  0.00    -0.259 OA
BRANCH  20  22
ATOM     22  O   UNL d   1      14.594  13.569  -0.636  0.00  0.00    -0.271 OA
BRANCH  22  23
ATOM     23  C   UNL d   1      14.795  12.796  -0.430  0.00  0.00     0.126 C 
ATOM     24  C   UNL d   1      14.256  12.325  -0.017  0.00  0.00     0.029 C 
ENDBRANCH  22  23
ENDBRANCH  20  22
ENDBRANCH   1  20
TORSDOF 7
ENDMDL
