MODEL 1
REMARK VINA RESULT:      -9.0      0.000      0.000
REMARK  5 active torsions:
REMARK  status: ('A' for Active; 'I' for Inactive)
REMARK    1  A    between atoms: S_2  and  C_1 
REMARK    2  A    between atoms: C_7  and  S_2 
REMARK    3  A    between atoms: N_8  and  C_5 
REMARK    4  A    between atoms: C_14  and  N_8 
REMARK    5  A    between atoms: O_23  and  C_15 
ROOT
ATOM      1  C   UNL d   1      52.076  33.612  52.988  0.00  0.00     0.187 A 
ATOM      2  N   UNL d   1      52.391  32.871  52.846  0.00  0.00    -0.208 NA
ATOM      3  C   UNL d   1      52.616  34.057  53.409  0.00  0.00     0.118 A 
ATOM      4  C   UNL d   1      53.141  32.846  53.183  0.00  0.00     0.196 A 
ATOM      5  S   UNL d   1      53.288  33.573  53.533  0.00  0.00    -0.035 SA
ATOM      6 CL   UNL d   1      52.504  34.851  53.665  0.00  0.00    -0.073 Cl
ENDROOT
BRANCH   1   7
ATOM      7  S   UNL d   1      51.329  33.923  52.762  0.00  0.00     0.228 S 
ATOM      8  O   UNL d   1      51.702  34.265  52.101  0.00  0.00    -0.216 OA
ATOM      9  O   UNL d   1      50.980  33.572  53.428  0.00  0.00    -0.216 OA
BRANCH   7  10
ATOM     10  C   UNL d   1      50.604  34.224  52.543  0.00  0.00     0.089 A 
ATOM     11  C   UNL d   1      50.108  34.608  53.094  0.00  0.00     0.011 A 
ATOM     12  C   UNL d   1      49.378  34.909  52.863  0.00  0.00     0.001 A 
ATOM     13  C   UNL d   1      49.114  34.839  52.076  0.00  0.00     0.000 A 
ATOM     14  C   UNL d   1      49.615  34.452  51.522  0.00  0.00     0.001 A 
ATOM     15  C   UNL d   1      48.387  35.138  51.843  0.00  0.00     0.000 C 
ATOM     16  C   UNL d   1      50.337  34.152  51.743  0.00  0.00     0.011 A 
ENDBRANCH   7  10
ENDBRANCH   1   7
BRANCH   4  17
ATOM     17  N   UNL d   1      53.723  32.259  53.224  0.00  0.00    -0.221 NA
BRANCH  17  18
ATOM     18  C   UNL d   1      53.513  31.486  53.416  0.00  0.00     0.084 A 
ATOM     19  C   UNL d   1      53.570  31.229  54.201  0.00  0.00     0.021 A 
ATOM     20  C   UNL d   1      53.366  30.467  54.405  0.00  0.00     0.026 A 
ATOM     21  C   UNL d   1      53.102  29.951  53.823  0.00  0.00     0.094 A 
ATOM     22  C   UNL d   1      53.044  30.207  53.027  0.00  0.00     0.026 A 
ATOM     23  C   UNL d   1      53.249  30.967  52.833  0.00  0.00     0.021 A 
BRANCH  21  24
ATOM     24  O   UNL d   1      52.897  29.182  54.026  0.00  0.00    -0.328 OA
ATOM     25  C   UNL d   1      53.298  28.807  54.652  0.00  0.00     0.181 C 
ENDBRANCH  21  24
ENDBRANCH  17  18
ENDBRANCH   4  17
TORSDOF 5
ENDMDL
MODEL 2
REMARK VINA RESULT:      -8.4      1.326      4.873
REMARK  5 active torsions:
REMARK  status: ('A' for Active; 'I' for Inactive)
REMARK    1  A    between atoms: S_2  and  C_1 
REMARK    2  A    between atoms: C_7  and  S_2 
REMARK    3  A    between atoms: N_8  and  C_5 
REMARK    4  A    between atoms: C_14  and  N_8 
REMARK    5  A    between atoms: O_23  and  C_15 
ROOT
ATOM      1  C   UNL d   1      53.259  32.465  53.562  0.00  0.00     0.187 A 
ATOM      2  N   UNL d   1      52.604  32.945  53.469  0.00  0.00    -0.208 NA
ATOM      3  C   UNL d   1      53.935  32.907  53.439  0.00  0.00     0.118 A 
ATOM      4  C   UNL d   1      52.868  33.702  53.285  0.00  0.00     0.196 A 
ATOM      5  S   UNL d   1      53.689  33.689  53.265  0.00  0.00    -0.035 SA
ATOM      6 CL   UNL d   1      54.725  32.619  53.484  0.00  0.00    -0.073 Cl
ENDROOT
BRANCH   1   7
ATOM      7  S   UNL d   1      53.295  31.648  53.751  0.00  0.00     0.228 S 
ATOM      8  O   UNL d   1      53.539  31.865  54.518  0.00  0.00    -0.216 OA
ATOM      9  O   UNL d   1      53.051  31.457  52.981  0.00  0.00    -0.216 OA
BRANCH   7  10
ATOM     10  C   UNL d   1      53.330  30.854  53.935  0.00  0.00     0.089 A 
ATOM     11  C   UNL d   1      53.368  30.270  53.340  0.00  0.00     0.011 A 
ATOM     12  C   UNL d   1      53.403  29.473  53.537  0.00  0.00     0.001 A 
ATOM     13  C   UNL d   1      53.402  29.226  54.331  0.00  0.00     0.000 A 
ATOM     14  C   UNL d   1      53.364  29.815  54.931  0.00  0.00     0.001 A 
ATOM     15  C   UNL d   1      53.436  28.431  54.530  0.00  0.00     0.000 C 
ATOM     16  C   UNL d   1      53.329  30.605  54.744  0.00  0.00     0.011 A 
ENDBRANCH   7  10
ENDBRANCH   1   7
BRANCH   4  17
ATOM     17  N   UNL d   1      52.478  34.415  53.130  0.00  0.00    -0.221 NA
BRANCH  17  18
ATOM     18  C   UNL d   1      51.712  34.407  52.828  0.00  0.00     0.084 A 
ATOM     19  C   UNL d   1      51.069  34.495  53.341  0.00  0.00     0.021 A 
ATOM     20  C   UNL d   1      50.305  34.489  53.055  0.00  0.00     0.026 A 
ATOM     21  C   UNL d   1      50.177  34.395  52.249  0.00  0.00     0.094 A 
ATOM     22  C   UNL d   1      50.827  34.306  51.726  0.00  0.00     0.026 A 
ATOM     23  C   UNL d   1      51.583  34.313  52.019  0.00  0.00     0.021 A 
BRANCH  21  24
ATOM     24  O   UNL d   1      49.409  34.388  51.959  0.00  0.00    -0.328 OA
ATOM     25  C   UNL d   1      49.286  34.389  51.135  0.00  0.00     0.181 C 
ENDBRANCH  21  24
ENDBRANCH  17  18
ENDBRANCH   4  17
TORSDOF 5
ENDMDL
MODEL 3
REMARK VINA RESULT:      -7.0      1.952      2.683
REMARK  5 active torsions:
REMARK  status: ('A' for Active; 'I' for Inactive)
REMARK    1  A    between atoms: S_2  and  C_1 
REMARK    2  A    between atoms: C_7  and  S_2 
REMARK    3  A    between atoms: N_8  and  C_5 
REMARK    4  A    between atoms: C_14  and  N_8 
REMARK    5  A    between atoms: O_23  and  C_15 
ROOT
ATOM      1  C   UNL d   1      52.595  32.859  53.302  0.00  0.00     0.187 A 
ATOM      2  N   UNL d   1      53.103  32.230  53.179  0.00  0.00    -0.208 NA
ATOM      3  C   UNL d   1      51.851  32.661  53.030  0.00  0.00     0.118 A 
ATOM      4  C   UNL d   1      52.674  31.624  52.825  0.00  0.00     0.196 A 
ATOM      5  S   UNL d   1      51.900  31.881  52.729  0.00  0.00    -0.035 SA
ATOM      6 CL   UNL d   1      51.172  33.157  53.054  0.00  0.00    -0.073 Cl
ENDROOT
BRANCH   1   7
ATOM      7  S   UNL d   1      52.754  33.610  53.645  0.00  0.00     0.228 S 
ATOM      8  O   UNL d   1      53.085  33.841  52.916  0.00  0.00    -0.216 OA
ATOM      9  O   UNL d   1      52.419  33.355  54.360  0.00  0.00    -0.216 OA
BRANCH   7  10
ATOM     10  C   UNL d   1      52.908  34.338  53.977  0.00  0.00     0.089 A 
ATOM     11  C   UNL d   1      52.802  35.044  53.546  0.00  0.00     0.011 A 
ATOM     12  C   UNL d   1      52.960  35.774  53.890  0.00  0.00     0.001 A 
ATOM     13  C   UNL d   1      53.231  35.829  54.676  0.00  0.00     0.000 A 
ATOM     14  C   UNL d   1      53.338  35.116  55.109  0.00  0.00     0.001 A 
ATOM     15  C   UNL d   1      53.389  36.555  55.022  0.00  0.00     0.000 C 
ATOM     16  C   UNL d   1      53.183  34.391  54.775  0.00  0.00     0.011 A 
ENDBRANCH   7  10
ENDBRANCH   1   7
BRANCH   4  17
ATOM     17  N   UNL d   1      52.875  30.863  52.570  0.00  0.00    -0.221 NA
BRANCH  17  18
ATOM     18  C   UNL d   1      53.031  30.273  53.123  0.00  0.00     0.084 A 
ATOM     19  C   UNL d   1      52.439  29.729  53.320  0.00  0.00     0.021 A 
ATOM     20  C   UNL d   1      52.580  29.140  53.865  0.00  0.00     0.026 A 
ATOM     21  C   UNL d   1      53.318  29.088  54.221  0.00  0.00     0.094 A 
ATOM     22  C   UNL d   1      53.920  29.637  54.025  0.00  0.00     0.026 A 
ATOM     23  C   UNL d   1      53.772  30.220  53.482  0.00  0.00     0.021 A 
BRANCH  21  24
ATOM     24  O   UNL d   1      53.461  28.495  54.771  0.00  0.00    -0.328 OA
ATOM     25  C   UNL d   1      53.337  28.652  55.579  0.00  0.00     0.181 C 
ENDBRANCH  21  24
ENDBRANCH  17  18
ENDBRANCH   4  17
TORSDOF 5
ENDMDL
MODEL 4
REMARK VINA RESULT:      -6.9      2.021      5.345
REMARK  5 active torsions:
REMARK  status: ('A' for Active; 'I' for Inactive)
REMARK    1  A    between atoms: S_2  and  C_1 
REMARK    2  A    between atoms: C_7  and  S_2 
REMARK    3  A    between atoms: N_8  and  C_5 
REMARK    4  A    between atoms: C_14  and  N_8 
REMARK    5  A    between atoms: O_23  and  C_15 
ROOT
ATOM      1  C   UNL d   1      51.497  34.022  52.937  0.00  0.00     0.187 A 
ATOM      2  N   UNL d   1      50.701  33.919  53.094  0.00  0.00    -0.208 NA
ATOM      3  C   UNL d   1      51.590  34.266  52.164  0.00  0.00     0.118 A 
ATOM      4  C   UNL d   1      50.283  34.101  52.409  0.00  0.00     0.196 A 
ATOM      5  S   UNL d   1      50.823  34.317  51.830  0.00  0.00    -0.035 SA
ATOM      6 CL   UNL d   1      52.323  34.432  51.786  0.00  0.00    -0.073 Cl
ENDROOT
BRANCH   1   7
ATOM      7  S   UNL d   1      52.156  33.910  53.446  0.00  0.00     0.228 S 
ATOM      8  O   UNL d   1      52.013  33.091  53.405  0.00  0.00    -0.216 OA
ATOM      9  O   UNL d   1      52.278  34.731  53.471  0.00  0.00    -0.216 OA
BRANCH   7  10
ATOM     10  C   UNL d   1      52.796  33.802  53.940  0.00  0.00     0.089 A 
ATOM     11  C   UNL d   1      53.018  34.381  54.498  0.00  0.00     0.011 A 
ATOM     12  C   UNL d   1      53.665  34.262  54.992  0.00  0.00     0.001 A 
ATOM     13  C   UNL d   1      54.115  33.563  54.949  0.00  0.00     0.000 A 
ATOM     14  C   UNL d   1      53.890  32.980  54.386  0.00  0.00     0.001 A 
ATOM     15  C   UNL d   1      54.760  33.442  55.440  0.00  0.00     0.000 C 
ATOM     16  C   UNL d   1      53.252  33.091  53.895  0.00  0.00     0.011 A 
ENDBRANCH   7  10
ENDBRANCH   1   7
BRANCH   4  17
ATOM     17  N   UNL d   1      49.477  34.104  52.223  0.00  0.00    -0.221 NA
BRANCH  17  18
ATOM     18  C   UNL d   1      49.012  34.756  52.417  0.00  0.00     0.084 A 
ATOM     19  C   UNL d   1      48.605  35.159  51.821  0.00  0.00     0.021 A 
ATOM     20  C   UNL d   1      48.141  35.806  51.998  0.00  0.00     0.026 A 
ATOM     21  C   UNL d   1      48.081  36.056  52.778  0.00  0.00     0.094 A 
ATOM     22  C   UNL d   1      48.492  35.650  53.385  0.00  0.00     0.026 A 
ATOM     23  C   UNL d   1      48.951  35.008  53.199  0.00  0.00     0.021 A 
BRANCH  21  24
ATOM     24  O   UNL d   1      47.614  36.707  52.959  0.00  0.00    -0.328 OA
ATOM     25  C   UNL d   1      46.816  36.590  53.166  0.00  0.00     0.181 C 
ENDBRANCH  21  24
ENDBRANCH  17  18
ENDBRANCH   4  17
TORSDOF 5
ENDMDL
MODEL 5
REMARK VINA RESULT:      -6.4      1.888      2.427
REMARK  5 active torsions:
REMARK  status: ('A' for Active; 'I' for Inactive)
REMARK    1  A    between atoms: S_2  and  C_1 
REMARK    2  A    between atoms: C_7  and  S_2 
REMARK    3  A    between atoms: N_8  and  C_5 
REMARK    4  A    between atoms: C_14  and  N_8 
REMARK    5  A    between atoms: O_23  and  C_15 
ROOT
ATOM      1  C   UNL d   1      51.070  33.875  52.829  0.00  0.00     0.187 A 
ATOM      2  N   UNL d   1      51.330  33.320  53.371  0.00  0.00    -0.208 NA
ATOM      3  C   UNL d   1      51.613  33.933  52.222  0.00  0.00     0.118 A 
ATOM      4  C   UNL d   1      52.048  33.021  53.103  0.00  0.00     0.196 A 
ATOM      5  S   UNL d   1      52.231  33.394  52.394  0.00  0.00    -0.035 SA
ATOM      6 CL   UNL d   1      51.551  34.442  51.555  0.00  0.00    -0.073 Cl
ENDROOT
BRANCH   1   7
ATOM      7  S   UNL d   1      50.371  34.341  52.841  0.00  0.00     0.228 S 
ATOM      8  O   UNL d   1      49.965  33.689  52.519  0.00  0.00    -0.216 OA
ATOM      9  O   UNL d   1      50.797  34.976  53.162  0.00  0.00    -0.216 OA
BRANCH   7  10
ATOM     10  C   UNL d   1      49.692  34.792  52.853  0.00  0.00     0.089 A 
ATOM     11  C   UNL d   1      49.181  34.826  52.194  0.00  0.00     0.011 A 
ATOM     12  C   UNL d   1      48.498  35.284  52.216  0.00  0.00     0.001 A 
ATOM     13  C   UNL d   1      48.299  35.726  52.893  0.00  0.00     0.000 A 
ATOM     14  C   UNL d   1      48.815  35.692  53.556  0.00  0.00     0.001 A 
ATOM     15  C   UNL d   1      47.619  36.184  52.917  0.00  0.00     0.000 C 
ATOM     16  C   UNL d   1      49.491  35.241  53.542  0.00  0.00     0.011 A 
ENDBRANCH   7  10
ENDBRANCH   1   7
BRANCH   4  17
ATOM     17  N   UNL d   1      52.572  32.456  53.402  0.00  0.00    -0.221 NA
BRANCH  17  18
ATOM     18  C   UNL d   1      53.242  32.696  53.817  0.00  0.00     0.084 A 
ATOM     19  C   UNL d   1      53.980  32.691  53.442  0.00  0.00     0.021 A 
ATOM     20  C   UNL d   1      54.651  32.926  53.841  0.00  0.00     0.026 A 
ATOM     21  C   UNL d   1      54.590  33.170  54.623  0.00  0.00     0.094 A 
ATOM     22  C   UNL d   1      53.845  33.176  55.006  0.00  0.00     0.026 A 
ATOM     23  C   UNL d   1      53.182  32.941  54.602  0.00  0.00     0.021 A 
BRANCH  21  24
ATOM     24  O   UNL d   1      55.265  33.407  55.026  0.00  0.00    -0.328 OA
ATOM     25  C   UNL d   1      55.316  34.188  55.308  0.00  0.00     0.181 C 
ENDBRANCH  21  24
ENDBRANCH  17  18
ENDBRANCH   4  17
TORSDOF 5
ENDMDL
