MODEL 1
REMARK VINA RESULT:      -7.6      0.000      0.000
REMARK  5 active torsions:
REMARK  status: ('A' for Active; 'I' for Inactive)
REMARK    1  A    between atoms: C_17  and  N_5 
REMARK    2  A    between atoms: S_14  and  C_6 
REMARK    3  A    between atoms: C_11  and  C_18 
REMARK    4  A    between atoms: C_18  and  S_14 
REMARK    5  A    between atoms: C_19  and  C_17 
ROOT
ATOM      1  C   UNL d   1      52.574  32.671  53.285  0.00  0.00     0.081 A 
ATOM      2  C   UNL d   1      51.800  32.470  53.064  0.00  0.00     0.117 A 
ATOM      3  N   UNL d   1      51.226  33.059  52.987  0.00  0.00    -0.215 NA
ATOM      4  C   UNL d   1      52.775  33.457  53.431  0.00  0.00     0.268 A 
ATOM      5  N   UNL d   1      52.198  34.054  53.355  0.00  0.00    -0.253 N 
ATOM      6  C   UNL d   1      51.425  33.850  53.133  0.00  0.00     0.182 A 
ATOM      7  S   UNL d   1      51.772  31.657  52.959  0.00  0.00    -0.068 SA
ATOM      8  C   UNL d   1      53.021  31.977  53.317  0.00  0.00     0.013 A 
ATOM      9  C   UNL d   1      52.526  31.352  53.115  0.00  0.00     0.031 A 
ATOM     10  O   UNL d   1      53.536  33.656  53.649  0.00  0.00    -0.267 OA
ATOM     11  C   UNL d   1      53.817  31.962  53.518  0.00  0.00     0.001 A 
ATOM     12  C   UNL d   1      52.705  30.547  53.065  0.00  0.00     0.006 A 
ATOM     13  C   UNL d   1      54.324  31.313  53.570  0.00  0.00     0.000 A 
ATOM     14  C   UNL d   1      53.426  30.176  53.205  0.00  0.00     0.001 A 
ATOM     15  C   UNL d   1      54.150  30.510  53.430  0.00  0.00     0.000 A 
ENDROOT
BRANCH   6  16
ATOM     16  S   UNL d   1      50.850  34.445  53.057  0.00  0.00    -0.048 SA
BRANCH  16  17
ATOM     17  C   UNL d   1      50.149  34.289  52.660  0.00  0.00     0.058 C 
BRANCH  17  18
ATOM     18  C   UNL d   1      49.520  34.824  52.705  0.00  0.00     0.095 A 
ATOM     19  N   UNL d   1      49.311  35.265  53.351  0.00  0.00    -0.238 NA
ATOM     20  C   UNL d   1      48.658  35.715  53.146  0.00  0.00     0.111 A 
ATOM     21  C   UNL d   1      48.255  36.242  53.617  0.00  0.00     0.028 C 
ATOM     22  S   UNL d   1      48.472  35.548  52.377  0.00  0.00    -0.066 SA
ATOM     23  C   UNL d   1      49.000  35.001  52.103  0.00  0.00     0.057 A 
ENDBRANCH  17  18
ENDBRANCH  16  17
ENDBRANCH   6  16
BRANCH   5  24
ATOM     24  C   UNL d   1      52.387  34.840  53.497  0.00  0.00     0.085 C 
BRANCH  24  25
ATOM     25  C   UNL d   1      52.748  35.051  54.223  0.00  0.00     0.019 C 
ATOM     26  C   UNL d   1      52.956  35.836  54.370  0.00  0.00     0.002 C 
ENDBRANCH  24  25
ENDBRANCH   5  24
TORSDOF 5
ENDMDL
MODEL 2
REMARK VINA RESULT:      -6.6      9.327     10.711
REMARK  5 active torsions:
REMARK  status: ('A' for Active; 'I' for Inactive)
REMARK    1  A    between atoms: C_17  and  N_5 
REMARK    2  A    between atoms: S_14  and  C_6 
REMARK    3  A    between atoms: C_11  and  C_18 
REMARK    4  A    between atoms: C_18  and  S_14 
REMARK    5  A    between atoms: C_19  and  C_17 
ROOT
ATOM      1  C   UNL d   1      44.753  29.163  57.473  0.00  0.00     0.081 A 
ATOM      2  C   UNL d   1      44.602  28.845  56.722  0.00  0.00     0.117 A 
ATOM      3  N   UNL d   1      44.607  28.026  56.611  0.00  0.00    -0.215 NA
ATOM      4  C   UNL d   1      44.908  28.666  58.112  0.00  0.00     0.268 A 
ATOM      5  N   UNL d   1      44.913  27.840  58.005  0.00  0.00    -0.253 N 
ATOM      6  C   UNL d   1      44.762  27.525  57.252  0.00  0.00     0.182 A 
ATOM      7  S   UNL d   1      44.470  29.470  56.207  0.00  0.00    -0.068 SA
ATOM      8  C   UNL d   1      44.713  29.986  57.416  0.00  0.00     0.013 A 
ATOM      9  C   UNL d   1      44.538  30.175  56.636  0.00  0.00     0.031 A 
ATOM     10  O   UNL d   1      45.057  28.978  58.852  0.00  0.00    -0.267 OA
ATOM     11  C   UNL d   1      44.833  30.488  58.055  0.00  0.00     0.001 A 
ATOM     12  C   UNL d   1      44.439  30.920  56.295  0.00  0.00     0.006 A 
ATOM     13  C   UNL d   1      44.809  31.313  58.075  0.00  0.00     0.000 A 
ATOM     14  C   UNL d   1      44.492  31.657  56.656  0.00  0.00     0.001 A 
ATOM     15  C   UNL d   1      44.656  31.839  57.448  0.00  0.00     0.000 A 
ENDROOT
BRANCH   6  16
ATOM     16  S   UNL d   1      44.767  26.701  57.144  0.00  0.00    -0.048 SA
BRANCH  16  17
ATOM     17  C   UNL d   1      44.745  26.387  56.386  0.00  0.00     0.058 C 
BRANCH  17  18
ATOM     18  C   UNL d   1      44.715  25.567  56.278  0.00  0.00     0.095 A 
ATOM     19  N   UNL d   1      45.078  25.148  55.687  0.00  0.00    -0.238 NA
ATOM     20  C   UNL d   1      44.899  24.356  55.797  0.00  0.00     0.111 A 
ATOM     21  C   UNL d   1      45.140  23.728  55.340  0.00  0.00     0.028 C 
ATOM     22  S   UNL d   1      44.428  24.295  56.453  0.00  0.00    -0.066 SA
ATOM     23  C   UNL d   1      44.314  25.038  56.750  0.00  0.00     0.057 A 
ENDBRANCH  17  18
ENDBRANCH  16  17
ENDBRANCH   6  16
BRANCH   5  24
ATOM     24  C   UNL d   1      45.066  27.336  58.633  0.00  0.00     0.085 C 
BRANCH  24  25
ATOM     25  C   UNL d   1      44.587  27.377  59.320  0.00  0.00     0.019 C 
ATOM     26  C   UNL d   1      44.628  26.783  59.890  0.00  0.00     0.002 C 
ENDBRANCH  24  25
ENDBRANCH   5  24
TORSDOF 5
ENDMDL
MODEL 3
REMARK VINA RESULT:      -5.9     10.662     11.272
REMARK  5 active torsions:
REMARK  status: ('A' for Active; 'I' for Inactive)
REMARK    1  A    between atoms: C_17  and  N_5 
REMARK    2  A    between atoms: S_14  and  C_6 
REMARK    3  A    between atoms: C_11  and  C_18 
REMARK    4  A    between atoms: C_18  and  S_14 
REMARK    5  A    between atoms: C_19  and  C_17 
ROOT
ATOM      1  C   UNL d   1      44.754  26.766  58.036  0.00  0.00     0.081 A 
ATOM      2  C   UNL d   1      44.500  26.460  58.764  0.00  0.00     0.117 A 
ATOM      3  N   UNL d   1      44.475  26.948  59.430  0.00  0.00    -0.215 NA
ATOM      4  C   UNL d   1      44.981  27.555  57.972  0.00  0.00     0.268 A 
ATOM      5  N   UNL d   1      44.957  28.051  58.641  0.00  0.00    -0.253 N 
ATOM      6  C   UNL d   1      44.703  27.742  59.369  0.00  0.00     0.182 A 
ATOM      7  S   UNL d   1      44.314  25.669  58.653  0.00  0.00    -0.068 SA
ATOM      8  C   UNL d   1      44.722  26.158  57.477  0.00  0.00     0.013 A 
ATOM      9  C   UNL d   1      44.451  25.482  57.858  0.00  0.00     0.031 A 
ATOM     10  O   UNL d   1      45.230  27.857  57.255  0.00  0.00    -0.267 OA
ATOM     11  C   UNL d   1      44.933  26.258  56.690  0.00  0.00     0.001 A 
ATOM     12  C   UNL d   1      44.322  24.729  57.544  0.00  0.00     0.006 A 
ATOM     13  C   UNL d   1      44.928  25.702  56.079  0.00  0.00     0.000 A 
ATOM     14  C   UNL d   1      44.435  24.473  56.771  0.00  0.00     0.001 A 
ATOM     15  C   UNL d   1      44.704  24.901  56.114  0.00  0.00     0.000 A 
ENDROOT
BRANCH   6  16
ATOM     16  S   UNL d   1      44.678  28.235  60.037  0.00  0.00    -0.048 SA
BRANCH  16  17
ATOM     17  C   UNL d   1      44.413  27.939  60.755  0.00  0.00     0.058 C 
BRANCH  17  18
ATOM     18  C   UNL d   1      44.484  28.394  61.442  0.00  0.00     0.095 A 
ATOM     19  N   UNL d   1      44.316  29.184  61.513  0.00  0.00    -0.238 NA
ATOM     20  C   UNL d   1      44.466  29.402  62.288  0.00  0.00     0.111 A 
ATOM     21  C   UNL d   1      44.378  30.140  62.618  0.00  0.00     0.028 C 
ATOM     22  S   UNL d   1      44.724  28.747  62.687  0.00  0.00    -0.066 SA
ATOM     23  C   UNL d   1      44.736  28.126  62.169  0.00  0.00     0.057 A 
ENDBRANCH  17  18
ENDBRANCH  16  17
ENDBRANCH   6  16
BRANCH   5  24
ATOM     24  C   UNL d   1      45.181  28.838  58.589  0.00  0.00     0.085 C 
BRANCH  24  25
ATOM     25  C   UNL d   1      44.768  29.350  58.069  0.00  0.00     0.019 C 
ATOM     26  C   UNL d   1      45.013  30.132  57.976  0.00  0.00     0.002 C 
ENDBRANCH  24  25
ENDBRANCH   5  24
TORSDOF 5
ENDMDL
MODEL 4
REMARK VINA RESULT:      -5.8     10.214     10.947
REMARK  5 active torsions:
REMARK  status: ('A' for Active; 'I' for Inactive)
REMARK    1  A    between atoms: C_17  and  N_5 
REMARK    2  A    between atoms: S_14  and  C_6 
REMARK    3  A    between atoms: C_11  and  C_18 
REMARK    4  A    between atoms: C_18  and  S_14 
REMARK    5  A    between atoms: C_19  and  C_17 
ROOT
ATOM      1  C   UNL d   1      44.548  29.016  60.883  0.00  0.00     0.081 A 
ATOM      2  C   UNL d   1      44.595  29.833  60.752  0.00  0.00     0.117 A 
ATOM      3  N   UNL d   1      44.632  30.125  59.979  0.00  0.00    -0.215 NA
ATOM      4  C   UNL d   1      44.537  28.491  60.248  0.00  0.00     0.268 A 
ATOM      5  N   UNL d   1      44.574  28.781  59.468  0.00  0.00    -0.253 N 
ATOM      6  C   UNL d   1      44.622  29.600  59.339  0.00  0.00     0.182 A 
ATOM      7  S   UNL d   1      44.595  30.206  61.482  0.00  0.00    -0.068 SA
ATOM      8  C   UNL d   1      44.519  28.889  61.700  0.00  0.00     0.013 A 
ATOM      9  C   UNL d   1      44.548  29.623  62.068  0.00  0.00     0.031 A 
ATOM     10  O   UNL d   1      44.491  27.686  60.378  0.00  0.00    -0.267 OA
ATOM     11  C   UNL d   1      44.469  28.142  62.038  0.00  0.00     0.001 A 
ATOM     12  C   UNL d   1      44.535  29.796  62.875  0.00  0.00     0.006 A 
ATOM     13  C   UNL d   1      44.436  27.939  62.837  0.00  0.00     0.000 A 
ATOM     14  C   UNL d   1      44.489  29.273  63.508  0.00  0.00     0.001 A 
ATOM     15  C   UNL d   1      44.445  28.445  63.498  0.00  0.00     0.000 A 
ENDROOT
BRANCH   6  16
ATOM     16  S   UNL d   1      44.659  29.890  58.562  0.00  0.00    -0.048 SA
BRANCH  16  17
ATOM     17  C   UNL d   1      44.875  30.671  58.426  0.00  0.00     0.058 C 
BRANCH  17  18
ATOM     18  C   UNL d   1      44.706  31.026  57.698  0.00  0.00     0.095 A 
ATOM     19  N   UNL d   1      44.613  31.819  57.561  0.00  0.00    -0.238 NA
ATOM     20  C   UNL d   1      44.453  31.918  56.764  0.00  0.00     0.111 A 
ATOM     21  C   UNL d   1      44.319  32.618  56.371  0.00  0.00     0.028 C 
ATOM     22  S   UNL d   1      44.450  31.187  56.417  0.00  0.00    -0.066 SA
ATOM     23  C   UNL d   1      44.606  30.637  56.989  0.00  0.00     0.057 A 
ENDBRANCH  17  18
ENDBRANCH  16  17
ENDBRANCH   6  16
BRANCH   5  24
ATOM     24  C   UNL d   1      44.564  28.269  58.828  0.00  0.00     0.085 C 
BRANCH  24  25
ATOM     25  C   UNL d   1      45.150  27.672  58.770  0.00  0.00     0.019 C 
ATOM     26  C   UNL d   1      45.161  27.163  58.121  0.00  0.00     0.002 C 
ENDBRANCH  24  25
ENDBRANCH   5  24
TORSDOF 5
ENDMDL
MODEL 5
REMARK VINA RESULT:      -5.5      1.218      4.780
REMARK  5 active torsions:
REMARK  status: ('A' for Active; 'I' for Inactive)
REMARK    1  A    between atoms: C_17  and  N_5 
REMARK    2  A    between atoms: S_14  and  C_6 
REMARK    3  A    between atoms: C_11  and  C_18 
REMARK    4  A    between atoms: C_18  and  S_14 
REMARK    5  A    between atoms: C_19  and  C_17 
ROOT
ATOM      1  C   UNL d   1      50.224  34.533  52.722  0.00  0.00     0.081 A 
ATOM      2  C   UNL d   1      50.391  33.917  52.193  0.00  0.00     0.117 A 
ATOM      3  N   UNL d   1      51.077  33.465  52.289  0.00  0.00    -0.215 NA
ATOM      4  C   UNL d   1      50.738  34.700  53.344  0.00  0.00     0.268 A 
ATOM      5  N   UNL d   1      51.431  34.247  53.444  0.00  0.00    -0.253 N 
ATOM      6  C   UNL d   1      51.596  33.631  52.913  0.00  0.00     0.182 A 
ATOM      7  S   UNL d   1      49.785  33.888  51.642  0.00  0.00    -0.068 SA
ATOM      8  C   UNL d   1      49.512  34.883  52.492  0.00  0.00     0.013 A 
ATOM      9  C   UNL d   1      49.241  34.484  51.826  0.00  0.00     0.031 A 
ATOM     10  O   UNL d   1      50.574  35.307  53.865  0.00  0.00    -0.267 OA
ATOM     11  C   UNL d   1      49.171  35.515  52.890  0.00  0.00     0.001 A 
ATOM     12  C   UNL d   1      48.556  34.620  51.386  0.00  0.00     0.006 A 
ATOM     13  C   UNL d   1      48.468  35.913  52.720  0.00  0.00     0.000 A 
ATOM     14  C   UNL d   1      47.976  35.190  51.509  0.00  0.00     0.001 A 
ATOM     15  C   UNL d   1      47.930  35.768  52.101  0.00  0.00     0.000 A 
ENDROOT
BRANCH   6  16
ATOM     16  S   UNL d   1      52.285  33.179  53.012  0.00  0.00    -0.048 SA
BRANCH  16  17
ATOM     17  C   UNL d   1      52.372  32.469  52.608  0.00  0.00     0.058 C 
BRANCH  17  18
ATOM     18  C   UNL d   1      52.839  31.865  52.927  0.00  0.00     0.095 A 
ATOM     19  N   UNL d   1      52.614  31.096  53.045  0.00  0.00    -0.238 NA
ATOM     20  C   UNL d   1      53.251  30.697  53.371  0.00  0.00     0.111 A 
ATOM     21  C   UNL d   1      53.285  29.912  53.584  0.00  0.00     0.028 C 
ATOM     22  S   UNL d   1      53.860  31.223  53.452  0.00  0.00    -0.066 SA
ATOM     23  C   UNL d   1      53.610  31.942  53.180  0.00  0.00     0.057 A 
ENDBRANCH  17  18
ENDBRANCH  16  17
ENDBRANCH   6  16
BRANCH   5  24
ATOM     24  C   UNL d   1      51.950  34.403  54.060  0.00  0.00     0.085 C 
BRANCH  24  25
ATOM     25  C   UNL d   1      52.436  35.085  54.025  0.00  0.00     0.019 C 
ATOM     26  C   UNL d   1      52.961  35.252  54.639  0.00  0.00     0.002 C 
ENDBRANCH  24  25
ENDBRANCH   5  24
TORSDOF 5
ENDMDL
MODEL 6
REMARK VINA RESULT:      -5.2      1.485      2.753
REMARK  5 active torsions:
REMARK  status: ('A' for Active; 'I' for Inactive)
REMARK    1  A    between atoms: C_17  and  N_5 
REMARK    2  A    between atoms: S_14  and  C_6 
REMARK    3  A    between atoms: C_11  and  C_18 
REMARK    4  A    between atoms: C_18  and  S_14 
REMARK    5  A    between atoms: C_19  and  C_17 
ROOT
ATOM      1  C   UNL d   1      53.176  33.559  54.035  0.00  0.00     0.081 A 
ATOM      2  C   UNL d   1      52.779  34.288  54.015  0.00  0.00     0.117 A 
ATOM      3  N   UNL d   1      52.060  34.355  53.613  0.00  0.00    -0.215 NA
ATOM      4  C   UNL d   1      52.856  32.900  53.658  0.00  0.00     0.268 A 
ATOM      5  N   UNL d   1      52.131  32.963  53.253  0.00  0.00    -0.253 N 
ATOM      6  C   UNL d   1      51.737  33.693  53.233  0.00  0.00     0.182 A 
ATOM      7  S   UNL d   1      53.228  34.830  54.434  0.00  0.00    -0.068 SA
ATOM      8  C   UNL d   1      53.871  33.658  54.470  0.00  0.00     0.013 A 
ATOM      9  C   UNL d   1      53.903  34.442  54.716  0.00  0.00     0.031 A 
ATOM     10  O   UNL d   1      53.246  32.183  53.678  0.00  0.00    -0.267 OA
ATOM     11  C   UNL d   1      54.407  33.051  54.608  0.00  0.00     0.001 A 
ATOM     12  C   UNL d   1      54.485  34.819  55.165  0.00  0.00     0.006 A 
ATOM     13  C   UNL d   1      55.116  33.074  55.029  0.00  0.00     0.000 A 
ATOM     14  C   UNL d   1      55.176  34.499  55.476  0.00  0.00     0.001 A 
ATOM     15  C   UNL d   1      55.463  33.723  55.419  0.00  0.00     0.000 A 
ENDROOT
BRANCH   6  16
ATOM     16  S   UNL d   1      51.014  33.758  52.830  0.00  0.00    -0.048 SA
BRANCH  16  17
ATOM     17  C   UNL d   1      50.680  34.497  52.701  0.00  0.00     0.058 C 
BRANCH  17  18
ATOM     18  C   UNL d   1      49.954  34.561  52.309  0.00  0.00     0.095 A 
ATOM     19  N   UNL d   1      49.814  34.392  51.530  0.00  0.00    -0.238 NA
ATOM     20  C   UNL d   1      49.020  34.534  51.382  0.00  0.00     0.111 A 
ATOM     21  C   UNL d   1      48.625  34.443  50.677  0.00  0.00     0.028 C 
ATOM     22  S   UNL d   1      48.680  34.788  52.071  0.00  0.00    -0.066 SA
ATOM     23  C   UNL d   1      49.252  34.805  52.643  0.00  0.00     0.057 A 
ENDBRANCH  17  18
ENDBRANCH  16  17
ENDBRANCH   6  16
BRANCH   5  24
ATOM     24  C   UNL d   1      51.804  32.314  52.873  0.00  0.00     0.085 C 
BRANCH  24  25
ATOM     25  C   UNL d   1      51.697  31.600  53.299  0.00  0.00     0.019 C 
ATOM     26  C   UNL d   1      51.617  30.885  52.896  0.00  0.00     0.002 C 
ENDBRANCH  24  25
ENDBRANCH   5  24
TORSDOF 5
ENDMDL
MODEL 7
REMARK VINA RESULT:      -5.0      8.880     10.368
REMARK  5 active torsions:
REMARK  status: ('A' for Active; 'I' for Inactive)
REMARK    1  A    between atoms: C_17  and  N_5 
REMARK    2  A    between atoms: S_14  and  C_6 
REMARK    3  A    between atoms: C_11  and  C_18 
REMARK    4  A    between atoms: C_18  and  S_14 
REMARK    5  A    between atoms: C_19  and  C_17 
ROOT
ATOM      1  C   UNL d   1      44.551  30.681  57.708  0.00  0.00     0.081 A 
ATOM      2  C   UNL d   1      44.587  30.048  57.174  0.00  0.00     0.117 A 
ATOM      3  N   UNL d   1      44.661  29.274  57.455  0.00  0.00    -0.215 NA
ATOM      4  C   UNL d   1      44.588  30.545  58.520  0.00  0.00     0.268 A 
ATOM      5  N   UNL d   1      44.663  29.766  58.808  0.00  0.00    -0.253 N 
ATOM      6  C   UNL d   1      44.698  29.134  58.271  0.00  0.00     0.182 A 
ATOM      7  S   UNL d   1      44.537  30.355  56.416  0.00  0.00    -0.068 SA
ATOM      8  C   UNL d   1      44.479  31.380  57.273  0.00  0.00     0.013 A 
ATOM      9  C   UNL d   1      44.470  31.179  56.476  0.00  0.00     0.031 A 
ATOM     10  O   UNL d   1      44.553  31.168  59.046  0.00  0.00    -0.267 OA
ATOM     11  C   UNL d   1      44.428  32.123  57.619  0.00  0.00     0.001 A 
ATOM     12  C   UNL d   1      44.408  31.675  55.819  0.00  0.00     0.006 A 
ATOM     13  C   UNL d   1      44.354  32.859  57.253  0.00  0.00     0.000 A 
ATOM     14  C   UNL d   1      44.339  32.494  55.804  0.00  0.00     0.001 A 
ATOM     15  C   UNL d   1      44.314  33.027  56.438  0.00  0.00     0.000 A 
ENDROOT
BRANCH   6  16
ATOM     16  S   UNL d   1      44.773  28.358  58.556  0.00  0.00    -0.048 SA
BRANCH  16  17
ATOM     17  C   UNL d   1      45.043  27.762  58.060  0.00  0.00     0.058 C 
BRANCH  17  18
ATOM     18  C   UNL d   1      44.908  26.969  58.254  0.00  0.00     0.095 A 
ATOM     19  N   UNL d   1      44.709  26.377  57.739  0.00  0.00    -0.238 NA
ATOM     20  C   UNL d   1      44.632  25.685  58.171  0.00  0.00     0.111 A 
ATOM     21  C   UNL d   1      44.438  24.947  57.890  0.00  0.00     0.028 C 
ATOM     22  S   UNL d   1      44.783  25.858  58.947  0.00  0.00    -0.066 SA
ATOM     23  C   UNL d   1      44.954  26.646  59.000  0.00  0.00     0.057 A 
ENDBRANCH  17  18
ENDBRANCH  16  17
ENDBRANCH   6  16
BRANCH   5  24
ATOM     24  C   UNL d   1      44.701  29.618  59.613  0.00  0.00     0.085 C 
BRANCH  24  25
ATOM     25  C   UNL d   1      45.036  30.194  60.122  0.00  0.00     0.019 C 
ATOM     26  C   UNL d   1      45.076  30.056  60.934  0.00  0.00     0.002 C 
ENDBRANCH  24  25
ENDBRANCH   5  24
TORSDOF 5
ENDMDL
MODEL 8
REMARK VINA RESULT:      -5.0      1.652      4.835
REMARK  5 active torsions:
REMARK  status: ('A' for Active; 'I' for Inactive)
REMARK    1  A    between atoms: C_17  and  N_5 
REMARK    2  A    between atoms: S_14  and  C_6 
REMARK    3  A    between atoms: C_11  and  C_18 
REMARK    4  A    between atoms: C_18  and  S_14 
REMARK    5  A    between atoms: C_19  and  C_17 
ROOT
ATOM      1  C   UNL d   1      52.010  33.318  53.350  0.00  0.00     0.081 A 
ATOM      2  C   UNL d   1      51.722  32.571  53.132  0.00  0.00     0.117 A 
ATOM      3  N   UNL d   1      52.198  31.901  53.227  0.00  0.00    -0.215 NA
ATOM      4  C   UNL d   1      52.769  33.398  53.661  0.00  0.00     0.268 A 
ATOM      5  N   UNL d   1      53.252  32.725  53.758  0.00  0.00    -0.253 N 
ATOM      6  C   UNL d   1      52.961  31.979  53.540  0.00  0.00     0.182 A 
ATOM      7  S   UNL d   1      50.961  32.669  52.845  0.00  0.00    -0.068 SA
ATOM      8  C   UNL d   1      51.420  33.875  53.194  0.00  0.00     0.013 A 
ATOM      9  C   UNL d   1      50.774  33.475  52.883  0.00  0.00     0.031 A 
ATOM     10  O   UNL d   1      53.053  34.133  53.875  0.00  0.00    -0.267 OA
ATOM     11  C   UNL d   1      51.509  34.678  53.341  0.00  0.00     0.001 A 
ATOM     12  C   UNL d   1      50.047  33.780  52.638  0.00  0.00     0.006 A 
ATOM     13  C   UNL d   1      50.970  35.290  53.212  0.00  0.00     0.000 A 
ATOM     14  C   UNL d   1      49.793  34.563  52.646  0.00  0.00     0.001 A 
ATOM     15  C   UNL d   1      50.199  35.239  52.901  0.00  0.00     0.000 A 
ENDROOT
BRANCH   6  16
ATOM     16  S   UNL d   1      53.441  31.308  53.636  0.00  0.00    -0.048 SA
BRANCH  16  17
ATOM     17  C   UNL d   1      53.172  30.573  53.391  0.00  0.00     0.058 C 
BRANCH  17  18
ATOM     18  C   UNL d   1      53.390  29.892  53.807  0.00  0.00     0.095 A 
ATOM     19  N   UNL d   1      53.024  29.595  54.466  0.00  0.00    -0.238 NA
ATOM     20  C   UNL d   1      53.426  28.917  54.690  0.00  0.00     0.111 A 
ATOM     21  C   UNL d   1      53.259  28.431  55.321  0.00  0.00     0.028 C 
ATOM     22  S   UNL d   1      54.034  28.803  54.169  0.00  0.00    -0.066 SA
ATOM     23  C   UNL d   1      54.014  29.401  53.625  0.00  0.00     0.057 A 
ENDBRANCH  17  18
ENDBRANCH  16  17
ENDBRANCH   6  16
BRANCH   5  24
ATOM     24  C   UNL d   1      54.008  32.793  54.067  0.00  0.00     0.085 C 
BRANCH  24  25
ATOM     25  C   UNL d   1      54.110  33.069  54.851  0.00  0.00     0.019 C 
ATOM     26  C   UNL d   1      54.860  33.273  55.126  0.00  0.00     0.002 C 
ENDBRANCH  24  25
ENDBRANCH   5  24
TORSDOF 5
ENDMDL
MODEL 9
REMARK VINA RESULT:      -4.9      1.627      2.649
REMARK  5 active torsions:
REMARK  status: ('A' for Active; 'I' for Inactive)
REMARK    1  A    between atoms: C_17  and  N_5 
REMARK    2  A    between atoms: S_14  and  C_6 
REMARK    3  A    between atoms: C_11  and  C_18 
REMARK    4  A    between atoms: C_18  and  S_14 
REMARK    5  A    between atoms: C_19  and  C_17 
ROOT
ATOM      1  C   UNL d   1      51.625  34.069  53.196  0.00  0.00     0.081 A 
ATOM      2  C   UNL d   1      51.446  34.674  53.734  0.00  0.00     0.117 A 
ATOM      3  N   UNL d   1      50.714  35.057  53.697  0.00  0.00    -0.215 NA
ATOM      4  C   UNL d   1      51.078  33.846  52.622  0.00  0.00     0.268 A 
ATOM      5  N   UNL d   1      50.339  34.229  52.581  0.00  0.00    -0.253 N 
ATOM      6  C   UNL d   1      50.162  34.834  53.121  0.00  0.00     0.182 A 
ATOM      7  S   UNL d   1      52.092  34.769  54.230  0.00  0.00    -0.068 SA
ATOM      8  C   UNL d   1      52.386  33.793  53.365  0.00  0.00     0.013 A 
ATOM      9  C   UNL d   1      52.673  34.224  54.002  0.00  0.00     0.031 A 
ATOM     10  O   UNL d   1      51.254  33.251  52.092  0.00  0.00    -0.267 OA
ATOM     11  C   UNL d   1      52.750  33.190  52.942  0.00  0.00     0.001 A 
ATOM     12  C   UNL d   1      53.404  34.161  54.381  0.00  0.00     0.006 A 
ATOM     13  C   UNL d   1      53.500  32.864  53.051  0.00  0.00     0.000 A 
ATOM     14  C   UNL d   1      54.023  33.648  54.211  0.00  0.00     0.001 A 
ATOM     15  C   UNL d   1      54.073  33.068  53.620  0.00  0.00     0.000 A 
ENDROOT
BRANCH   6  16
ATOM     16  S   UNL d   1      49.426  35.217  53.081  0.00  0.00    -0.048 SA
BRANCH  16  17
ATOM     17  C   UNL d   1      49.125  35.597  53.743  0.00  0.00     0.058 C 
BRANCH  17  18
ATOM     18  C   UNL d   1      48.365  35.925  53.722  0.00  0.00     0.095 A 
ATOM     19  N   UNL d   1      47.777  35.805  54.266  0.00  0.00    -0.238 NA
ATOM     20  C   UNL d   1      47.123  36.236  54.025  0.00  0.00     0.111 A 
ATOM     21  C   UNL d   1      46.401  36.286  54.396  0.00  0.00     0.028 C 
ATOM     22  S   UNL d   1      47.315  36.617  53.338  0.00  0.00    -0.066 SA
ATOM     23  C   UNL d   1      48.078  36.428  53.150  0.00  0.00     0.057 A 
ENDBRANCH  17  18
ENDBRANCH  16  17
ENDBRANCH   6  16
BRANCH   5  24
ATOM     24  C   UNL d   1      49.786  34.016  52.014  0.00  0.00     0.085 C 
BRANCH  24  25
ATOM     25  C   UNL d   1      49.924  34.211  51.211  0.00  0.00     0.019 C 
ATOM     26  C   UNL d   1      49.299  34.218  50.672  0.00  0.00     0.002 C 
ENDBRANCH  24  25
ENDBRANCH   5  24
TORSDOF 5
ENDMDL
