MODEL 1
REMARK VINA RESULT:      46.6      0.000      0.000
REMARK  4 active torsions:
REMARK  status: ('A' for Active; 'I' for Inactive)
REMARK    1  A    between atoms: C_12  and  N_3 
REMARK    2  A    between atoms: C_10  and  C_5 
REMARK       I    between atoms: N_11  and  C_10 
REMARK    3  A    between atoms: C_24  and  C_12 
REMARK    4  A    between atoms: C_25  and  N_14 
ROOT
ATOM      1  C   UNL d   1      46.436 -18.177  42.914  0.00  0.00     0.154 A 
ATOM      2  C   UNL d   1      46.232 -17.578  42.384  0.00  0.00     0.093 A 
ATOM      3  N   UNL d   1      46.457 -17.848  43.673  0.00  0.00    -0.286 N 
ATOM      4  N   UNL d   1      46.572 -18.935  42.634  0.00  0.00    -0.210 NA
ATOM      5  C   UNL d   1      46.269 -17.053  43.613  0.00  0.00     0.122 A 
ATOM      6  C   UNL d   1      46.167 -17.743  41.580  0.00  0.00     0.269 A 
ATOM      7  N   UNL d   1      46.306 -18.507  41.306  0.00  0.00    -0.258 N 
ATOM      8  C   UNL d   1      46.510 -19.106  41.836  0.00  0.00     0.152 A 
ATOM      9  C   UNL d   1      46.127 -16.878  42.814  0.00  0.00     0.030 A 
ATOM     10  C   UNL d   1      46.241 -18.672  40.501  0.00  0.00     0.084 A 
ATOM     11  O   UNL d   1      45.963 -17.145  41.050  0.00  0.00    -0.266 OA
ATOM     12  C   UNL d   1      46.647 -19.864  41.556  0.00  0.00     0.038 A 
ATOM     13  C   UNL d   1      46.380 -19.438  40.225  0.00  0.00     0.019 A 
ATOM     14  C   UNL d   1      46.584 -20.037  40.755  0.00  0.00     0.005 A 
ENDROOT
BRANCH   5  15
ATOM     15  C   UNL d   1      46.226 -16.514  44.238  0.00  0.00     0.281 C 
ATOM     16  N   UNL d   1      45.805 -15.812  44.148  0.00  0.00    -0.268 N 
ATOM     17  C   UNL d   1      45.428 -15.647  43.436  0.00  0.00     0.102 A 
ATOM     18  C   UNL d   1      45.762 -15.272  44.775  0.00  0.00     0.102 A 
ATOM     19  C   UNL d   1      45.006 -14.942  43.344  0.00  0.00     0.100 A 
ATOM     20  N   UNL d   1      44.963 -14.402  43.971  0.00  0.00    -0.300 N 
ATOM     21  C   UNL d   1      45.342 -14.569  44.687  0.00  0.00     0.100 A 
ATOM     22  O   UNL d   1      46.602 -16.679  44.950  0.00  0.00    -0.265 OA
BRANCH  20  23
ATOM     23  C   UNL d   1      44.537 -13.689  43.884  0.00  0.00     0.080 C 
ATOM     24  C   UNL d   1      44.884 -13.039  43.504  0.00  0.00     0.021 C 
ENDBRANCH  20  23
ENDBRANCH   5  15
BRANCH   3  25
ATOM     25  C   UNL d   1      46.639 -18.257  44.368  0.00  0.00     0.082 C 
BRANCH  25  26
ATOM     26  C   UNL d   1      46.234 -18.943  44.561  0.00  0.00     0.018 A 
ATOM     27  C   UNL d   1      45.410 -18.939  44.612  0.00  0.00     0.002 A 
ATOM     28  C   UNL d   1      45.000 -19.627  44.806  0.00  0.00     0.000 A 
ATOM     29  C   UNL d   1      45.412 -20.319  44.950  0.00  0.00     0.000 A 
ATOM     30  C   UNL d   1      46.237 -20.326  44.901  0.00  0.00     0.000 A 
ATOM     31  C   UNL d   1      46.647 -19.639  44.707  0.00  0.00     0.002 A 
ENDBRANCH  25  26
ENDBRANCH   3  25
TORSDOF 4
ENDMDL
