MODEL 1
REMARK VINA RESULT:      -2.8      0.000      0.000
REMARK  8 active torsions:
REMARK  status: ('A' for Active; 'I' for Inactive)
REMARK    1  A    between atoms: C_2  and  S_1 
REMARK    2  A    between atoms: N_13  and  S_1 
REMARK    3  A    between atoms: C_16  and  C_4 
REMARK    4  A    between atoms: O_17  and  C_5 
REMARK    5  A    between atoms: N_8  and  C_18 
REMARK    6  A    between atoms: C_21  and  N_13 
REMARK    7  A    between atoms: C_18  and  C_19 
REMARK    8  A    between atoms: C_19  and  C_21 
ROOT
ATOM      1  C   UNL d   1      57.275   0.086  31.878  0.00  0.00     0.128 A 
ATOM      2  C   UNL d   1      56.501  -0.073  32.133  0.00  0.00     0.015 A 
ATOM      3  C   UNL d   1      56.278   0.112  32.905  0.00  0.00     0.001 A 
ATOM      4  C   UNL d   1      57.822   0.428  32.394  0.00  0.00     0.106 A 
ATOM      5  C   UNL d   1      56.829   0.456  33.423  0.00  0.00     0.002 A 
ATOM      6  C   UNL d   1      57.599   0.614  33.167  0.00  0.00     0.025 A 
ATOM      7  C   UNL d   1      56.606   0.642  34.196  0.00  0.00     0.000 C 
ENDROOT
BRANCH   1   8
ATOM      8  S   UNL d   1      57.498  -0.099  31.106  0.00  0.00     0.287 S 
ATOM      9  O   UNL d   1      57.746  -0.845  31.357  0.00  0.00    -0.198 OA
ATOM     10  O   UNL d   1      57.249   0.647  30.855  0.00  0.00    -0.198 OA
BRANCH   8  11
ATOM     11  N   UNL d   1      57.723  -0.286  30.329  0.00  0.00    -0.157 NA
BRANCH  11  12
ATOM     12  C   UNL d   1      58.026  -1.039  30.157  0.00  0.00     0.114 C 
BRANCH  12  13
ATOM     13  C   UNL d   1      58.399  -1.175  29.434  0.00  0.00     0.041 C 
BRANCH  13  14
ATOM     14  C   UNL d   1      58.503  -1.947  29.153  0.00  0.00     0.083 C 
BRANCH  14  15
ATOM     15  N   UNL d   1      59.249  -2.212  28.921  0.00  0.00    -0.285 N 
ATOM     16  C   UNL d   1      59.516  -2.991  28.964  0.00  0.00     0.183 A 
ATOM     17  N   UNL d   1      60.292  -3.004  28.675  0.00  0.00    -0.222 NA
ATOM     18  C   UNL d   1      60.497  -2.235  28.457  0.00  0.00     0.120 A 
ATOM     19  C   UNL d   1      59.849  -1.745  28.610  0.00  0.00     0.102 A 
ENDBRANCH  14  15
ENDBRANCH  13  14
ENDBRANCH  12  13
ENDBRANCH  11  12
ENDBRANCH   8  11
ENDBRANCH   1   8
BRANCH   4  20
ATOM     20  O   UNL d   1      58.589   0.585  32.138  0.00  0.00    -0.327 OA
ATOM     21  C   UNL d   1      59.193   0.682  32.688  0.00  0.00     0.181 C 
ENDBRANCH   4  20
BRANCH   3  22
ATOM     22  C   UNL d   1      55.511  -0.045  33.163  0.00  0.00     0.000 C 
ATOM     23  C   UNL d   1      55.005   0.578  33.357  0.00  0.00     0.000 C 
ATOM     24  C   UNL d   1      55.251  -0.823  33.225  0.00  0.00     0.000 C 
ENDBRANCH   3  22
TORSDOF 8
ENDMDL
MODEL 2
REMARK VINA RESULT:      -2.1      1.534      5.045
REMARK  8 active torsions:
REMARK  status: ('A' for Active; 'I' for Inactive)
REMARK    1  A    between atoms: C_2  and  S_1 
REMARK    2  A    between atoms: N_13  and  S_1 
REMARK    3  A    between atoms: C_16  and  C_4 
REMARK    4  A    between atoms: O_17  and  C_5 
REMARK    5  A    between atoms: N_8  and  C_18 
REMARK    6  A    between atoms: C_21  and  N_13 
REMARK    7  A    between atoms: C_18  and  C_19 
REMARK    8  A    between atoms: C_19  and  C_21 
ROOT
ATOM      1  C   UNL d   1      58.982  -0.915  29.489  0.00  0.00     0.128 A 
ATOM      2  C   UNL d   1      58.954  -1.745  29.507  0.00  0.00     0.015 A 
ATOM      3  C   UNL d   1      59.562  -2.183  29.163  0.00  0.00     0.001 A 
ATOM      4  C   UNL d   1      59.616  -0.527  29.128  0.00  0.00     0.106 A 
ATOM      5  C   UNL d   1      60.199  -1.791  28.800  0.00  0.00     0.002 A 
ATOM      6  C   UNL d   1      60.224  -0.965  28.783  0.00  0.00     0.025 A 
ATOM      7  C   UNL d   1      60.807  -2.229  28.455  0.00  0.00     0.000 C 
ENDROOT
BRANCH   1   8
ATOM      8  S   UNL d   1      58.374  -0.477  29.833  0.00  0.00     0.287 S 
ATOM      9  O   UNL d   1      57.931  -0.548  29.141  0.00  0.00    -0.198 OA
ATOM     10  O   UNL d   1      58.818  -0.406  30.527  0.00  0.00    -0.198 OA
BRANCH   8  11
ATOM     11  N   UNL d   1      57.762  -0.037  30.180  0.00  0.00    -0.157 NA
BRANCH  11  12
ATOM     12  C   UNL d   1      57.706   0.012  31.007  0.00  0.00     0.114 C 
BRANCH  12  13
ATOM     13  C   UNL d   1      56.968   0.107  31.363  0.00  0.00     0.041 C 
BRANCH  13  14
ATOM     14  C   UNL d   1      56.910   0.316  32.162  0.00  0.00     0.083 C 
BRANCH  14  15
ATOM     15  N   UNL d   1      56.244   0.108  32.603  0.00  0.00    -0.285 N 
ATOM     16  C   UNL d   1      55.667   0.631  32.874  0.00  0.00     0.183 A 
ATOM     17  N   UNL d   1      55.105   0.185  33.288  0.00  0.00    -0.222 NA
ATOM     18  C   UNL d   1      55.340  -0.606  33.269  0.00  0.00     0.120 A 
ATOM     19  C   UNL d   1      56.047  -0.652  32.843  0.00  0.00     0.102 A 
ENDBRANCH  14  15
ENDBRANCH  13  14
ENDBRANCH  12  13
ENDBRANCH  11  12
ENDBRANCH   8  11
ENDBRANCH   1   8
BRANCH   4  20
ATOM     20  O   UNL d   1      59.640   0.296  29.111  0.00  0.00    -0.327 OA
ATOM     21  C   UNL d   1      60.345   0.682  28.935  0.00  0.00     0.181 C 
ENDBRANCH   4  20
BRANCH   3  22
ATOM     22  C   UNL d   1      59.538  -3.006  29.178  0.00  0.00     0.000 C 
ATOM     23  C   UNL d   1      58.933  -3.410  28.790  0.00  0.00     0.000 C 
ATOM     24  C   UNL d   1      60.121  -3.425  29.583  0.00  0.00     0.000 C 
ENDBRANCH   3  22
TORSDOF 8
ENDMDL
MODEL 3
REMARK VINA RESULT:      -1.0      1.851      5.118
REMARK  8 active torsions:
REMARK  status: ('A' for Active; 'I' for Inactive)
REMARK    1  A    between atoms: C_2  and  S_1 
REMARK    2  A    between atoms: N_13  and  S_1 
REMARK    3  A    between atoms: C_16  and  C_4 
REMARK    4  A    between atoms: O_17  and  C_5 
REMARK    5  A    between atoms: N_8  and  C_18 
REMARK    6  A    between atoms: C_21  and  N_13 
REMARK    7  A    between atoms: C_18  and  C_19 
REMARK    8  A    between atoms: C_19  and  C_21 
ROOT
ATOM      1  C   UNL d   1      58.254  -0.103  30.022  0.00  0.00     0.128 A 
ATOM      2  C   UNL d   1      59.004  -0.421  30.180  0.00  0.00     0.015 A 
ATOM      3  C   UNL d   1      59.632  -0.264  29.668  0.00  0.00     0.001 A 
ATOM      4  C   UNL d   1      58.133   0.369  29.354  0.00  0.00     0.106 A 
ATOM      5  C   UNL d   1      59.508   0.210  28.997  0.00  0.00     0.002 A 
ATOM      6  C   UNL d   1      58.760   0.525  28.842  0.00  0.00     0.025 A 
ATOM      7  C   UNL d   1      60.136   0.367  28.484  0.00  0.00     0.000 C 
ENDROOT
BRANCH   1   8
ATOM      8  S   UNL d   1      57.626  -0.259  30.534  0.00  0.00     0.287 S 
ATOM      9  O   UNL d   1      57.449   0.546  30.564  0.00  0.00    -0.198 OA
ATOM     10  O   UNL d   1      57.804  -1.066  30.505  0.00  0.00    -0.198 OA
BRANCH   8  11
ATOM     11  N   UNL d   1      56.995  -0.417  31.050  0.00  0.00    -0.157 NA
BRANCH  11  12
ATOM     12  C   UNL d   1      57.059  -0.215  31.853  0.00  0.00     0.114 C 
BRANCH  12  13
ATOM     13  C   UNL d   1      56.419  -0.338  32.358  0.00  0.00     0.041 C 
BRANCH  13  14
ATOM     14  C   UNL d   1      56.509  -0.263  33.178  0.00  0.00     0.083 C 
BRANCH  14  15
ATOM     15  N   UNL d   1      55.882  -0.002  33.646  0.00  0.00    -0.285 N 
ATOM     16  C   UNL d   1      55.117  -0.310  33.639  0.00  0.00     0.183 A 
ATOM     17  N   UNL d   1      54.673   0.116  34.193  0.00  0.00    -0.222 NA
ATOM     18  C   UNL d   1      55.166   0.681  34.537  0.00  0.00     0.120 A 
ATOM     19  C   UNL d   1      55.916   0.607  34.196  0.00  0.00     0.102 A 
ENDBRANCH  14  15
ENDBRANCH  13  14
ENDBRANCH  12  13
ENDBRANCH  11  12
ENDBRANCH   8  11
ENDBRANCH   1   8
BRANCH   4  20
ATOM     20  O   UNL d   1      57.387   0.682  29.200  0.00  0.00    -0.327 OA
ATOM     21  C   UNL d   1      57.041   0.575  28.462  0.00  0.00     0.181 C 
ENDBRANCH   4  20
BRANCH   3  22
ATOM     22  C   UNL d   1      60.378  -0.577  29.821  0.00  0.00     0.000 C 
ATOM     23  C   UNL d   1      60.771  -1.014  29.241  0.00  0.00     0.000 C 
ATOM     24  C   UNL d   1      60.731  -0.453  30.554  0.00  0.00     0.000 C 
ENDBRANCH   3  22
TORSDOF 8
ENDMDL
MODEL 4
REMARK VINA RESULT:      -0.9      1.486      2.020
REMARK  8 active torsions:
REMARK  status: ('A' for Active; 'I' for Inactive)
REMARK    1  A    between atoms: C_2  and  S_1 
REMARK    2  A    between atoms: N_13  and  S_1 
REMARK    3  A    between atoms: C_16  and  C_4 
REMARK    4  A    between atoms: O_17  and  C_5 
REMARK    5  A    between atoms: N_8  and  C_18 
REMARK    6  A    between atoms: C_21  and  N_13 
REMARK    7  A    between atoms: C_18  and  C_19 
REMARK    8  A    between atoms: C_19  and  C_21 
ROOT
ATOM      1  C   UNL d   1      56.854  -0.115  31.838  0.00  0.00     0.128 A 
ATOM      2  C   UNL d   1      56.557   0.309  32.487  0.00  0.00     0.015 A 
ATOM      3  C   UNL d   1      56.115  -0.082  33.064  0.00  0.00     0.001 A 
ATOM      4  C   UNL d   1      56.710  -0.925  31.767  0.00  0.00     0.106 A 
ATOM      5  C   UNL d   1      55.971  -0.897  32.991  0.00  0.00     0.002 A 
ATOM      6  C   UNL d   1      56.268  -1.316  32.344  0.00  0.00     0.025 A 
ATOM      7  C   UNL d   1      55.529  -1.288  33.568  0.00  0.00     0.000 C 
ENDROOT
BRANCH   1   8
ATOM      8  S   UNL d   1      57.296   0.276  31.261  0.00  0.00     0.287 S 
ATOM      9  O   UNL d   1      57.953   0.270  31.760  0.00  0.00    -0.198 OA
ATOM     10  O   UNL d   1      56.638   0.282  30.761  0.00  0.00    -0.198 OA
BRANCH   8  11
ATOM     11  N   UNL d   1      57.740   0.669  30.681  0.00  0.00    -0.157 NA
BRANCH  11  12
ATOM     12  C   UNL d   1      58.561   0.551  30.640  0.00  0.00     0.114 C 
BRANCH  12  13
ATOM     13  C   UNL d   1      58.913   0.369  29.916  0.00  0.00     0.041 C 
BRANCH  13  14
ATOM     14  C   UNL d   1      59.654   0.682  29.718  0.00  0.00     0.083 C 
BRANCH  14  15
ATOM     15  N   UNL d   1      60.214   0.218  29.329  0.00  0.00    -0.285 N 
ATOM     16  C   UNL d   1      60.635   0.440  28.656  0.00  0.00     0.183 A 
ATOM     17  N   UNL d   1      61.133  -0.192  28.456  0.00  0.00    -0.222 NA
ATOM     18  C   UNL d   1      61.015  -0.795  29.006  0.00  0.00     0.120 A 
ATOM     19  C   UNL d   1      60.444  -0.539  29.548  0.00  0.00     0.102 A 
ENDBRANCH  14  15
ENDBRANCH  13  14
ENDBRANCH  12  13
ENDBRANCH  11  12
ENDBRANCH   8  11
ENDBRANCH   1   8
BRANCH   4  20
ATOM     20  O   UNL d   1      57.006  -1.342  31.122  0.00  0.00    -0.327 OA
ATOM     21  C   UNL d   1      56.966  -2.164  31.111  0.00  0.00     0.181 C 
ENDBRANCH   4  20
BRANCH   3  22
ATOM     22  C   UNL d   1      55.818   0.335  33.709  0.00  0.00     0.000 C 
ATOM     23  C   UNL d   1      56.335   0.666  34.261  0.00  0.00     0.000 C 
ATOM     24  C   UNL d   1      55.005   0.420  33.802  0.00  0.00     0.000 C 
ENDBRANCH   3  22
TORSDOF 8
ENDMDL
MODEL 5
REMARK VINA RESULT:      -0.4      1.641      2.141
REMARK  8 active torsions:
REMARK  status: ('A' for Active; 'I' for Inactive)
REMARK    1  A    between atoms: C_2  and  S_1 
REMARK    2  A    between atoms: N_13  and  S_1 
REMARK    3  A    between atoms: C_16  and  C_4 
REMARK    4  A    between atoms: O_17  and  C_5 
REMARK    5  A    between atoms: N_8  and  C_18 
REMARK    6  A    between atoms: C_21  and  N_13 
REMARK    7  A    between atoms: C_18  and  C_19 
REMARK    8  A    between atoms: C_19  and  C_21 
ROOT
ATOM      1  C   UNL d   1      56.050   0.110  33.090  0.00  0.00     0.128 A 
ATOM      2  C   UNL d   1      55.241   0.009  33.250  0.00  0.00     0.015 A 
ATOM      3  C   UNL d   1      54.945   0.200  33.996  0.00  0.00     0.001 A 
ATOM      4  C   UNL d   1      56.558   0.400  33.673  0.00  0.00     0.106 A 
ATOM      5  C   UNL d   1      55.458   0.491  34.582  0.00  0.00     0.002 A 
ATOM      6  C   UNL d   1      56.262   0.591  34.419  0.00  0.00     0.025 A 
ATOM      7  C   UNL d   1      55.161   0.682  35.328  0.00  0.00     0.000 C 
ENDROOT
BRANCH   1   8
ATOM      8  S   UNL d   1      56.346  -0.080  32.344  0.00  0.00     0.287 S 
ATOM      9  O   UNL d   1      56.169   0.681  32.079  0.00  0.00    -0.198 OA
ATOM     10  O   UNL d   1      56.523  -0.842  32.608  0.00  0.00    -0.198 OA
BRANCH   8  11
ATOM     11  N   UNL d   1      56.644  -0.272  31.593  0.00  0.00    -0.157 NA
BRANCH  11  12
ATOM     12  C   UNL d   1      57.125   0.272  31.190  0.00  0.00     0.114 C 
BRANCH  12  13
ATOM     13  C   UNL d   1      57.708  -0.002  30.674  0.00  0.00     0.041 C 
BRANCH  13  14
ATOM     14  C   UNL d   1      57.975   0.472  30.050  0.00  0.00     0.083 C 
BRANCH  14  15
ATOM     15  N   UNL d   1      58.653   0.267  29.627  0.00  0.00    -0.285 N 
ATOM     16  C   UNL d   1      59.386   0.085  29.957  0.00  0.00     0.183 A 
ATOM     17  N   UNL d   1      59.902  -0.087  29.332  0.00  0.00    -0.222 NA
ATOM     18  C   UNL d   1      59.484  -0.010  28.625  0.00  0.00     0.120 A 
ATOM     19  C   UNL d   1      58.709   0.210  28.810  0.00  0.00     0.102 A 
ENDBRANCH  14  15
ENDBRANCH  13  14
ENDBRANCH  12  13
ENDBRANCH  11  12
ENDBRANCH   8  11
ENDBRANCH   1   8
BRANCH   4  20
ATOM     20  O   UNL d   1      57.359   0.499  33.510  0.00  0.00    -0.327 OA
ATOM     21  C   UNL d   1      57.889   0.632  34.125  0.00  0.00     0.181 C 
ENDBRANCH   4  20
BRANCH   3  22
ATOM     22  C   UNL d   1      54.144   0.101  34.160  0.00  0.00     0.000 C 
ATOM     23  C   UNL d   1      53.750  -0.577  33.905  0.00  0.00     0.000 C 
ATOM     24  C   UNL d   1      53.737   0.681  34.579  0.00  0.00     0.000 C 
ENDBRANCH   3  22
TORSDOF 8
ENDMDL
