MODEL 1
REMARK VINA RESULT:      -3.1      0.000      0.000
REMARK  3 active torsions:
REMARK  status: ('A' for Active; 'I' for Inactive)
REMARK    1  A    between atoms: N_3  and  C_1 
REMARK       I    between atoms: C_5  and  N_3 
REMARK    2  A    between atoms: C_4  and  C_5 
REMARK    3  A    between atoms: C_12  and  C_6 
ROOT
ATOM      1  C   UNL d   1      32.728  18.795 -23.171  0.00  0.00     0.249 A 
ATOM      2  N   UNL d   1      32.611  19.161 -22.437  0.00  0.00    -0.210 NA
ATOM      3  C   UNL d   1      32.931  19.931 -22.482  0.00  0.00     0.091 A 
ATOM      4  S   UNL d   1      33.114  19.321 -23.673  0.00  0.00    -0.033 SA
ATOM      5  C   UNL d   1      33.241  20.032 -23.239  0.00  0.00     0.059 A 
ENDROOT
BRANCH   1   6
ATOM      6  N   UNL d   1      32.494  18.029 -23.364  0.00  0.00    -0.337 NA
ATOM      7  C   UNL d   1      32.516  17.223 -23.537  0.00  0.00     0.355 C 
ATOM      8  O   UNL d   1      33.241  16.816 -23.542  0.00  0.00    -0.249 OA
BRANCH   7   9
ATOM      9  C   UNL d   1      31.814  16.813 -23.708  0.00  0.00     0.197 A 
ATOM     10  O   UNL d   1      31.331  16.916 -24.383  0.00  0.00    -0.205 OA
ATOM     11  N   UNL d   1      30.691  16.393 -24.321  0.00  0.00    -0.124 NA
ATOM     12  C   UNL d   1      30.774  15.967 -23.614  0.00  0.00     0.130 A 
ATOM     13  C   UNL d   1      31.465  16.222 -23.231  0.00  0.00     0.056 A 
ENDBRANCH   7   9
ENDBRANCH   1   6
BRANCH   3  14
ATOM     14  C   UNL d   1      32.937  20.488 -21.879  0.00  0.00     0.018 A 
ATOM     15  C   UNL d   1      32.651  21.242 -22.015  0.00  0.00     0.002 A 
ATOM     16  C   UNL d   1      32.656  21.803 -21.411  0.00  0.00     0.000 A 
ATOM     17  C   UNL d   1      32.952  21.597 -20.670  0.00  0.00     0.000 A 
ATOM     18  C   UNL d   1      33.241  20.839 -20.527  0.00  0.00     0.000 A 
ATOM     19  C   UNL d   1      32.959  22.158 -20.059  0.00  0.00     0.000 C 
ATOM     20  C   UNL d   1      33.233  20.278 -21.138  0.00  0.00     0.002 A 
ENDBRANCH   3  14
TORSDOF 3
ENDMDL
MODEL 2
REMARK VINA RESULT:      -2.7      1.693      5.022
REMARK  3 active torsions:
REMARK  status: ('A' for Active; 'I' for Inactive)
REMARK    1  A    between atoms: N_3  and  C_1 
REMARK       I    between atoms: C_5  and  N_3 
REMARK    2  A    between atoms: C_4  and  C_5 
REMARK    3  A    between atoms: C_12  and  C_6 
ROOT
ATOM      1  C   UNL d   1      32.076  18.253 -23.942  0.00  0.00     0.249 A 
ATOM      2  N   UNL d   1      31.381  17.824 -23.810  0.00  0.00    -0.210 NA
ATOM      3  C   UNL d   1      31.178  17.439 -24.522  0.00  0.00     0.091 A 
ATOM      4  S   UNL d   1      32.313  18.145 -24.723  0.00  0.00    -0.033 SA
ATOM      5  C   UNL d   1      31.749  17.634 -25.086  0.00  0.00     0.059 A 
ENDROOT
BRANCH   1   6
ATOM      6  N   UNL d   1      32.466  18.714 -23.381  0.00  0.00    -0.337 NA
ATOM      7  C   UNL d   1      32.915  18.939 -22.726  0.00  0.00     0.355 C 
ATOM      8  O   UNL d   1      33.241  18.362 -22.224  0.00  0.00    -0.249 OA
BRANCH   7   9
ATOM      9  C   UNL d   1      33.043  19.744 -22.565  0.00  0.00     0.197 A 
ATOM     10  O   UNL d   1      33.120  20.356 -23.128  0.00  0.00    -0.205 OA
ATOM     11  N   UNL d   1      33.241  21.067 -22.719  0.00  0.00    -0.124 NA
ATOM     12  C   UNL d   1      33.239  20.899 -21.906  0.00  0.00     0.130 A 
ATOM     13  C   UNL d   1      33.117  20.084 -21.805  0.00  0.00     0.056 A 
ENDBRANCH   7   9
ENDBRANCH   1   6
BRANCH   3  14
ATOM     14  C   UNL d   1      30.528  16.953 -24.642  0.00  0.00     0.018 A 
ATOM     15  C   UNL d   1      29.817  17.273 -24.890  0.00  0.00     0.002 A 
ATOM     16  C   UNL d   1      29.163  16.786 -25.011  0.00  0.00     0.000 A 
ATOM     17  C   UNL d   1      29.232  15.976 -24.880  0.00  0.00     0.000 A 
ATOM     18  C   UNL d   1      29.946  15.648 -24.630  0.00  0.00     0.000 A 
ATOM     19  C   UNL d   1      28.577  15.481 -25.000  0.00  0.00     0.000 C 
ATOM     20  C   UNL d   1      30.600  16.142 -24.510  0.00  0.00     0.002 A 
ENDBRANCH   3  14
TORSDOF 3
ENDMDL
MODEL 3
REMARK VINA RESULT:      -2.5      1.647      4.900
REMARK  3 active torsions:
REMARK  status: ('A' for Active; 'I' for Inactive)
REMARK    1  A    between atoms: N_3  and  C_1 
REMARK       I    between atoms: C_5  and  N_3 
REMARK    2  A    between atoms: C_4  and  C_5 
REMARK    3  A    between atoms: C_12  and  C_6 
ROOT
ATOM      1  C   UNL d   1      32.695  18.764 -23.000  0.00  0.00     0.249 A 
ATOM      2  N   UNL d   1      32.015  18.486 -23.381  0.00  0.00    -0.210 NA
ATOM      3  C   UNL d   1      32.138  17.682 -23.569  0.00  0.00     0.091 A 
ATOM      4  S   UNL d   1      33.241  18.150 -22.945  0.00  0.00    -0.033 SA
ATOM      5  C   UNL d   1      32.890  17.472 -23.303  0.00  0.00     0.059 A 
ENDROOT
BRANCH   1   6
ATOM      6  N   UNL d   1      32.806  19.531 -22.721  0.00  0.00    -0.337 NA
ATOM      7  C   UNL d   1      32.985  20.336 -22.690  0.00  0.00     0.355 C 
ATOM      8  O   UNL d   1      33.241  20.734 -23.373  0.00  0.00    -0.249 OA
BRANCH   7   9
ATOM      9  C   UNL d   1      32.909  20.753 -21.975  0.00  0.00     0.197 A 
ATOM     10  O   UNL d   1      33.123  20.477 -21.215  0.00  0.00    -0.205 OA
ATOM     11  N   UNL d   1      32.951  21.076 -20.668  0.00  0.00    -0.124 NA
ATOM     12  C   UNL d   1      32.633  21.720 -21.084  0.00  0.00     0.130 A 
ATOM     13  C   UNL d   1      32.605  21.527 -21.891  0.00  0.00     0.056 A 
ENDBRANCH   7   9
ENDBRANCH   1   6
BRANCH   3  14
ATOM     14  C   UNL d   1      31.606  17.187 -23.950  0.00  0.00     0.018 A 
ATOM     15  C   UNL d   1      30.962  17.503 -24.344  0.00  0.00     0.002 A 
ATOM     16  C   UNL d   1      30.427  17.008 -24.728  0.00  0.00     0.000 A 
ATOM     17  C   UNL d   1      30.545  16.192 -24.712  0.00  0.00     0.000 A 
ATOM     18  C   UNL d   1      31.192  15.869 -24.316  0.00  0.00     0.000 A 
ATOM     19  C   UNL d   1      30.010  15.689 -25.096  0.00  0.00     0.000 C 
ATOM     20  C   UNL d   1      31.728  16.372 -23.932  0.00  0.00     0.002 A 
ENDBRANCH   3  14
TORSDOF 3
ENDMDL
MODEL 4
REMARK VINA RESULT:      -2.4      1.178      1.801
REMARK  3 active torsions:
REMARK  status: ('A' for Active; 'I' for Inactive)
REMARK    1  A    between atoms: N_3  and  C_1 
REMARK       I    between atoms: C_5  and  N_3 
REMARK    2  A    between atoms: C_4  and  C_5 
REMARK    3  A    between atoms: C_12  and  C_6 
ROOT
ATOM      1  C   UNL d   1      32.976  20.248 -22.520  0.00  0.00     0.249 A 
ATOM      2  N   UNL d   1      32.859  20.552 -21.759  0.00  0.00    -0.210 NA
ATOM      3  C   UNL d   1      33.024  21.370 -21.782  0.00  0.00     0.091 A 
ATOM      4  S   UNL d   1      33.211  20.860 -23.019  0.00  0.00    -0.033 SA
ATOM      5  C   UNL d   1      33.241  21.562 -22.555  0.00  0.00     0.059 A 
ENDROOT
BRANCH   1   6
ATOM      6  N   UNL d   1      32.873  19.461 -22.741  0.00  0.00    -0.337 NA
ATOM      7  C   UNL d   1      32.891  18.636 -22.734  0.00  0.00     0.355 C 
ATOM      8  O   UNL d   1      33.236  18.231 -22.096  0.00  0.00    -0.249 OA
BRANCH   7   9
ATOM      9  C   UNL d   1      32.563  18.206 -23.365  0.00  0.00     0.197 A 
ATOM     10  O   UNL d   1      31.908  18.434 -23.833  0.00  0.00    -0.205 OA
ATOM     11  N   UNL d   1      31.777  17.839 -24.395  0.00  0.00    -0.124 NA
ATOM     12  C   UNL d   1      32.345  17.246 -24.279  0.00  0.00     0.130 A 
ATOM     13  C   UNL d   1      32.834  17.467 -23.645  0.00  0.00     0.056 A 
ENDBRANCH   7   9
ENDBRANCH   1   6
BRANCH   3  14
ATOM     14  C   UNL d   1      32.980  21.891 -21.150  0.00  0.00     0.018 A 
ATOM     15  C   UNL d   1      33.075  21.616 -20.385  0.00  0.00     0.002 A 
ATOM     16  C   UNL d   1      33.030  22.138 -19.748  0.00  0.00     0.000 A 
ATOM     17  C   UNL d   1      32.890  22.938 -19.889  0.00  0.00     0.000 A 
ATOM     18  C   UNL d   1      32.794  23.220 -20.657  0.00  0.00     0.000 A 
ATOM     19  C   UNL d   1      32.844  23.467 -19.252  0.00  0.00     0.000 C 
ATOM     20  C   UNL d   1      32.839  22.691 -21.294  0.00  0.00     0.002 A 
ENDBRANCH   3  14
TORSDOF 3
ENDMDL
MODEL 5
REMARK VINA RESULT:      -1.7      2.168      3.526
REMARK  3 active torsions:
REMARK  status: ('A' for Active; 'I' for Inactive)
REMARK    1  A    between atoms: N_3  and  C_1 
REMARK       I    between atoms: C_5  and  N_3 
REMARK    2  A    between atoms: C_4  and  C_5 
REMARK    3  A    between atoms: C_12  and  C_6 
ROOT
ATOM      1  C   UNL d   1      32.980  21.314 -20.817  0.00  0.00     0.249 A 
ATOM      2  N   UNL d   1      33.020  21.414 -19.996  0.00  0.00    -0.210 NA
ATOM      3  C   UNL d   1      32.948  22.230 -19.835  0.00  0.00     0.091 A 
ATOM      4  S   UNL d   1      32.885  22.050 -21.172  0.00  0.00    -0.033 SA
ATOM      5  C   UNL d   1      32.865  22.624 -20.555  0.00  0.00     0.059 A 
ENDROOT
BRANCH   1   6
ATOM      6  N   UNL d   1      33.029  20.592 -21.212  0.00  0.00    -0.337 NA
ATOM      7  C   UNL d   1      33.112  19.786 -21.364  0.00  0.00     0.355 C 
ATOM      8  O   UNL d   1      33.241  19.254 -20.739  0.00  0.00    -0.249 OA
BRANCH   7   9
ATOM      9  C   UNL d   1      33.068  19.501 -22.144  0.00  0.00     0.197 A 
ATOM     10  O   UNL d   1      32.902  19.953 -22.828  0.00  0.00    -0.205 OA
ATOM     11  N   UNL d   1      32.915  19.442 -23.480  0.00  0.00    -0.124 NA
ATOM     12  C   UNL d   1      33.087  18.678 -23.206  0.00  0.00     0.130 A 
ATOM     13  C   UNL d   1      33.183  18.708 -22.381  0.00  0.00     0.056 A 
ENDBRANCH   7   9
ENDBRANCH   1   6
BRANCH   3  14
ATOM     14  C   UNL d   1      32.958  22.579 -19.093  0.00  0.00     0.018 A 
ATOM     15  C   UNL d   1      32.702  23.350 -18.998  0.00  0.00     0.002 A 
ATOM     16  C   UNL d   1      32.711  23.702 -18.253  0.00  0.00     0.000 A 
ATOM     17  C   UNL d   1      32.980  23.271 -17.604  0.00  0.00     0.000 A 
ATOM     18  C   UNL d   1      33.240  22.494 -17.693  0.00  0.00     0.000 A 
ATOM     19  C   UNL d   1      32.992  23.621 -16.852  0.00  0.00     0.000 C 
ATOM     20  C   UNL d   1      33.228  22.145 -18.445  0.00  0.00     0.002 A 
ENDBRANCH   3  14
TORSDOF 3
ENDMDL
MODEL 6
REMARK VINA RESULT:      -0.2      4.708      6.262
REMARK  3 active torsions:
REMARK  status: ('A' for Active; 'I' for Inactive)
REMARK    1  A    between atoms: N_3  and  C_1 
REMARK       I    between atoms: C_5  and  N_3 
REMARK    2  A    between atoms: C_4  and  C_5 
REMARK    3  A    between atoms: C_12  and  C_6 
ROOT
ATOM      1  C   UNL d   1      32.837  22.397 -19.601  0.00  0.00     0.249 A 
ATOM      2  N   UNL d   1      32.622  22.798 -20.293  0.00  0.00    -0.210 NA
ATOM      3  C   UNL d   1      32.873  22.340 -20.943  0.00  0.00     0.091 A 
ATOM      4  S   UNL d   1      33.218  21.697 -19.807  0.00  0.00    -0.033 SA
ATOM      5  C   UNL d   1      33.239  21.662 -20.648  0.00  0.00     0.059 A 
ENDROOT
BRANCH   1   6
ATOM      6  N   UNL d   1      32.693  22.659 -18.833  0.00  0.00    -0.337 NA
ATOM      7  C   UNL d   1      32.394  23.085 -18.193  0.00  0.00     0.355 C 
ATOM      8  O   UNL d   1      31.852  23.702 -18.319  0.00  0.00    -0.249 OA
BRANCH   7   9
ATOM      9  C   UNL d   1      32.634  22.900 -17.420  0.00  0.00     0.197 A 
ATOM     10  O   UNL d   1      32.638  22.140 -17.071  0.00  0.00    -0.205 OA
ATOM     11  N   UNL d   1      32.919  22.217 -16.295  0.00  0.00    -0.124 NA
ATOM     12  C   UNL d   1      33.088  23.018 -16.161  0.00  0.00     0.130 A 
ATOM     13  C   UNL d   1      32.914  23.444 -16.851  0.00  0.00     0.056 A 
ENDBRANCH   7   9
ENDBRANCH   1   6
BRANCH   3  14
ATOM     14  C   UNL d   1      32.773  22.528 -21.735  0.00  0.00     0.018 A 
ATOM     15  C   UNL d   1      32.506  23.271 -21.950  0.00  0.00     0.002 A 
ATOM     16  C   UNL d   1      32.405  23.463 -22.745  0.00  0.00     0.000 A 
ATOM     17  C   UNL d   1      32.576  22.899 -23.322  0.00  0.00     0.000 A 
ATOM     18  C   UNL d   1      32.845  22.149 -23.112  0.00  0.00     0.000 A 
ATOM     19  C   UNL d   1      32.476  23.086 -24.124  0.00  0.00     0.000 C 
ATOM     20  C   UNL d   1      32.945  21.962 -22.310  0.00  0.00     0.002 A 
ENDBRANCH   3  14
TORSDOF 3
ENDMDL
