MODEL 1
REMARK VINA RESULT:     123.8      0.000      0.000
REMARK  5 active torsions:
REMARK  status: ('A' for Active; 'I' for Inactive)
REMARK    1  A    between atoms: C_11  and  C_1 
REMARK    2  A    between atoms: O_19  and  C_11 
REMARK    3  A    between atoms: C_16  and  N_12 
REMARK    4  A    between atoms: C_18  and  C_16 
REMARK    5  A    between atoms: C_26  and  O_19 
ROOT
ATOM      1  C   UNL d   1      59.666  46.812  51.081  0.00  0.00     0.088 A 
ATOM      2  C   UNL d   1      59.916  47.575  50.933  0.00  0.00     0.033 A 
ATOM      3  C   UNL d   1      59.483  48.290  50.845  0.00  0.00     0.043 A 
ATOM      4  C   UNL d   1      60.738  47.572  50.870  0.00  0.00     0.100 A 
ATOM      5  C   UNL d   1      60.349  46.325  51.110  0.00  0.00     0.105 A 
ATOM      6  O   UNL d   1      61.009  46.806  50.978  0.00  0.00    -0.307 OA
ATOM      7  C   UNL d   1      59.891  48.988  50.696  0.00  0.00     0.103 A 
ATOM      8  O   UNL d   1      59.474  49.701  50.608  0.00  0.00    -0.288 OA
ATOM      9  C   UNL d   1      61.137  48.288  50.718  0.00  0.00     0.025 A 
ATOM     10  C   UNL d   1      60.710  48.992  50.632  0.00  0.00     0.025 A 
ATOM     11  N   UNL d   1      58.250  48.992  50.822  0.00  0.00    -0.282 N 
ATOM     12  C   UNL d   1      58.673  48.286  50.909  0.00  0.00     0.084 A 
ATOM     13  C   UNL d   1      58.652  49.700  50.671  0.00  0.00     0.209 A 
ATOM     14  C   UNL d   1      60.357  45.511  51.247  0.00  0.00     0.027 C 
ATOM     15  C   UNL d   1      61.958  48.285  50.655  0.00  0.00     0.002 A 
ATOM     16  C   UNL d   1      61.105  49.696  50.483  0.00  0.00     0.002 A 
ATOM     17  C   UNL d   1      62.353  48.998  50.504  0.00  0.00     0.000 A 
ATOM     18  C   UNL d   1      61.929  49.698  50.418  0.00  0.00     0.000 A 
ENDROOT
BRANCH  11  19
ATOM     19  C   UNL d   1      57.434  49.000  50.884  0.00  0.00     0.084 C 
BRANCH  19  20
ATOM     20  C   UNL d   1      56.969  49.006  50.195  0.00  0.00     0.037 A 
ATOM     21  C   UNL d   1      56.960  49.675  49.709  0.00  0.00     0.100 A 
ATOM     22  N   UNL d   1      56.501  49.677  49.031  0.00  0.00    -0.242 NA
ATOM     23  C   UNL d   1      56.048  49.019  48.830  0.00  0.00     0.099 A 
ATOM     24  C   UNL d   1      56.060  48.359  49.315  0.00  0.00     0.021 A 
ATOM     25  C   UNL d   1      56.520  48.346  50.000  0.00  0.00     0.005 A 
ENDBRANCH  19  20
ENDBRANCH  11  19
BRANCH   1  26
ATOM     26  C   UNL d   1      58.888  46.573  51.181  0.00  0.00     0.302 C 
ATOM     27  O   UNL d   1      58.279  47.117  51.185  0.00  0.00    -0.259 OA
BRANCH  26  28
ATOM     28  O   UNL d   1      58.710  45.766  51.281  0.00  0.00    -0.271 OA
BRANCH  28  29
ATOM     29  C   UNL d   1      58.019  45.471  50.965  0.00  0.00     0.126 C 
ATOM     30  C   UNL d   1      57.896  44.659  50.924  0.00  0.00     0.029 C 
ENDBRANCH  28  29
ENDBRANCH  26  28
ENDBRANCH   1  26
TORSDOF 5
ENDMDL
MODEL 2
REMARK VINA RESULT:     124.0      0.826      2.890
REMARK  5 active torsions:
REMARK  status: ('A' for Active; 'I' for Inactive)
REMARK    1  A    between atoms: C_11  and  C_1 
REMARK    2  A    between atoms: O_19  and  C_11 
REMARK    3  A    between atoms: C_16  and  N_12 
REMARK    4  A    between atoms: C_18  and  C_16 
REMARK    5  A    between atoms: C_26  and  O_19 
ROOT
ATOM      1  C   UNL d   1      60.975  48.431  50.517  0.00  0.00     0.088 A 
ATOM      2  C   UNL d   1      60.503  47.784  50.675  0.00  0.00     0.033 A 
ATOM      3  C   UNL d   1      59.681  47.728  50.840  0.00  0.00     0.043 A 
ATOM      4  C   UNL d   1      60.974  47.107  50.655  0.00  0.00     0.100 A 
ATOM      5  C   UNL d   1      61.756  48.148  50.396  0.00  0.00     0.105 A 
ATOM      6  O   UNL d   1      61.745  47.325  50.484  0.00  0.00    -0.307 OA
ATOM      7  C   UNL d   1      59.352  46.988  50.980  0.00  0.00     0.103 A 
ATOM      8  O   UNL d   1      58.540  46.920  51.144  0.00  0.00    -0.288 OA
ATOM      9  C   UNL d   1      60.625  46.364  50.800  0.00  0.00     0.025 A 
ATOM     10  C   UNL d   1      59.815  46.309  50.962  0.00  0.00     0.025 A 
ATOM     11  N   UNL d   1      58.414  48.339  51.020  0.00  0.00    -0.282 N 
ATOM     12  C   UNL d   1      59.223  48.398  50.858  0.00  0.00     0.084 A 
ATOM     13  C   UNL d   1      58.073  47.598  51.163  0.00  0.00     0.209 A 
ATOM     14  C   UNL d   1      62.416  48.612  50.220  0.00  0.00     0.027 C 
ATOM     15  C   UNL d   1      61.095  45.688  50.780  0.00  0.00     0.002 A 
ATOM     16  C   UNL d   1      59.473  45.577  51.104  0.00  0.00     0.002 A 
ATOM     17  C   UNL d   1      60.746  44.950  50.925  0.00  0.00     0.000 A 
ATOM     18  C   UNL d   1      59.941  44.895  51.086  0.00  0.00     0.000 A 
ENDROOT
BRANCH  11  19
ATOM     19  C   UNL d   1      57.943  49.008  51.041  0.00  0.00     0.084 C 
BRANCH  19  20
ATOM     20  C   UNL d   1      57.342  49.106  50.476  0.00  0.00     0.037 A 
ATOM     21  C   UNL d   1      56.629  48.693  50.555  0.00  0.00     0.100 A 
ATOM     22  N   UNL d   1      56.039  48.792  49.996  0.00  0.00    -0.242 NA
ATOM     23  C   UNL d   1      56.149  49.299  49.357  0.00  0.00     0.099 A 
ATOM     24  C   UNL d   1      56.856  49.706  49.282  0.00  0.00     0.021 A 
ATOM     25  C   UNL d   1      57.457  49.613  49.840  0.00  0.00     0.005 A 
ENDBRANCH  19  20
ENDBRANCH  11  19
BRANCH   1  26
ATOM     26  C   UNL d   1      60.724  49.211  50.484  0.00  0.00     0.302 C 
ATOM     27  O   UNL d   1      60.379  49.512  49.808  0.00  0.00    -0.259 OA
BRANCH  26  28
ATOM     28  O   UNL d   1      60.820  49.706  51.145  0.00  0.00    -0.271 OA
BRANCH  28  29
ATOM     29  C   UNL d   1      60.969  49.371  51.874  0.00  0.00     0.126 C 
ATOM     30  C   UNL d   1      61.586  49.649  52.340  0.00  0.00     0.029 C 
ENDBRANCH  28  29
ENDBRANCH  26  28
ENDBRANCH   1  26
TORSDOF 5
ENDMDL
