MODEL 1
REMARK VINA RESULT:      -6.3      0.000      0.000
REMARK  4 active torsions:
REMARK  status: ('A' for Active; 'I' for Inactive)
REMARK    1  A    between atoms: N_7  and  C_3 
REMARK       I    between atoms: C_8  and  N_7 
REMARK    2  A    between atoms: C_10  and  C_8 
REMARK    3  A    between atoms: C_12  and  C_10 
REMARK    4  A    between atoms: C_16  and  C_12 
ROOT
ATOM      1  N   UNL d   1     -48.211  13.838  22.002  0.00  0.00    -0.190 NA
ATOM      2  C   UNL d   1     -47.622  13.675  22.553  0.00  0.00     0.281 C 
ATOM      3  O   UNL d   1     -47.739  13.859  23.348  0.00  0.00    -0.265 OA
ENDROOT
BRANCH   1   4
ATOM      4  C   UNL d   1     -48.920  14.187  22.244  0.00  0.00     0.159 A 
ATOM      5  N   UNL d   1     -49.641  13.873  22.005  0.00  0.00    -0.241 N 
ATOM      6  C   UNL d   1     -50.341  14.218  22.246  0.00  0.00     0.343 A 
ATOM      7  C   UNL d   1     -49.656  13.205  21.521  0.00  0.00     0.105 C 
ATOM      8  N   UNL d   1     -50.326  14.886  22.730  0.00  0.00    -0.224 N 
ATOM      9  O   UNL d   1     -51.064  13.901  22.004  0.00  0.00    -0.245 OA
ATOM     10  C   UNL d   1     -49.610  15.214  22.980  0.00  0.00     0.271 A 
ATOM     11  C   UNL d   1     -51.034  15.236  22.974  0.00  0.00     0.107 C 
ATOM     12  C   UNL d   1     -48.905  14.854  22.729  0.00  0.00     0.099 A 
ATOM     13  O   UNL d   1     -49.595  15.875  23.460  0.00  0.00    -0.266 OA
ENDBRANCH   1   4
BRANCH   2  14
ATOM     14  C   UNL d   1     -46.917  13.327  22.309  0.00  0.00     0.063 C 
BRANCH  14  15
ATOM     15  C   UNL d   1     -46.308  13.222  22.847  0.00  0.00     0.005 C 
BRANCH  15  16
ATOM     16  C   UNL d   1     -45.593  12.918  22.607  0.00  0.00     0.000 A 
ATOM     17  C   UNL d   1     -45.335  12.196  22.921  0.00  0.00     0.000 A 
ATOM     18  C   UNL d   1     -44.601  11.877  22.678  0.00  0.00     0.000 A 
ATOM     19  C   UNL d   1     -44.150  12.279  22.138  0.00  0.00     0.000 A 
ATOM     20  C   UNL d   1     -44.404  12.999  21.823  0.00  0.00     0.000 A 
ATOM     21  C   UNL d   1     -45.137  13.318  22.064  0.00  0.00     0.000 A 
ENDBRANCH  15  16
ENDBRANCH  14  15
ENDBRANCH   2  14
TORSDOF 4
ENDMDL
MODEL 2
REMARK VINA RESULT:      -6.0      1.352      2.009
REMARK  4 active torsions:
REMARK  status: ('A' for Active; 'I' for Inactive)
REMARK    1  A    between atoms: N_7  and  C_3 
REMARK       I    between atoms: C_8  and  N_7 
REMARK    2  A    between atoms: C_10  and  C_8 
REMARK    3  A    between atoms: C_12  and  C_10 
REMARK    4  A    between atoms: C_16  and  C_12 
ROOT
ATOM      1  N   UNL d   1     -47.200  13.228  23.329  0.00  0.00    -0.190 NA
ATOM      2  C   UNL d   1     -47.055  12.424  23.234  0.00  0.00     0.281 C 
ATOM      3  O   UNL d   1     -47.659  11.922  22.981  0.00  0.00    -0.265 OA
ENDROOT
BRANCH   1   4
ATOM      4  C   UNL d   1     -47.951  13.535  23.171  0.00  0.00     0.159 A 
ATOM      5  N   UNL d   1     -48.032  14.271  22.815  0.00  0.00    -0.241 N 
ATOM      6  C   UNL d   1     -48.775  14.574  22.659  0.00  0.00     0.343 A 
ATOM      7  C   UNL d   1     -47.360  14.706  22.615  0.00  0.00     0.105 C 
ATOM      8  N   UNL d   1     -49.447  14.139  22.859  0.00  0.00    -0.224 N 
ATOM      9  O   UNL d   1     -48.855  15.314  22.301  0.00  0.00    -0.245 OA
ATOM     10  C   UNL d   1     -49.383  13.398  23.217  0.00  0.00     0.271 A 
ATOM     11  C   UNL d   1     -50.199  14.445  22.701  0.00  0.00     0.107 C 
ATOM     12  C   UNL d   1     -48.624  13.101  23.371  0.00  0.00     0.099 A 
ATOM     13  O   UNL d   1     -50.049  12.967  23.415  0.00  0.00    -0.266 OA
ENDBRANCH   1   4
BRANCH   2  14
ATOM     14  C   UNL d   1     -46.306  12.120  23.392  0.00  0.00     0.063 C 
BRANCH  14  15
ATOM     15  C   UNL d   1     -46.142  11.335  23.225  0.00  0.00     0.005 C 
BRANCH  15  16
ATOM     16  C   UNL d   1     -45.379  11.057  23.263  0.00  0.00     0.000 A 
ATOM     17  C   UNL d   1     -45.230  10.342  23.653  0.00  0.00     0.000 A 
ATOM     18  C   UNL d   1     -44.447  10.048  23.696  0.00  0.00     0.000 A 
ATOM     19  C   UNL d   1     -43.844  10.468  23.355  0.00  0.00     0.000 A 
ATOM     20  C   UNL d   1     -43.990  11.182  22.965  0.00  0.00     0.000 A 
ATOM     21  C   UNL d   1     -44.769  11.475  22.922  0.00  0.00     0.000 A 
ENDBRANCH  15  16
ENDBRANCH  14  15
ENDBRANCH   2  14
TORSDOF 4
ENDMDL
MODEL 3
REMARK VINA RESULT:      -5.6      8.824      9.462
REMARK  4 active torsions:
REMARK  status: ('A' for Active; 'I' for Inactive)
REMARK    1  A    between atoms: N_7  and  C_3 
REMARK       I    between atoms: C_8  and  N_7 
REMARK    2  A    between atoms: C_10  and  C_8 
REMARK    3  A    between atoms: C_12  and  C_10 
REMARK    4  A    between atoms: C_16  and  C_12 
ROOT
ATOM      1  N   UNL d   1     -38.981  14.557  19.499  0.00  0.00    -0.190 NA
ATOM      2  C   UNL d   1     -39.364  14.639  20.222  0.00  0.00     0.281 C 
ATOM      3  O   UNL d   1     -40.154  14.876  20.247  0.00  0.00    -0.265 OA
ENDROOT
BRANCH   1   4
ATOM      4  C   UNL d   1     -39.387  14.711  18.795  0.00  0.00     0.159 A 
ATOM      5  N   UNL d   1     -39.078  15.236  18.244  0.00  0.00    -0.241 N 
ATOM      6  C   UNL d   1     -39.480  15.388  17.549  0.00  0.00     0.343 A 
ATOM      7  C   UNL d   1     -38.359  15.611  18.393  0.00  0.00     0.105 C 
ATOM      8  N   UNL d   1     -40.200  15.013  17.399  0.00  0.00    -0.224 N 
ATOM      9  O   UNL d   1     -39.168  15.916  16.995  0.00  0.00    -0.245 OA
ATOM     10  C   UNL d   1     -40.524  14.482  17.943  0.00  0.00     0.271 A 
ATOM     11  C   UNL d   1     -40.607  15.166  16.696  0.00  0.00     0.107 C 
ATOM     12  C   UNL d   1     -40.107  14.336  18.645  0.00  0.00     0.099 A 
ATOM     13  O   UNL d   1     -41.237  14.111  17.794  0.00  0.00    -0.266 OA
ENDBRANCH   1   4
BRANCH   2  14
ATOM     14  C   UNL d   1     -38.958  14.486  20.922  0.00  0.00     0.063 C 
BRANCH  14  15
ATOM     15  C   UNL d   1     -39.375  14.307  21.603  0.00  0.00     0.005 C 
BRANCH  15  16
ATOM     16  C   UNL d   1     -38.983  14.146  22.297  0.00  0.00     0.000 A 
ATOM     17  C   UNL d   1     -38.835  13.358  22.504  0.00  0.00     0.000 A 
ATOM     18  C   UNL d   1     -38.432  13.184  23.216  0.00  0.00     0.000 A 
ATOM     19  C   UNL d   1     -38.190  13.791  23.696  0.00  0.00     0.000 A 
ATOM     20  C   UNL d   1     -38.335  14.579  23.492  0.00  0.00     0.000 A 
ATOM     21  C   UNL d   1     -38.738  14.752  22.782  0.00  0.00     0.000 A 
ENDBRANCH  15  16
ENDBRANCH  14  15
ENDBRANCH   2  14
TORSDOF 4
ENDMDL
MODEL 4
REMARK VINA RESULT:      -5.4      8.700      9.604
REMARK  4 active torsions:
REMARK  status: ('A' for Active; 'I' for Inactive)
REMARK    1  A    between atoms: N_7  and  C_3 
REMARK       I    between atoms: C_8  and  N_7 
REMARK    2  A    between atoms: C_10  and  C_8 
REMARK    3  A    between atoms: C_12  and  C_10 
REMARK    4  A    between atoms: C_16  and  C_12 
ROOT
ATOM      1  N   UNL d   1     -39.070  14.978  20.798  0.00  0.00    -0.190 NA
ATOM      2  C   UNL d   1     -39.693  14.678  20.352  0.00  0.00     0.281 C 
ATOM      3  O   UNL d   1     -40.129  14.036  20.631  0.00  0.00    -0.265 OA
ENDROOT
BRANCH   1   4
ATOM      4  C   UNL d   1     -38.880  14.636  21.526  0.00  0.00     0.159 A 
ATOM      5  N   UNL d   1     -38.880  15.091  22.211  0.00  0.00    -0.241 N 
ATOM      6  C   UNL d   1     -38.692  14.752  22.930  0.00  0.00     0.343 A 
ATOM      7  C   UNL d   1     -39.072  15.892  22.170  0.00  0.00     0.105 C 
ATOM      8  N   UNL d   1     -38.500  13.951  22.970  0.00  0.00    -0.224 N 
ATOM      9  O   UNL d   1     -38.693  15.210  23.617  0.00  0.00    -0.245 OA
ATOM     10  C   UNL d   1     -38.495  13.480  22.292  0.00  0.00     0.271 A 
ATOM     11  C   UNL d   1     -38.310  13.608  23.698  0.00  0.00     0.107 C 
ATOM     12  C   UNL d   1     -38.688  13.835  21.567  0.00  0.00     0.099 A 
ATOM     13  O   UNL d   1     -38.305  12.687  22.332  0.00  0.00    -0.266 OA
ENDBRANCH   1   4
BRANCH   2  14
ATOM     14  C   UNL d   1     -39.881  15.020  19.627  0.00  0.00     0.063 C 
BRANCH  14  15
ATOM     15  C   UNL d   1     -40.388  14.632  19.113  0.00  0.00     0.005 C 
BRANCH  15  16
ATOM     16  C   UNL d   1     -40.501  14.909  18.358  0.00  0.00     0.000 A 
ATOM     17  C   UNL d   1     -40.931  15.608  18.244  0.00  0.00     0.000 A 
ATOM     18  C   UNL d   1     -41.052  15.900  17.469  0.00  0.00     0.000 A 
ATOM     19  C   UNL d   1     -40.745  15.494  16.838  0.00  0.00     0.000 A 
ATOM     20  C   UNL d   1     -40.316  14.797  16.948  0.00  0.00     0.000 A 
ATOM     21  C   UNL d   1     -40.195  14.506  17.720  0.00  0.00     0.000 A 
ENDBRANCH  15  16
ENDBRANCH  14  15
ENDBRANCH   2  14
TORSDOF 4
ENDMDL
MODEL 5
REMARK VINA RESULT:      -5.0      8.470     10.629
REMARK  4 active torsions:
REMARK  status: ('A' for Active; 'I' for Inactive)
REMARK    1  A    between atoms: N_7  and  C_3 
REMARK       I    between atoms: C_8  and  N_7 
REMARK    2  A    between atoms: C_10  and  C_8 
REMARK    3  A    between atoms: C_12  and  C_10 
REMARK    4  A    between atoms: C_16  and  C_12 
ROOT
ATOM      1  N   UNL d   1     -38.891  14.917  17.723  0.00  0.00    -0.190 NA
ATOM      2  C   UNL d   1     -39.460  14.562  18.200  0.00  0.00     0.281 C 
ATOM      3  O   UNL d   1     -39.793  13.841  17.979  0.00  0.00    -0.265 OA
ENDROOT
BRANCH   1   4
ATOM      4  C   UNL d   1     -38.653  14.551  17.021  0.00  0.00     0.159 A 
ATOM      5  N   UNL d   1     -38.563  14.992  16.334  0.00  0.00    -0.241 N 
ATOM      6  C   UNL d   1     -38.327  14.630  15.640  0.00  0.00     0.343 A 
ATOM      7  C   UNL d   1     -38.710  15.804  16.345  0.00  0.00     0.105 C 
ATOM      8  N   UNL d   1     -38.180  13.819  15.628  0.00  0.00    -0.224 N 
ATOM      9  O   UNL d   1     -38.237  15.076  14.950  0.00  0.00    -0.245 OA
ATOM     10  C   UNL d   1     -38.267  13.361  16.310  0.00  0.00     0.271 A 
ATOM     11  C   UNL d   1     -37.942  13.452  14.926  0.00  0.00     0.107 C 
ATOM     12  C   UNL d   1     -38.506  13.740  17.009  0.00  0.00     0.099 A 
ATOM     13  O   UNL d   1     -38.121  12.557  16.298  0.00  0.00    -0.266 OA
ENDBRANCH   1   4
BRANCH   2  14
ATOM     14  C   UNL d   1     -39.695  14.927  18.900  0.00  0.00     0.063 C 
BRANCH  14  15
ATOM     15  C   UNL d   1     -40.334  14.631  19.319  0.00  0.00     0.005 C 
BRANCH  15  16
ATOM     16  C   UNL d   1     -40.543  14.953  20.035  0.00  0.00     0.000 A 
ATOM     17  C   UNL d   1     -41.079  15.584  20.052  0.00  0.00     0.000 A 
ATOM     18  C   UNL d   1     -41.300  15.922  20.785  0.00  0.00     0.000 A 
ATOM     19  C   UNL d   1     -40.984  15.627  21.471  0.00  0.00     0.000 A 
ATOM     20  C   UNL d   1     -40.448  14.998  21.457  0.00  0.00     0.000 A 
ATOM     21  C   UNL d   1     -40.228  14.661  20.727  0.00  0.00     0.000 A 
ENDBRANCH  15  16
ENDBRANCH  14  15
ENDBRANCH   2  14
TORSDOF 4
ENDMDL
MODEL 6
REMARK VINA RESULT:      -4.6      8.209      9.952
REMARK  4 active torsions:
REMARK  status: ('A' for Active; 'I' for Inactive)
REMARK    1  A    between atoms: N_7  and  C_3 
REMARK       I    between atoms: C_8  and  N_7 
REMARK    2  A    between atoms: C_10  and  C_8 
REMARK    3  A    between atoms: C_12  and  C_10 
REMARK    4  A    between atoms: C_16  and  C_12 
ROOT
ATOM      1  N   UNL d   1     -39.072  15.563  19.154  0.00  0.00    -0.190 NA
ATOM      2  C   UNL d   1     -39.213  14.876  18.724  0.00  0.00     0.281 C 
ATOM      3  O   UNL d   1     -39.604  14.241  19.077  0.00  0.00    -0.265 OA
ENDROOT
BRANCH   1   4
ATOM      4  C   UNL d   1     -39.322  15.619  19.940  0.00  0.00     0.159 A 
ATOM      5  N   UNL d   1     -38.776  15.742  20.541  0.00  0.00    -0.241 N 
ATOM      6  C   UNL d   1     -39.024  15.797  21.318  0.00  0.00     0.343 A 
ATOM      7  C   UNL d   1     -37.975  15.811  20.359  0.00  0.00     0.105 C 
ATOM      8  N   UNL d   1     -39.826  15.729  21.500  0.00  0.00    -0.224 N 
ATOM      9  O   UNL d   1     -38.474  15.922  21.921  0.00  0.00    -0.245 OA
ATOM     10  C   UNL d   1     -40.387  15.604  20.907  0.00  0.00     0.271 A 
ATOM     11  C   UNL d   1     -40.077  15.784  22.285  0.00  0.00     0.107 C 
ATOM     12  C   UNL d   1     -40.124  15.550  20.122  0.00  0.00     0.099 A 
ATOM     13  O   UNL d   1     -41.181  15.536  21.088  0.00  0.00    -0.266 OA
ENDBRANCH   1   4
BRANCH   2  14
ATOM     14  C   UNL d   1     -38.963  14.822  17.941  0.00  0.00     0.063 C 
BRANCH  14  15
ATOM     15  C   UNL d   1     -39.113  14.140  17.512  0.00  0.00     0.005 C 
BRANCH  15  16
ATOM     16  C   UNL d   1     -38.745  14.013  16.799  0.00  0.00     0.000 A 
ATOM     17  C   UNL d   1     -38.323  13.310  16.682  0.00  0.00     0.000 A 
ATOM     18  C   UNL d   1     -37.941  13.170  15.951  0.00  0.00     0.000 A 
ATOM     19  C   UNL d   1     -37.989  13.728  15.364  0.00  0.00     0.000 A 
ATOM     20  C   UNL d   1     -38.408  14.431  15.477  0.00  0.00     0.000 A 
ATOM     21  C   UNL d   1     -38.789  14.569  16.206  0.00  0.00     0.000 A 
ENDBRANCH  15  16
ENDBRANCH  14  15
ENDBRANCH   2  14
TORSDOF 4
ENDMDL
