MODEL 1
REMARK VINA RESULT:      -3.3      0.000      0.000
REMARK  5 active torsions:
REMARK  status: ('A' for Active; 'I' for Inactive)
REMARK       I    between atoms: N_3  and  C_1 
REMARK    1  A    between atoms: C_6  and  C_1 
REMARK    2  A    between atoms: C_2  and  S_4 
REMARK    3  A    between atoms: C_7  and  N_3 
REMARK    4  A    between atoms: S_4  and  C_8 
REMARK    5  A    between atoms: C_15  and  C_6 
ROOT
ATOM      1  C   UNL d   1      31.190  15.925 -23.915  0.00  0.00     0.085 A 
ATOM      2  C   UNL d   1      29.564  15.938 -23.918  0.00  0.00     0.034 A 
ATOM      3  C   UNL d   1      30.786  16.063 -24.620  0.00  0.00     0.020 A 
ATOM      4  C   UNL d   1      30.791  15.794 -23.216  0.00  0.00     0.020 A 
ATOM      5  C   UNL d   1      29.977  15.799 -23.210  0.00  0.00     0.008 A 
ATOM      6  C   UNL d   1      29.966  16.069 -24.619  0.00  0.00     0.008 A 
ENDROOT
BRANCH   1   7
ATOM      7  N   UNL d   1      32.015  15.919 -23.915  0.00  0.00    -0.208 NA
ATOM      8  C   UNL d   1      32.432  16.625 -23.805  0.00  0.00     0.279 C 
ATOM      9  O   UNL d   1      33.241  16.625 -23.804  0.00  0.00    -0.265 OA
BRANCH   8  10
ATOM     10  C   UNL d   1      32.018  17.323 -23.698  0.00  0.00     0.062 C 
BRANCH  10  11
ATOM     11  C   UNL d   1      32.414  18.017 -23.616  0.00  0.00     0.005 A 
ATOM     12  C   UNL d   1      32.583  18.486 -24.278  0.00  0.00     0.000 A 
ATOM     13  C   UNL d   1      32.997  19.213 -24.196  0.00  0.00     0.000 A 
ATOM     14  C   UNL d   1      33.241  19.461 -23.432  0.00  0.00     0.000 A 
ATOM     15  C   UNL d   1      33.073  18.990 -22.761  0.00  0.00     0.000 A 
ATOM     16  C   UNL d   1      32.660  18.270 -22.860  0.00  0.00     0.000 A 
ENDBRANCH  10  11
ENDBRANCH   8  10
ENDBRANCH   1   7
BRANCH   2  17
ATOM     17  S   UNL d   1      28.747  15.943 -23.913  0.00  0.00    -0.028 SA
BRANCH  17  18
ATOM     18  C   UNL d   1      28.335  16.584 -23.613  0.00  0.00     0.309 C 
ATOM     19  F   UNL d   1      28.030  16.550 -22.859  0.00  0.00    -0.165 F 
ATOM     20  F   UNL d   1      28.228  17.251 -24.059  0.00  0.00    -0.165 F 
ENDBRANCH  17  18
ENDBRANCH   2  17
TORSDOF 5
ENDMDL
MODEL 2
REMARK VINA RESULT:      -3.2      2.299      4.038
REMARK  5 active torsions:
REMARK  status: ('A' for Active; 'I' for Inactive)
REMARK       I    between atoms: N_3  and  C_1 
REMARK    1  A    between atoms: C_6  and  C_1 
REMARK    2  A    between atoms: C_2  and  S_4 
REMARK    3  A    between atoms: C_7  and  N_3 
REMARK    4  A    between atoms: S_4  and  C_8 
REMARK    5  A    between atoms: C_15  and  C_6 
ROOT
ATOM      1  C   UNL d   1      32.196  17.081 -24.335  0.00  0.00     0.085 A 
ATOM      2  C   UNL d   1      32.880  18.341 -23.568  0.00  0.00     0.034 A 
ATOM      3  C   UNL d   1      32.555  16.964 -23.602  0.00  0.00     0.020 A 
ATOM      4  C   UNL d   1      32.176  17.816 -24.686  0.00  0.00     0.020 A 
ATOM      5  C   UNL d   1      32.516  18.452 -24.308  0.00  0.00     0.008 A 
ATOM      6  C   UNL d   1      32.899  17.602 -23.217  0.00  0.00     0.008 A 
ENDROOT
BRANCH   1   7
ATOM      7  N   UNL d   1      31.849  16.440 -24.723  0.00  0.00    -0.208 NA
ATOM      8  C   UNL d   1      31.064  16.238 -24.561  0.00  0.00     0.279 C 
ATOM      9  O   UNL d   1      30.718  15.610 -24.938  0.00  0.00    -0.265 OA
BRANCH   8  10
ATOM     10  C   UNL d   1      30.639  16.677 -24.016  0.00  0.00     0.062 C 
BRANCH  10  11
ATOM     11  C   UNL d   1      29.892  16.460 -23.819  0.00  0.00     0.005 A 
ATOM     12  C   UNL d   1      29.239  16.838 -24.166  0.00  0.00     0.000 A 
ATOM     13  C   UNL d   1      28.455  16.613 -23.962  0.00  0.00     0.000 A 
ATOM     14  C   UNL d   1      28.337  15.999 -23.401  0.00  0.00     0.000 A 
ATOM     15  C   UNL d   1      28.993  15.617 -23.050  0.00  0.00     0.000 A 
ATOM     16  C   UNL d   1      29.767  15.852 -23.263  0.00  0.00     0.000 A 
ENDBRANCH  10  11
ENDBRANCH   8  10
ENDBRANCH   1   7
BRANCH   2  17
ATOM     17  S   UNL d   1      33.221  18.979 -23.189  0.00  0.00    -0.028 SA
BRANCH  17  18
ATOM     18  C   UNL d   1      32.970  19.205 -22.443  0.00  0.00     0.309 C 
ATOM     19  F   UNL d   1      32.442  19.821 -22.366  0.00  0.00    -0.165 F 
ATOM     20  F   UNL d   1      33.240  18.824 -21.783  0.00  0.00    -0.165 F 
ENDBRANCH  17  18
ENDBRANCH   2  17
TORSDOF 5
ENDMDL
MODEL 3
REMARK VINA RESULT:      -1.4      1.881      2.683
REMARK  5 active torsions:
REMARK  status: ('A' for Active; 'I' for Inactive)
REMARK       I    between atoms: N_3  and  C_1 
REMARK    1  A    between atoms: C_6  and  C_1 
REMARK    2  A    between atoms: C_2  and  S_4 
REMARK    3  A    between atoms: C_7  and  N_3 
REMARK    4  A    between atoms: S_4  and  C_8 
REMARK    5  A    between atoms: C_15  and  C_6 
ROOT
ATOM      1  C   UNL d   1      32.465  18.151 -24.598  0.00  0.00     0.085 A 
ATOM      2  C   UNL d   1      31.900  16.647 -24.349  0.00  0.00     0.034 A 
ATOM      3  C   UNL d   1      31.669  18.041 -24.414  0.00  0.00     0.020 A 
ATOM      4  C   UNL d   1      32.978  17.520 -24.658  0.00  0.00     0.020 A 
ATOM      5  C   UNL d   1      32.702  16.764 -24.535  0.00  0.00     0.008 A 
ATOM      6  C   UNL d   1      31.386  17.282 -24.289  0.00  0.00     0.008 A 
ENDROOT
BRANCH   1   7
ATOM      7  N   UNL d   1      32.750  18.915 -24.724  0.00  0.00    -0.208 NA
ATOM      8  C   UNL d   1      32.952  19.390 -24.078  0.00  0.00     0.279 C 
ATOM      9  O   UNL d   1      33.233  20.140 -24.196  0.00  0.00    -0.265 OA
BRANCH   8  10
ATOM     10  C   UNL d   1      32.866  19.095 -23.320  0.00  0.00     0.062 C 
BRANCH  10  11
ATOM     11  C   UNL d   1      32.987  19.574 -22.686  0.00  0.00     0.005 A 
ATOM     12  C   UNL d   1      32.989  20.398 -22.775  0.00  0.00     0.000 A 
ATOM     13  C   UNL d   1      33.116  20.902 -22.114  0.00  0.00     0.000 A 
ATOM     14  C   UNL d   1      33.240  20.560 -21.357  0.00  0.00     0.000 A 
ATOM     15  C   UNL d   1      33.238  19.728 -21.263  0.00  0.00     0.000 A 
ATOM     16  C   UNL d   1      33.111  19.241 -21.931  0.00  0.00     0.000 A 
ENDBRANCH  10  11
ENDBRANCH   8  10
ENDBRANCH   1   7
BRANCH   2  17
ATOM     17  S   UNL d   1      31.622  15.888 -24.225  0.00  0.00    -0.028 SA
BRANCH  17  18
ATOM     18  C   UNL d   1      31.234  15.693 -23.531  0.00  0.00     0.309 C 
ATOM     19  F   UNL d   1      30.421  15.651 -23.523  0.00  0.00    -0.165 F 
ATOM     20  F   UNL d   1      31.650  15.542 -22.853  0.00  0.00    -0.165 F 
ENDBRANCH  17  18
ENDBRANCH   2  17
TORSDOF 5
ENDMDL
MODEL 4
REMARK VINA RESULT:      -0.9      3.864      5.387
REMARK  5 active torsions:
REMARK  status: ('A' for Active; 'I' for Inactive)
REMARK       I    between atoms: N_3  and  C_1 
REMARK    1  A    between atoms: C_6  and  C_1 
REMARK    2  A    between atoms: C_2  and  S_4 
REMARK    3  A    between atoms: C_7  and  N_3 
REMARK    4  A    between atoms: S_4  and  C_8 
REMARK    5  A    between atoms: C_15  and  C_6 
ROOT
ATOM      1  C   UNL d   1      32.749  20.525 -21.388  0.00  0.00     0.085 A 
ATOM      2  C   UNL d   1      32.403  22.114 -21.356  0.00  0.00     0.034 A 
ATOM      3  C   UNL d   1      32.107  20.793 -20.945  0.00  0.00     0.020 A 
ATOM      4  C   UNL d   1      33.216  21.041 -21.812  0.00  0.00     0.020 A 
ATOM      5  C   UNL d   1      33.049  21.838 -21.801  0.00  0.00     0.008 A 
ATOM      6  C   UNL d   1      31.934  21.594 -20.931  0.00  0.00     0.008 A 
ENDROOT
BRANCH   1   7
ATOM      7  N   UNL d   1      32.923  19.719 -21.403  0.00  0.00    -0.208 NA
ATOM      8  C   UNL d   1      32.917  19.311 -22.123  0.00  0.00     0.279 C 
ATOM      9  O   UNL d   1      33.088  18.520 -22.144  0.00  0.00    -0.265 OA
BRANCH   8  10
ATOM     10  C   UNL d   1      32.738  19.714 -22.812  0.00  0.00     0.062 C 
BRANCH  10  11
ATOM     11  C   UNL d   1      32.729  19.325 -23.515  0.00  0.00     0.005 A 
ATOM     12  C   UNL d   1      32.231  18.671 -23.628  0.00  0.00     0.000 A 
ATOM     13  C   UNL d   1      32.219  18.261 -24.362  0.00  0.00     0.000 A 
ATOM     14  C   UNL d   1      32.719  18.522 -24.985  0.00  0.00     0.000 A 
ATOM     15  C   UNL d   1      33.223  19.182 -24.874  0.00  0.00     0.000 A 
ATOM     16  C   UNL d   1      33.223  19.578 -24.138  0.00  0.00     0.000 A 
ENDBRANCH  10  11
ENDBRANCH   8  10
ENDBRANCH   1   7
BRANCH   2  17
ATOM     17  S   UNL d   1      32.235  22.913 -21.344  0.00  0.00    -0.028 SA
BRANCH  17  18
ATOM     18  C   UNL d   1      32.442  23.393 -21.974  0.00  0.00     0.309 C 
ATOM     19  F   UNL d   1      31.890  23.567 -22.547  0.00  0.00    -0.165 F 
ATOM     20  F   UNL d   1      33.190  23.696 -22.034  0.00  0.00    -0.165 F 
ENDBRANCH  17  18
ENDBRANCH   2  17
TORSDOF 5
ENDMDL
MODEL 5
REMARK VINA RESULT:      -0.7      1.550      1.953
REMARK  5 active torsions:
REMARK  status: ('A' for Active; 'I' for Inactive)
REMARK       I    between atoms: N_3  and  C_1 
REMARK    1  A    between atoms: C_6  and  C_1 
REMARK    2  A    between atoms: C_2  and  S_4 
REMARK    3  A    between atoms: C_7  and  N_3 
REMARK    4  A    between atoms: S_4  and  C_8 
REMARK    5  A    between atoms: C_15  and  C_6 
ROOT
ATOM      1  C   UNL d   1      29.391  17.286 -24.731  0.00  0.00     0.085 A 
ATOM      2  C   UNL d   1      28.456  16.070 -24.194  0.00  0.00     0.034 A 
ATOM      3  C   UNL d   1      28.846  17.428 -24.129  0.00  0.00     0.020 A 
ATOM      4  C   UNL d   1      29.473  16.546 -25.064  0.00  0.00     0.020 A 
ATOM      5  C   UNL d   1      29.008  15.933 -24.800  0.00  0.00     0.008 A 
ATOM      6  C   UNL d   1      28.375  16.813 -23.860  0.00  0.00     0.008 A 
ENDROOT
BRANCH   1   7
ATOM      7  N   UNL d   1      29.866  17.904 -25.002  0.00  0.00    -0.208 NA
ATOM      8  C   UNL d   1      30.675  17.906 -24.833  0.00  0.00     0.279 C 
ATOM      9  O   UNL d   1      31.145  18.510 -25.097  0.00  0.00    -0.265 OA
BRANCH   8  10
ATOM     10  C   UNL d   1      30.996  17.292 -24.397  0.00  0.00     0.062 C 
BRANCH  10  11
ATOM     11  C   UNL d   1      31.707  17.385 -24.035  0.00  0.00     0.005 A 
ATOM     12  C   UNL d   1      32.347  16.894 -24.230  0.00  0.00     0.000 A 
ATOM     13  C   UNL d   1      33.092  16.989 -23.853  0.00  0.00     0.000 A 
ATOM     14  C   UNL d   1      33.184  17.588 -23.272  0.00  0.00     0.000 A 
ATOM     15  C   UNL d   1      32.540  18.085 -23.072  0.00  0.00     0.000 A 
ATOM     16  C   UNL d   1      31.806  17.978 -23.457  0.00  0.00     0.000 A 
ENDBRANCH  10  11
ENDBRANCH   8  10
ENDBRANCH   1   7
BRANCH   2  17
ATOM     17  S   UNL d   1      27.989  15.454 -23.929  0.00  0.00    -0.028 SA
BRANCH  17  18
ATOM     18  C   UNL d   1      27.373  15.591 -23.407  0.00  0.00     0.309 C 
ATOM     19  F   UNL d   1      27.521  15.617 -22.607  0.00  0.00    -0.165 F 
ATOM     20  F   UNL d   1      26.618  15.700 -23.679  0.00  0.00    -0.165 F 
ENDBRANCH  17  18
ENDBRANCH   2  17
TORSDOF 5
ENDMDL
MODEL 6
REMARK VINA RESULT:      -0.4      6.292      7.866
REMARK  5 active torsions:
REMARK  status: ('A' for Active; 'I' for Inactive)
REMARK       I    between atoms: N_3  and  C_1 
REMARK    1  A    between atoms: C_6  and  C_1 
REMARK    2  A    between atoms: C_2  and  S_4 
REMARK    3  A    between atoms: C_7  and  N_3 
REMARK    4  A    between atoms: S_4  and  C_8 
REMARK    5  A    between atoms: C_15  and  C_6 
ROOT
ATOM      1  C   UNL d   1      32.266  23.336 -19.389  0.00  0.00     0.085 A 
ATOM      2  C   UNL d   1      32.817  23.117 -17.875  0.00  0.00     0.034 A 
ATOM      3  C   UNL d   1      31.842  22.859 -18.867  0.00  0.00     0.020 A 
ATOM      4  C   UNL d   1      32.959  23.702 -19.162  0.00  0.00     0.020 A 
ATOM      5  C   UNL d   1      33.241  23.597 -18.406  0.00  0.00     0.008 A 
ATOM      6  C   UNL d   1      32.122  22.750 -18.104  0.00  0.00     0.008 A 
ENDROOT
BRANCH   1   7
ATOM      7  N   UNL d   1      31.986  23.447 -20.157  0.00  0.00    -0.208 NA
ATOM      8  C   UNL d   1      32.201  22.915 -20.754  0.00  0.00     0.279 C 
ATOM      9  O   UNL d   1      31.928  23.019 -21.509  0.00  0.00    -0.265 OA
BRANCH   8  10
ATOM     10  C   UNL d   1      32.691  22.285 -20.574  0.00  0.00     0.062 C 
BRANCH  10  11
ATOM     11  C   UNL d   1      32.788  21.688 -21.101  0.00  0.00     0.005 A 
ATOM     12  C   UNL d   1      32.965  21.851 -21.895  0.00  0.00     0.000 A 
ATOM     13  C   UNL d   1      33.068  21.227 -22.449  0.00  0.00     0.000 A 
ATOM     14  C   UNL d   1      32.988  20.432 -22.191  0.00  0.00     0.000 A 
ATOM     15  C   UNL d   1      32.808  20.264 -21.390  0.00  0.00     0.000 A 
ATOM     16  C   UNL d   1      32.710  20.895 -20.852  0.00  0.00     0.000 A 
ENDBRANCH  10  11
ENDBRANCH   8  10
ENDBRANCH   1   7
BRANCH   2  17
ATOM     17  S   UNL d   1      33.100  23.011 -17.116  0.00  0.00    -0.028 SA
BRANCH  17  18
ATOM     18  C   UNL d   1      32.598  23.067 -16.471  0.00  0.00     0.309 C 
ATOM     19  F   UNL d   1      32.694  23.675 -15.937  0.00  0.00    -0.165 F 
ATOM     20  F   UNL d   1      32.008  22.526 -16.359  0.00  0.00    -0.165 F 
ENDBRANCH  17  18
ENDBRANCH   2  17
TORSDOF 5
ENDMDL
