MODEL 1
REMARK VINA RESULT:      -2.7      0.000      0.000
REMARK  3 active torsions:
REMARK  status: ('A' for Active; 'I' for Inactive)
REMARK    1  A    between atoms: C_21  and  N_1 
REMARK       I    between atoms: N_6  and  C_8 
REMARK    2  A    between atoms: C_8  and  C_9 
REMARK    3  A    between atoms: C_24  and  C_21 
ROOT
ATOM      1  N   UNL d   1      32.692  17.887 -23.775  0.00  0.00    -0.249 N 
ATOM      2  C   UNL d   1      32.487  18.447 -24.333  0.00  0.00     0.208 A 
ATOM      3  C   UNL d   1      32.934  18.122 -23.021  0.00  0.00     0.268 A 
ATOM      4  C   UNL d   1      32.965  18.927 -22.841  0.00  0.00     0.074 A 
ATOM      5  N   UNL d   1      32.520  19.256 -24.148  0.00  0.00    -0.218 NA
ATOM      6  C   UNL d   1      32.760  19.479 -23.401  0.00  0.00     0.088 A 
ATOM      7  C   UNL d   1      33.035  20.527 -22.463  0.00  0.00     0.058 A 
ATOM      8  C   UNL d   1      32.793  20.283 -23.217  0.00  0.00     0.024 A 
ATOM      9  C   UNL d   1      33.206  19.158 -22.091  0.00  0.00     0.006 A 
ATOM     10  S   UNL d   1      32.242  18.207 -25.097  0.00  0.00    -0.038 SA
ATOM     11  O   UNL d   1      33.141  17.560 -22.456  0.00  0.00    -0.267 OA
ATOM     12  C   UNL d   1      33.240  19.965 -21.903  0.00  0.00     0.005 A 
ENDROOT
BRANCH   7  13
ATOM     13  C   UNL d   1      33.068  21.335 -22.279  0.00  0.00     0.265 C 
ATOM     14  N   UNL d   1      32.932  21.582 -21.505  0.00  0.00    -0.272 N 
ATOM     15  C   UNL d   1      32.965  22.380 -21.323  0.00  0.00     0.083 A 
ATOM     16  C   UNL d   1      32.765  21.035 -20.912  0.00  0.00     0.083 A 
ATOM     17  C   UNL d   1      32.832  22.626 -20.562  0.00  0.00     0.018 A 
ATOM     18  C   UNL d   1      32.868  23.436 -20.390  0.00  0.00     0.002 A 
ATOM     19  C   UNL d   1      32.665  22.084 -19.968  0.00  0.00     0.003 A 
ATOM     20  C   UNL d   1      32.733  23.702 -19.611  0.00  0.00     0.000 A 
ATOM     21  C   UNL d   1      32.565  23.160 -19.013  0.00  0.00     0.000 A 
ATOM     22  C   UNL d   1      32.532  22.353 -19.197  0.00  0.00     0.000 A 
ATOM     23  C   UNL d   1      32.632  21.288 -20.145  0.00  0.00     0.019 A 
ATOM     24  O   UNL d   1      33.235  21.881 -22.874  0.00  0.00    -0.267 OA
ENDBRANCH   7  13
BRANCH   1  25
ATOM     25  C   UNL d   1      32.658  17.071 -23.961  0.00  0.00     0.085 C 
BRANCH  25  26
ATOM     26  C   UNL d   1      31.931  16.686 -23.972  0.00  0.00     0.019 C 
ATOM     27  C   UNL d   1      31.913  15.859 -23.923  0.00  0.00     0.002 C 
ENDBRANCH  25  26
ENDBRANCH   1  25
TORSDOF 3
ENDMDL
MODEL 2
REMARK VINA RESULT:      -1.9      0.858      1.261
REMARK  3 active torsions:
REMARK  status: ('A' for Active; 'I' for Inactive)
REMARK    1  A    between atoms: C_21  and  N_1 
REMARK       I    between atoms: N_6  and  C_8 
REMARK    2  A    between atoms: C_8  and  C_9 
REMARK    3  A    between atoms: C_24  and  C_21 
ROOT
ATOM      1  N   UNL d   1      31.874  16.882 -23.695  0.00  0.00    -0.249 N 
ATOM      2  C   UNL d   1      31.565  17.368 -24.274  0.00  0.00     0.208 A 
ATOM      3  C   UNL d   1      32.355  17.198 -23.102  0.00  0.00     0.268 A 
ATOM      4  C   UNL d   1      32.518  18.007 -23.104  0.00  0.00     0.074 A 
ATOM      5  N   UNL d   1      31.731  18.181 -24.274  0.00  0.00    -0.218 NA
ATOM      6  C   UNL d   1      32.207  18.485 -23.684  0.00  0.00     0.088 A 
ATOM      7  C   UNL d   1      32.854  19.618 -23.092  0.00  0.00     0.058 A 
ATOM      8  C   UNL d   1      32.372  19.293 -23.683  0.00  0.00     0.024 A 
ATOM      9  C   UNL d   1      32.996  18.319 -22.514  0.00  0.00     0.006 A 
ATOM     10  S   UNL d   1      31.078  17.046 -24.874  0.00  0.00    -0.038 SA
ATOM     11  O   UNL d   1      32.668  16.711 -22.516  0.00  0.00    -0.267 OA
ATOM     12  C   UNL d   1      33.164  19.131 -22.511  0.00  0.00     0.005 A 
ENDROOT
BRANCH   7  13
ATOM     13  C   UNL d   1      33.020  20.430 -23.092  0.00  0.00     0.265 C 
ATOM     14  N   UNL d   1      32.961  20.857 -22.390  0.00  0.00    -0.272 N 
ATOM     15  C   UNL d   1      33.125  21.661 -22.389  0.00  0.00     0.083 A 
ATOM     16  C   UNL d   1      32.740  20.487 -21.689  0.00  0.00     0.083 A 
ATOM     17  C   UNL d   1      33.068  22.083 -21.700  0.00  0.00     0.018 A 
ATOM     18  C   UNL d   1      33.236  22.895 -21.711  0.00  0.00     0.002 A 
ATOM     19  C   UNL d   1      32.848  21.716 -20.999  0.00  0.00     0.003 A 
ATOM     20  C   UNL d   1      33.182  23.341 -21.009  0.00  0.00     0.000 A 
ATOM     21  C   UNL d   1      32.961  22.976 -20.304  0.00  0.00     0.000 A 
ATOM     22  C   UNL d   1      32.795  22.163 -20.305  0.00  0.00     0.000 A 
ATOM     23  C   UNL d   1      32.684  20.917 -20.994  0.00  0.00     0.019 A 
ATOM     24  O   UNL d   1      33.241  20.801 -23.794  0.00  0.00    -0.267 OA
ENDBRANCH   7  13
BRANCH   1  25
ATOM     25  C   UNL d   1      31.706  16.061 -23.695  0.00  0.00     0.085 C 
BRANCH  25  26
ATOM     26  C   UNL d   1      30.942  15.803 -23.534  0.00  0.00     0.019 C 
ATOM     27  C   UNL d   1      30.778  15.472 -22.791  0.00  0.00     0.002 C 
ENDBRANCH  25  26
ENDBRANCH   1  25
TORSDOF 3
ENDMDL
MODEL 3
REMARK VINA RESULT:      -0.2      1.941      5.370
REMARK  3 active torsions:
REMARK  status: ('A' for Active; 'I' for Inactive)
REMARK    1  A    between atoms: C_21  and  N_1 
REMARK       I    between atoms: N_6  and  C_8 
REMARK    2  A    between atoms: C_8  and  C_9 
REMARK    3  A    between atoms: C_24  and  C_21 
ROOT
ATOM      1  N   UNL d   1      32.586  22.611 -19.330  0.00  0.00    -0.249 N 
ATOM      2  C   UNL d   1      32.981  21.897 -19.318  0.00  0.00     0.208 A 
ATOM      3  C   UNL d   1      32.350  22.943 -20.050  0.00  0.00     0.268 A 
ATOM      4  C   UNL d   1      32.519  22.542 -20.751  0.00  0.00     0.074 A 
ATOM      5  N   UNL d   1      33.149  21.496 -20.025  0.00  0.00    -0.218 NA
ATOM      6  C   UNL d   1      32.912  21.831 -20.732  0.00  0.00     0.088 A 
ATOM      7  C   UNL d   1      32.846  21.757 -22.161  0.00  0.00     0.058 A 
ATOM      8  C   UNL d   1      33.079  21.433 -21.435  0.00  0.00     0.024 A 
ATOM      9  C   UNL d   1      32.284  22.872 -21.465  0.00  0.00     0.006 A 
ATOM     10  S   UNL d   1      33.219  21.563 -18.587  0.00  0.00    -0.038 SA
ATOM     11  O   UNL d   1      31.952  23.663 -20.067  0.00  0.00    -0.267 OA
ATOM     12  C   UNL d   1      32.450  22.475 -22.174  0.00  0.00     0.005 A 
ENDROOT
BRANCH   7  13
ATOM     13  C   UNL d   1      33.013  21.358 -22.867  0.00  0.00     0.265 C 
ATOM     14  N   UNL d   1      32.955  20.536 -22.894  0.00  0.00    -0.272 N 
ATOM     15  C   UNL d   1      33.120  20.141 -23.593  0.00  0.00     0.083 A 
ATOM     16  C   UNL d   1      32.732  20.108 -22.227  0.00  0.00     0.083 A 
ATOM     17  C   UNL d   1      33.064  19.333 -23.622  0.00  0.00     0.018 A 
ATOM     18  C   UNL d   1      33.233  18.944 -24.334  0.00  0.00     0.002 A 
ATOM     19  C   UNL d   1      32.841  18.903 -22.959  0.00  0.00     0.003 A 
ATOM     20  C   UNL d   1      33.179  18.113 -24.378  0.00  0.00     0.000 A 
ATOM     21  C   UNL d   1      32.956  17.679 -23.714  0.00  0.00     0.000 A 
ATOM     22  C   UNL d   1      32.788  18.079 -23.007  0.00  0.00     0.000 A 
ATOM     23  C   UNL d   1      32.675  19.292 -22.261  0.00  0.00     0.019 A 
ATOM     24  O   UNL d   1      33.237  21.787 -23.535  0.00  0.00    -0.267 OA
ENDBRANCH   7  13
BRANCH   1  25
ATOM     25  C   UNL d   1      32.417  23.016 -18.616  0.00  0.00     0.085 C 
BRANCH  25  26
ATOM     26  C   UNL d   1      32.969  23.542 -18.306  0.00  0.00     0.019 C 
ATOM     27  C   UNL d   1      33.015  23.638 -17.484  0.00  0.00     0.002 C 
ENDBRANCH  25  26
ENDBRANCH   1  25
TORSDOF 3
ENDMDL
MODEL 4
REMARK VINA RESULT:      -0.0      1.592      5.272
REMARK  3 active torsions:
REMARK  status: ('A' for Active; 'I' for Inactive)
REMARK    1  A    between atoms: C_21  and  N_1 
REMARK       I    between atoms: N_6  and  C_8 
REMARK    2  A    between atoms: C_8  and  C_9 
REMARK    3  A    between atoms: C_24  and  C_21 
ROOT
ATOM      1  N   UNL d   1      33.227  22.198 -21.069  0.00  0.00    -0.249 N 
ATOM      2  C   UNL d   1      33.220  21.415 -20.835  0.00  0.00     0.208 A 
ATOM      3  C   UNL d   1      33.233  22.390 -21.873  0.00  0.00     0.268 A 
ATOM      4  C   UNL d   1      33.232  21.783 -22.432  0.00  0.00     0.074 A 
ATOM      5  N   UNL d   1      33.218  20.807 -21.400  0.00  0.00    -0.218 NA
ATOM      6  C   UNL d   1      33.225  21.006 -22.192  0.00  0.00     0.088 A 
ATOM      7  C   UNL d   1      33.229  20.585 -23.561  0.00  0.00     0.058 A 
ATOM      8  C   UNL d   1      33.223  20.402 -22.754  0.00  0.00     0.024 A 
ATOM      9  C   UNL d   1      33.238  21.975 -23.230  0.00  0.00     0.006 A 
ATOM     10  S   UNL d   1      33.213  21.223 -20.020  0.00  0.00    -0.038 SA
ATOM     11  O   UNL d   1      33.241  23.178 -22.113  0.00  0.00    -0.267 OA
ATOM     12  C   UNL d   1      33.237  21.370 -23.797  0.00  0.00     0.005 A 
ENDROOT
BRANCH   7  13
ATOM     13  C   UNL d   1      33.228  19.978 -24.125  0.00  0.00     0.265 C 
ATOM     14  N   UNL d   1      33.227  19.192 -23.878  0.00  0.00    -0.272 N 
ATOM     15  C   UNL d   1      33.226  18.591 -24.436  0.00  0.00     0.083 A 
ATOM     16  C   UNL d   1      33.227  19.003 -23.076  0.00  0.00     0.083 A 
ATOM     17  C   UNL d   1      33.225  17.818 -24.195  0.00  0.00     0.018 A 
ATOM     18  C   UNL d   1      33.224  17.218 -24.767  0.00  0.00     0.002 A 
ATOM     19  C   UNL d   1      33.225  17.626 -23.396  0.00  0.00     0.003 A 
ATOM     20  C   UNL d   1      33.223  16.418 -24.533  0.00  0.00     0.000 A 
ATOM     21  C   UNL d   1      33.223  16.223 -23.732  0.00  0.00     0.000 A 
ATOM     22  C   UNL d   1      33.224  16.831 -23.168  0.00  0.00     0.000 A 
ATOM     23  C   UNL d   1      33.226  18.221 -22.837  0.00  0.00     0.019 A 
ATOM     24  O   UNL d   1      33.228  20.167 -24.928  0.00  0.00    -0.267 OA
ENDBRANCH   7  13
BRANCH   1  25
ATOM     25  C   UNL d   1      33.228  22.812 -20.499  0.00  0.00     0.085 C 
BRANCH  25  26
ATOM     26  C   UNL d   1      32.513  23.123 -20.236  0.00  0.00     0.019 C 
ATOM     27  C   UNL d   1      32.515  23.650 -19.596  0.00  0.00     0.002 C 
ENDBRANCH  25  26
ENDBRANCH   1  25
TORSDOF 3
ENDMDL
MODEL 5
REMARK VINA RESULT:       0.3      1.042      1.325
REMARK  3 active torsions:
REMARK  status: ('A' for Active; 'I' for Inactive)
REMARK    1  A    between atoms: C_21  and  N_1 
REMARK       I    between atoms: N_6  and  C_8 
REMARK    2  A    between atoms: C_8  and  C_9 
REMARK    3  A    between atoms: C_24  and  C_21 
ROOT
ATOM      1  N   UNL d   1      33.029  17.819 -23.757  0.00  0.00    -0.249 N 
ATOM      2  C   UNL d   1      33.027  17.953 -22.951  0.00  0.00     0.208 A 
ATOM      3  C   UNL d   1      33.063  18.456 -24.283  0.00  0.00     0.268 A 
ATOM      4  C   UNL d   1      33.096  19.224 -23.982  0.00  0.00     0.074 A 
ATOM      5  N   UNL d   1      33.060  18.727 -22.653  0.00  0.00    -0.218 NA
ATOM      6  C   UNL d   1      33.094  19.350 -23.179  0.00  0.00     0.088 A 
ATOM      7  C   UNL d   1      33.161  20.763 -23.402  0.00  0.00     0.058 A 
ATOM      8  C   UNL d   1      33.127  20.119 -22.883  0.00  0.00     0.024 A 
ATOM      9  C   UNL d   1      33.130  19.856 -24.506  0.00  0.00     0.006 A 
ATOM     10  S   UNL d   1      32.992  17.306 -22.421  0.00  0.00    -0.038 SA
ATOM     11  O   UNL d   1      33.065  18.326 -25.096  0.00  0.00    -0.267 OA
ATOM     12  C   UNL d   1      33.163  20.630 -24.211  0.00  0.00     0.005 A 
ENDROOT
BRANCH   7  13
ATOM     13  C   UNL d   1      33.194  21.536 -23.104  0.00  0.00     0.265 C 
ATOM     14  N   UNL d   1      33.180  21.659 -22.290  0.00  0.00    -0.272 N 
ATOM     15  C   UNL d   1      33.213  22.424 -21.995  0.00  0.00     0.083 A 
ATOM     16  C   UNL d   1      33.134  21.023 -21.769  0.00  0.00     0.083 A 
ATOM     17  C   UNL d   1      33.199  22.548 -21.195  0.00  0.00     0.018 A 
ATOM     18  C   UNL d   1      33.233  23.325 -20.908  0.00  0.00     0.002 A 
ATOM     19  C   UNL d   1      33.153  21.916 -20.672  0.00  0.00     0.003 A 
ATOM     20  C   UNL d   1      33.219  23.467 -20.086  0.00  0.00     0.000 A 
ATOM     21  C   UNL d   1      33.173  22.834 -19.559  0.00  0.00     0.000 A 
ATOM     22  C   UNL d   1      33.140  22.061 -19.857  0.00  0.00     0.000 A 
ATOM     23  C   UNL d   1      33.121  21.153 -20.960  0.00  0.00     0.019 A 
ATOM     24  O   UNL d   1      33.241  22.172 -23.627  0.00  0.00    -0.267 OA
ENDBRANCH   7  13
BRANCH   1  25
ATOM     25  C   UNL d   1      32.995  17.038 -24.058  0.00  0.00     0.085 C 
BRANCH  25  26
ATOM     26  C   UNL d   1      32.276  16.732 -24.315  0.00  0.00     0.019 C 
ATOM     27  C   UNL d   1      32.258  15.975 -24.651  0.00  0.00     0.002 C 
ENDBRANCH  25  26
ENDBRANCH   1  25
TORSDOF 3
ENDMDL
