MODEL 1
REMARK VINA RESULT:      -8.3      0.000      0.000
REMARK  5 active torsions:
REMARK  status: ('A' for Active; 'I' for Inactive)
REMARK    1  A    between atoms: N_2  and  S_1 
REMARK    2  A    between atoms: C_4  and  S_1 
REMARK    3  A    between atoms: C_3  and  N_2 
REMARK       I    between atoms: C_6  and  N_2 
REMARK    4  A    between atoms: O_13  and  C_7 
REMARK    5  A    between atoms: C_14  and  O_13 
ROOT
ATOM      1  C   UNL d   1      53.091  32.961  53.252  0.00  0.00     0.078 A 
ATOM      2  C   UNL d   1      53.009  33.570  53.821  0.00  0.00     0.019 A 
ATOM      3  C   UNL d   1      51.868  34.058  53.139  0.00  0.00     0.103 A 
ATOM      4  C   UNL d   1      52.390  34.106  53.743  0.00  0.00     0.024 A 
ATOM      5  C   UNL d   1      52.544  32.938  52.648  0.00  0.00     0.020 A 
ATOM      6  C   UNL d   1      51.920  33.471  52.561  0.00  0.00     0.026 A 
ATOM      7  C   UNL d   1      53.532  33.636  54.447  0.00  0.00     0.002 A 
ATOM      8  C   UNL d   1      52.293  34.707  54.288  0.00  0.00     0.002 A 
ATOM      9  C   UNL d   1      53.441  34.235  54.995  0.00  0.00     0.000 A 
ATOM     10  C   UNL d   1      52.816  34.774  54.915  0.00  0.00     0.000 A 
ENDROOT
BRANCH   1  11
ATOM     11  N   UNL d   1      53.706  32.423  53.324  0.00  0.00    -0.198 N 
ATOM     12  C   UNL d   1      54.485  32.655  53.199  0.00  0.00     0.274 C 
ATOM     13  O   UNL d   1      54.650  33.426  53.000  0.00  0.00    -0.266 OA
ATOM     14  C   UNL d   1      55.247  32.302  53.214  0.00  0.00     0.067 C 
BRANCH  11  15
ATOM     15  S   UNL d   1      53.521  31.621  53.532  0.00  0.00     0.279 S 
ATOM     16  O   UNL d   1      53.253  31.518  52.744  0.00  0.00    -0.199 OA
ATOM     17  O   UNL d   1      53.798  31.779  54.292  0.00  0.00    -0.199 OA
BRANCH  15  18
ATOM     18  C   UNL d   1      53.340  30.851  53.719  0.00  0.00     0.133 A 
ATOM     19  S   UNL d   1      53.079  30.258  53.200  0.00  0.00    -0.074 SA
ATOM     20  C   UNL d   1      52.949  29.544  53.582  0.00  0.00     0.036 A 
ATOM     21  C   UNL d   1      53.132  29.672  54.390  0.00  0.00     0.008 A 
ATOM     22  C   UNL d   1      53.371  30.457  54.497  0.00  0.00     0.020 A 
ENDBRANCH  15  18
ENDBRANCH  11  15
ENDBRANCH   1  11
BRANCH   3  23
ATOM     23  O   UNL d   1      51.220  34.635  53.074  0.00  0.00    -0.273 OA
BRANCH  23  24
ATOM     24  C   UNL d   1      50.575  34.524  52.535  0.00  0.00     0.300 C 
ATOM     25  O   UNL d   1      50.699  34.501  51.713  0.00  0.00    -0.259 OA
ATOM     26  C   UNL d   1      49.691  34.422  52.860  0.00  0.00     0.074 C 
ENDBRANCH  23  24
ENDBRANCH   3  23
TORSDOF 5
ENDMDL
MODEL 2
REMARK VINA RESULT:      -8.1      1.421      3.818
REMARK  5 active torsions:
REMARK  status: ('A' for Active; 'I' for Inactive)
REMARK    1  A    between atoms: N_2  and  S_1 
REMARK    2  A    between atoms: C_4  and  S_1 
REMARK    3  A    between atoms: C_3  and  N_2 
REMARK       I    between atoms: C_6  and  N_2 
REMARK    4  A    between atoms: O_13  and  C_7 
REMARK    5  A    between atoms: C_14  and  O_13 
ROOT
ATOM      1  C   UNL d   1      52.783  32.910  53.770  0.00  0.00     0.078 A 
ATOM      2  C   UNL d   1      53.591  32.820  53.570  0.00  0.00     0.019 A 
ATOM      3  C   UNL d   1      53.461  31.413  53.661  0.00  0.00     0.103 A 
ATOM      4  C   UNL d   1      53.906  32.063  53.521  0.00  0.00     0.024 A 
ATOM      5  C   UNL d   1      52.354  32.230  53.907  0.00  0.00     0.020 A 
ATOM      6  C   UNL d   1      52.662  31.466  53.861  0.00  0.00     0.026 A 
ATOM      7  C   UNL d   1      54.065  33.471  53.423  0.00  0.00     0.002 A 
ATOM      8  C   UNL d   1      54.693  31.953  53.327  0.00  0.00     0.002 A 
ATOM      9  C   UNL d   1      54.852  33.370  53.228  0.00  0.00     0.000 A 
ATOM     10  C   UNL d   1      55.167  32.605  53.179  0.00  0.00     0.000 A 
ENDROOT
BRANCH   1  11
ATOM     11  N   UNL d   1      52.462  33.663  53.820  0.00  0.00    -0.198 N 
ATOM     12  C   UNL d   1      52.691  34.180  54.418  0.00  0.00     0.274 C 
ATOM     13  O   UNL d   1      53.241  33.942  54.968  0.00  0.00    -0.266 OA
ATOM     14  C   UNL d   1      52.512  34.963  54.663  0.00  0.00     0.067 C 
BRANCH  11  15
ATOM     15  S   UNL d   1      51.889  33.899  53.240  0.00  0.00     0.279 S 
ATOM     16  O   UNL d   1      51.341  33.402  53.635  0.00  0.00    -0.199 OA
ATOM     17  O   UNL d   1      52.468  34.371  52.893  0.00  0.00    -0.199 OA
BRANCH  15  18
ATOM     18  C   UNL d   1      51.331  34.117  52.691  0.00  0.00     0.133 A 
ATOM     19  S   UNL d   1      50.524  34.258  52.825  0.00  0.00    -0.074 SA
ATOM     20  C   UNL d   1      50.125  34.468  52.140  0.00  0.00     0.036 A 
ATOM     21  C   UNL d   1      50.695  34.466  51.525  0.00  0.00     0.008 A 
ATOM     22  C   UNL d   1      51.433  34.256  51.835  0.00  0.00     0.020 A 
ENDBRANCH  15  18
ENDBRANCH  11  15
ENDBRANCH   1  11
BRANCH   3  23
ATOM     23  O   UNL d   1      53.814  30.620  53.604  0.00  0.00    -0.273 OA
BRANCH  23  24
ATOM     24  C   UNL d   1      53.337  29.918  53.605  0.00  0.00     0.300 C 
ATOM     25  O   UNL d   1      52.852  29.725  52.958  0.00  0.00    -0.259 OA
ATOM     26  C   UNL d   1      53.348  29.333  54.351  0.00  0.00     0.074 C 
ENDBRANCH  23  24
ENDBRANCH   3  23
TORSDOF 5
ENDMDL
MODEL 3
REMARK VINA RESULT:      -5.8      1.554      2.793
REMARK  5 active torsions:
REMARK  status: ('A' for Active; 'I' for Inactive)
REMARK    1  A    between atoms: N_2  and  S_1 
REMARK    2  A    between atoms: C_4  and  S_1 
REMARK    3  A    between atoms: C_3  and  N_2 
REMARK       I    between atoms: C_6  and  N_2 
REMARK    4  A    between atoms: O_13  and  C_7 
REMARK    5  A    between atoms: C_14  and  O_13 
ROOT
ATOM      1  C   UNL d   1      53.466  31.579  53.574  0.00  0.00     0.078 A 
ATOM      2  C   UNL d   1      52.893  32.189  53.600  0.00  0.00     0.019 A 
ATOM      3  C   UNL d   1      53.870  33.091  54.088  0.00  0.00     0.103 A 
ATOM      4  C   UNL d   1      53.119  32.936  53.860  0.00  0.00     0.024 A 
ATOM      5  C   UNL d   1      54.223  31.767  53.811  0.00  0.00     0.020 A 
ATOM      6  C   UNL d   1      54.459  32.513  54.074  0.00  0.00     0.026 A 
ATOM      7  C   UNL d   1      52.119  32.053  53.372  0.00  0.00     0.002 A 
ATOM      8  C   UNL d   1      52.575  33.545  53.893  0.00  0.00     0.002 A 
ATOM      9  C   UNL d   1      51.569  32.656  53.402  0.00  0.00     0.000 A 
ATOM     10  C   UNL d   1      51.800  33.408  53.665  0.00  0.00     0.000 A 
ENDROOT
BRANCH   1  11
ATOM     11  N   UNL d   1      53.246  30.832  53.315  0.00  0.00    -0.198 N 
ATOM     12  C   UNL d   1      53.027  30.705  52.532  0.00  0.00     0.274 C 
ATOM     13  O   UNL d   1      53.028  31.326  52.007  0.00  0.00    -0.266 OA
ATOM     14  C   UNL d   1      52.775  30.061  52.056  0.00  0.00     0.067 C 
BRANCH  11  15
ATOM     15  S   UNL d   1      53.250  30.193  53.874  0.00  0.00     0.279 S 
ATOM     16  O   UNL d   1      54.081  30.155  53.769  0.00  0.00    -0.199 OA
ATOM     17  O   UNL d   1      52.432  30.275  53.937  0.00  0.00    -0.199 OA
BRANCH  15  18
ATOM     18  C   UNL d   1      53.266  29.579  54.407  0.00  0.00     0.133 A 
ATOM     19  S   UNL d   1      53.586  28.823  54.290  0.00  0.00    -0.074 SA
ATOM     20  C   UNL d   1      53.504  28.343  54.951  0.00  0.00     0.036 A 
ATOM     21  C   UNL d   1      53.113  28.805  55.530  0.00  0.00     0.008 A 
ATOM     22  C   UNL d   1      52.958  29.558  55.223  0.00  0.00     0.020 A 
ENDBRANCH  15  18
ENDBRANCH  11  15
ENDBRANCH   1  11
BRANCH   3  23
ATOM     23  O   UNL d   1      54.089  33.888  54.360  0.00  0.00    -0.273 OA
BRANCH  23  24
ATOM     24  C   UNL d   1      54.708  34.011  54.927  0.00  0.00     0.300 C 
ATOM     25  O   UNL d   1      54.549  34.018  55.743  0.00  0.00    -0.259 OA
ATOM     26  C   UNL d   1      55.601  34.145  54.640  0.00  0.00     0.074 C 
ENDBRANCH  23  24
ENDBRANCH   3  23
TORSDOF 5
ENDMDL
MODEL 4
REMARK VINA RESULT:      -5.3      1.664      4.033
REMARK  5 active torsions:
REMARK  status: ('A' for Active; 'I' for Inactive)
REMARK    1  A    between atoms: N_2  and  S_1 
REMARK    2  A    between atoms: C_4  and  S_1 
REMARK    3  A    between atoms: C_3  and  N_2 
REMARK       I    between atoms: C_6  and  N_2 
REMARK    4  A    between atoms: O_13  and  C_7 
REMARK    5  A    between atoms: C_14  and  O_13 
ROOT
ATOM      1  C   UNL d   1      53.827  31.926  54.052  0.00  0.00     0.078 A 
ATOM      2  C   UNL d   1      53.321  31.560  53.494  0.00  0.00     0.019 A 
ATOM      3  C   UNL d   1      53.166  30.448  54.357  0.00  0.00     0.103 A 
ATOM      4  C   UNL d   1      53.003  30.823  53.669  0.00  0.00     0.024 A 
ATOM      5  C   UNL d   1      53.974  31.521  54.744  0.00  0.00     0.020 A 
ATOM      6  C   UNL d   1      53.660  30.781  54.929  0.00  0.00     0.026 A 
ATOM      7  C   UNL d   1      53.141  31.925  52.784  0.00  0.00     0.002 A 
ATOM      8  C   UNL d   1      52.507  30.449  53.137  0.00  0.00     0.002 A 
ATOM      9  C   UNL d   1      52.647  31.558  52.247  0.00  0.00     0.000 A 
ATOM     10  C   UNL d   1      52.327  30.814  52.426  0.00  0.00     0.000 A 
ENDROOT
BRANCH   1  11
ATOM     11  N   UNL d   1      54.146  32.662  53.883  0.00  0.00    -0.198 N 
ATOM     12  C   UNL d   1      54.847  32.729  53.458  0.00  0.00     0.274 C 
ATOM     13  O   UNL d   1      55.229  32.059  53.201  0.00  0.00    -0.266 OA
ATOM     14  C   UNL d   1      55.344  33.345  53.176  0.00  0.00     0.067 C 
BRANCH  11  15
ATOM     15  S   UNL d   1      53.738  33.354  54.157  0.00  0.00     0.279 S 
ATOM     16  O   UNL d   1      53.602  33.547  53.352  0.00  0.00    -0.199 OA
ATOM     17  O   UNL d   1      53.900  33.115  54.929  0.00  0.00    -0.199 OA
BRANCH  15  18
ATOM     18  C   UNL d   1      53.344  34.020  54.407  0.00  0.00     0.133 A 
ATOM     19  S   UNL d   1      53.413  34.396  55.144  0.00  0.00    -0.074 SA
ATOM     20  C   UNL d   1      52.931  35.057  55.204  0.00  0.00     0.036 A 
ATOM     21  C   UNL d   1      52.525  35.120  54.473  0.00  0.00     0.008 A 
ATOM     22  C   UNL d   1      52.759  34.503  53.974  0.00  0.00     0.020 A 
ENDBRANCH  15  18
ENDBRANCH  11  15
ENDBRANCH   1  11
BRANCH   3  23
ATOM     23  O   UNL d   1      52.820  29.668  54.523  0.00  0.00    -0.273 OA
BRANCH  23  24
ATOM     24  C   UNL d   1      53.263  29.055  54.908  0.00  0.00     0.300 C 
ATOM     25  O   UNL d   1      53.777  28.561  54.481  0.00  0.00    -0.259 OA
ATOM     26  C   UNL d   1      53.181  28.921  55.843  0.00  0.00     0.074 C 
ENDBRANCH  23  24
ENDBRANCH   3  23
TORSDOF 5
ENDMDL
