MODEL 1
REMARK VINA RESULT:      44.0      0.000      0.000
REMARK  3 active torsions:
REMARK  status: ('A' for Active; 'I' for Inactive)
REMARK    1  A    between atoms: C_4  and  S_1 
REMARK    2  A    between atoms: N_6  and  S_1 
REMARK    3  A    between atoms: C_2  and  C_8 
ROOT
ATOM      1  C   UNL d   1      14.932  13.143  -1.321  0.00  0.00     0.104 A 
ATOM      2  C   UNL d   1      14.662  13.120  -2.100  0.00  0.00     0.015 A 
ATOM      3  C   UNL d   1      14.261  12.449  -2.374  0.00  0.00     0.025 A 
ATOM      4  C   UNL d   1      14.805  12.503  -0.817  0.00  0.00     0.012 A 
ATOM      5  C   UNL d   1      14.133  11.807  -1.873  0.00  0.00     0.002 A 
ATOM      6  C   UNL d   1      14.407  11.838  -1.093  0.00  0.00     0.001 A 
ATOM      7  C   UNL d   1      15.077  12.529  -0.040  0.00  0.00     0.001 C 
ENDROOT
BRANCH   3   8
ATOM      8  C   UNL d   1      13.988  12.422  -3.155  0.00  0.00     0.111 A 
ATOM      9  N   UNL d   1      13.374  12.877  -3.462  0.00  0.00    -0.239 NA
ATOM     10  C   UNL d   1      13.284  12.675  -4.261  0.00  0.00     0.088 A 
ATOM     11  C   UNL d   1      12.772  12.938  -4.845  0.00  0.00     0.020 A 
ATOM     12  C   UNL d   1      13.847  12.096  -4.437  0.00  0.00     0.049 A 
ATOM     13  C   UNL d   1      12.815  12.630  -5.600  0.00  0.00     0.002 A 
ATOM     14  C   UNL d   1      13.378  12.047  -5.782  0.00  0.00     0.001 A 
ATOM     15  C   UNL d   1      13.895  11.781  -5.196  0.00  0.00     0.008 A 
ATOM     16  S   UNL d   1      14.283  11.941  -3.745  0.00  0.00    -0.066 SA
ENDBRANCH   3   8
BRANCH   1  17
ATOM     17  S   UNL d   1      15.335  13.813  -1.038  0.00  0.00     0.271 S 
ATOM     18  O   UNL d   1      16.059  13.428  -1.177  0.00  0.00    -0.200 OA
ATOM     19  O   UNL d   1      14.506  14.250  -0.879  0.00  0.00    -0.200 OA
BRANCH  17  20
ATOM     20  N   UNL d   1      15.689  14.495  -0.750  0.00  0.00    -0.229 N 
ATOM     21  C   UNL d   1      16.220  14.535  -0.118  0.00  0.00     0.092 A 
ATOM     22  C   UNL d   1      16.439  15.323  -0.014  0.00  0.00     0.021 A 
ATOM     23  C   UNL d   1      16.041  15.778  -0.586  0.00  0.00     0.021 A 
ATOM     24  C   UNL d   1      15.581  15.263  -1.037  0.00  0.00     0.092 A 
ENDBRANCH  17  20
ENDBRANCH   1  17
TORSDOF 3
ENDMDL
MODEL 2
REMARK VINA RESULT:      46.6      1.323      4.485
REMARK  3 active torsions:
REMARK  status: ('A' for Active; 'I' for Inactive)
REMARK    1  A    between atoms: C_4  and  S_1 
REMARK    2  A    between atoms: N_6  and  S_1 
REMARK    3  A    between atoms: C_2  and  C_8 
ROOT
ATOM      1  C   UNL d   1      14.366  13.029  -1.341  0.00  0.00     0.104 A 
ATOM      2  C   UNL d   1      14.546  13.833  -1.369  0.00  0.00     0.015 A 
ATOM      3  C   UNL d   1      14.906  14.195  -0.717  0.00  0.00     0.025 A 
ATOM      4  C   UNL d   1      14.543  12.585  -0.668  0.00  0.00     0.012 A 
ATOM      5  C   UNL d   1      15.084  13.755  -0.042  0.00  0.00     0.002 A 
ATOM      6  C   UNL d   1      14.900  12.949  -0.022  0.00  0.00     0.001 A 
ATOM      7  C   UNL d   1      14.361  11.782  -0.644  0.00  0.00     0.001 C 
ENDROOT
BRANCH   3   8
ATOM      8  C   UNL d   1      15.088  15.002  -0.741  0.00  0.00     0.111 A 
ATOM      9  N   UNL d   1      14.893  15.518  -1.352  0.00  0.00    -0.239 NA
ATOM     10  C   UNL d   1      15.179  16.269  -1.152  0.00  0.00     0.088 A 
ATOM     11  C   UNL d   1      15.153  16.993  -1.536  0.00  0.00     0.020 A 
ATOM     12  C   UNL d   1      15.549  16.207  -0.416  0.00  0.00     0.049 A 
ATOM     13  C   UNL d   1      15.491  17.653  -1.195  0.00  0.00     0.002 A 
ATOM     14  C   UNL d   1      15.864  17.596  -0.455  0.00  0.00     0.001 A 
ATOM     15  C   UNL d   1      15.892  16.868  -0.066  0.00  0.00     0.008 A 
ATOM     16  S   UNL d   1      15.491  15.416  -0.163  0.00  0.00    -0.066 SA
ENDBRANCH   3   8
BRANCH   1  17
ATOM     17  S   UNL d   1      14.005  12.658  -1.991  0.00  0.00     0.271 S 
ATOM     18  O   UNL d   1      13.496  12.255  -1.471  0.00  0.00    -0.200 OA
ATOM     19  O   UNL d   1      14.587  13.120  -2.584  0.00  0.00    -0.200 OA
BRANCH  17  20
ATOM     20  N   UNL d   1      13.679  12.317  -2.662  0.00  0.00    -0.229 N 
ATOM     21  C   UNL d   1      14.088  12.127  -3.356  0.00  0.00     0.092 A 
ATOM     22  C   UNL d   1      13.553  11.796  -3.888  0.00  0.00     0.021 A 
ATOM     23  C   UNL d   1      12.804  11.779  -3.524  0.00  0.00     0.021 A 
ATOM     24  C   UNL d   1      12.888  12.101  -2.770  0.00  0.00     0.092 A 
ENDBRANCH  17  20
ENDBRANCH   1  17
TORSDOF 3
ENDMDL
