MODEL 1
REMARK VINA RESULT:      -7.3      0.000      0.000
REMARK  5 active torsions:
REMARK  status: ('A' for Active; 'I' for Inactive)
REMARK       I    between atoms: C_5  and  N_1 
REMARK    1  A    between atoms: S_13  and  C_2 
REMARK    2  A    between atoms: S_3  and  C_9 
REMARK    3  A    between atoms: N_7  and  S_3 
REMARK    4  A    between atoms: C_12  and  C_5 
REMARK    5  A    between atoms: C_23  and  S_13 
ROOT
ATOM      1  C   UNL d   1     -45.914  13.396  22.414  0.00  0.00     0.104 A 
ATOM      2  C   UNL d   1     -47.345  14.187  22.627  0.00  0.00     0.057 A 
ATOM      3  C   UNL d   1     -46.474  13.410  21.808  0.00  0.00     0.013 A 
ATOM      4  C   UNL d   1     -46.072  13.781  23.133  0.00  0.00     0.013 A 
ATOM      5  C   UNL d   1     -46.789  14.178  23.242  0.00  0.00     0.005 A 
ATOM      6  C   UNL d   1     -47.186  13.805  21.917  0.00  0.00     0.005 A 
ENDROOT
BRANCH   2   7
ATOM      7  C   UNL d   1     -48.054  14.580  22.737  0.00  0.00     0.266 C 
ATOM      8  N   UNL d   1     -48.737  14.170  22.967  0.00  0.00    -0.253 N 
ATOM      9  C   UNL d   1     -48.782  13.358  23.105  0.00  0.00     0.182 A 
ATOM     10  C   UNL d   1     -49.484  14.500  23.095  0.00  0.00     0.086 A 
ATOM     11  N   UNL d   1     -49.562  13.183  23.321  0.00  0.00    -0.221 NA
ATOM     12  C   UNL d   1     -49.994  13.884  23.315  0.00  0.00     0.100 A 
ATOM     13  C   UNL d   1     -50.780  14.049  23.479  0.00  0.00     0.021 A 
ATOM     14  C   UNL d   1     -51.064  14.820  23.427  0.00  0.00     0.002 A 
ATOM     15  C   UNL d   1     -50.551  15.433  23.206  0.00  0.00     0.002 A 
ATOM     16  C   UNL d   1     -49.762  15.265  23.042  0.00  0.00     0.019 A 
ATOM     17  O   UNL d   1     -48.092  15.399  22.617  0.00  0.00    -0.267 OA
BRANCH   9  18
ATOM     18  S   UNL d   1     -48.161  12.826  23.039  0.00  0.00    -0.049 SA
BRANCH  18  19
ATOM     19  C   UNL d   1     -48.322  11.832  22.997  0.00  0.00     0.038 C 
ATOM     20  C   UNL d   1     -48.165  11.216  23.694  0.00  0.00     0.008 C 
ENDBRANCH  18  19
ENDBRANCH   9  18
ENDBRANCH   2   7
BRANCH   1  21
ATOM     21  S   UNL d   1     -45.198  12.998  22.301  0.00  0.00     0.271 S 
ATOM     22  O   UNL d   1     -45.184  12.777  23.101  0.00  0.00    -0.200 OA
ATOM     23  O   UNL d   1     -45.200  13.212  21.502  0.00  0.00    -0.200 OA
BRANCH  21  24
ATOM     24  N   UNL d   1     -44.480  12.600  22.185  0.00  0.00    -0.229 N 
ATOM     25  C   UNL d   1     -43.926  12.887  21.637  0.00  0.00     0.092 A 
ATOM     26  C   UNL d   1     -43.220  12.496  21.521  0.00  0.00     0.020 A 
ATOM     27  C   UNL d   1     -43.056  11.817  21.948  0.00  0.00     0.003 A 
ATOM     28  C   UNL d   1     -43.598  11.519  22.498  0.00  0.00     0.020 A 
ATOM     29  C   UNL d   1     -44.312  11.920  22.610  0.00  0.00     0.092 A 
ENDBRANCH  21  24
ENDBRANCH   1  21
TORSDOF 5
ENDMDL
MODEL 2
REMARK VINA RESULT:      -7.2      1.237      4.996
REMARK  5 active torsions:
REMARK  status: ('A' for Active; 'I' for Inactive)
REMARK       I    between atoms: C_5  and  N_1 
REMARK    1  A    between atoms: S_13  and  C_2 
REMARK    2  A    between atoms: S_3  and  C_9 
REMARK    3  A    between atoms: N_7  and  S_3 
REMARK    4  A    between atoms: C_12  and  C_5 
REMARK    5  A    between atoms: C_23  and  S_13 
ROOT
ATOM      1  C   UNL d   1     -47.980  13.844  22.428  0.00  0.00     0.104 A 
ATOM      2  C   UNL d   1     -46.512  13.099  22.529  0.00  0.00     0.057 A 
ATOM      3  C   UNL d   1     -47.752  13.298  21.853  0.00  0.00     0.013 A 
ATOM      4  C   UNL d   1     -47.468  14.019  23.058  0.00  0.00     0.013 A 
ATOM      5  C   UNL d   1     -46.732  13.646  23.111  0.00  0.00     0.005 A 
ATOM      6  C   UNL d   1     -47.019  12.928  21.906  0.00  0.00     0.005 A 
ENDROOT
BRANCH   2   7
ATOM      7  C   UNL d   1     -45.782  12.732  22.582  0.00  0.00     0.266 C 
ATOM      8  N   UNL d   1     -45.704  11.994  22.953  0.00  0.00    -0.253 N 
ATOM      9  C   UNL d   1     -46.320  11.564  23.295  0.00  0.00     0.182 A 
ATOM     10  C   UNL d   1     -45.003  11.566  23.044  0.00  0.00     0.086 A 
ATOM     11  N   UNL d   1     -45.997  10.865  23.600  0.00  0.00    -0.221 NA
ATOM     12  C   UNL d   1     -45.189  10.866  23.446  0.00  0.00     0.100 A 
ATOM     13  C   UNL d   1     -44.595  10.326  23.615  0.00  0.00     0.021 A 
ATOM     14  C   UNL d   1     -43.818  10.477  23.388  0.00  0.00     0.002 A 
ATOM     15  C   UNL d   1     -43.636  11.179  22.986  0.00  0.00     0.002 A 
ATOM     16  C   UNL d   1     -44.234  11.719  22.817  0.00  0.00     0.019 A 
ATOM     17  O   UNL d   1     -45.113  13.100  22.262  0.00  0.00    -0.267 OA
BRANCH   9  18
ATOM     18  S   UNL d   1     -47.106  11.795  23.324  0.00  0.00    -0.049 SA
BRANCH  18  19
ATOM     19  C   UNL d   1     -47.819  11.189  23.697  0.00  0.00     0.038 C 
ATOM     20  C   UNL d   1     -48.690  11.079  23.350  0.00  0.00     0.008 C 
ENDBRANCH  18  19
ENDBRANCH   9  18
ENDBRANCH   2   7
BRANCH   1  21
ATOM     21  S   UNL d   1     -48.717  14.215  22.372  0.00  0.00     0.271 S 
ATOM     22  O   UNL d   1     -48.810  13.931  21.597  0.00  0.00    -0.200 OA
ATOM     23  O   UNL d   1     -48.635  14.503  23.143  0.00  0.00    -0.200 OA
BRANCH  21  24
ATOM     24  N   UNL d   1     -49.456  14.587  22.319  0.00  0.00    -0.229 N 
ATOM     25  C   UNL d   1     -49.575  15.330  22.671  0.00  0.00     0.092 A 
ATOM     26  C   UNL d   1     -50.302  15.697  22.620  0.00  0.00     0.020 A 
ATOM     27  C   UNL d   1     -50.916  15.332  22.220  0.00  0.00     0.003 A 
ATOM     28  C   UNL d   1     -50.811  14.592  21.865  0.00  0.00     0.020 A 
ATOM     29  C   UNL d   1     -50.073  14.225  21.920  0.00  0.00     0.092 A 
ENDBRANCH  21  24
ENDBRANCH   1  21
TORSDOF 5
ENDMDL
MODEL 3
REMARK VINA RESULT:      -6.9      1.520      5.336
REMARK  5 active torsions:
REMARK  status: ('A' for Active; 'I' for Inactive)
REMARK       I    between atoms: C_5  and  N_1 
REMARK    1  A    between atoms: S_13  and  C_2 
REMARK    2  A    between atoms: S_3  and  C_9 
REMARK    3  A    between atoms: N_7  and  S_3 
REMARK    4  A    between atoms: C_12  and  C_5 
REMARK    5  A    between atoms: C_23  and  S_13 
ROOT
ATOM      1  C   UNL d   1     -48.659  12.840  22.767  0.00  0.00     0.104 A 
ATOM      2  C   UNL d   1     -47.457  11.765  23.110  0.00  0.00     0.057 A 
ATOM      3  C   UNL d   1     -48.344  12.800  23.529  0.00  0.00     0.013 A 
ATOM      4  C   UNL d   1     -48.370  12.338  22.172  0.00  0.00     0.013 A 
ATOM      5  C   UNL d   1     -47.767  11.798  22.342  0.00  0.00     0.005 A 
ATOM      6  C   UNL d   1     -47.745  12.262  23.697  0.00  0.00     0.005 A 
ENDROOT
BRANCH   2   7
ATOM      7  C   UNL d   1     -46.860  11.230  23.277  0.00  0.00     0.266 C 
ATOM      8  N   UNL d   1     -46.063  11.442  23.193  0.00  0.00    -0.253 N 
ATOM      9  C   UNL d   1     -45.789  12.180  22.945  0.00  0.00     0.182 A 
ATOM     10  C   UNL d   1     -45.411  10.957  23.342  0.00  0.00     0.086 A 
ATOM     11  N   UNL d   1     -44.961  12.151  22.941  0.00  0.00    -0.221 NA
ATOM     12  C   UNL d   1     -44.729  11.400  23.185  0.00  0.00     0.100 A 
ATOM     13  C   UNL d   1     -43.991  11.058  23.285  0.00  0.00     0.021 A 
ATOM     14  C   UNL d   1     -43.925  10.278  23.541  0.00  0.00     0.002 A 
ATOM     15  C   UNL d   1     -44.610   9.837  23.698  0.00  0.00     0.002 A 
ATOM     16  C   UNL d   1     -45.350  10.183  23.596  0.00  0.00     0.019 A 
ATOM     17  O   UNL d   1     -47.054  10.466  23.532  0.00  0.00    -0.267 OA
BRANCH   9  18
ATOM     18  S   UNL d   1     -46.259  12.821  22.742  0.00  0.00    -0.049 SA
BRANCH  18  19
ATOM     19  C   UNL d   1     -45.877  13.622  22.266  0.00  0.00     0.038 C 
ATOM     20  C   UNL d   1     -45.901  14.514  22.576  0.00  0.00     0.008 C 
ENDBRANCH  18  19
ENDBRANCH   9  18
ENDBRANCH   2   7
BRANCH   1  21
ATOM     21  S   UNL d   1     -49.262  13.381  22.601  0.00  0.00     0.271 S 
ATOM     22  O   UNL d   1     -48.995  13.878  23.210  0.00  0.00    -0.200 OA
ATOM     23  O   UNL d   1     -49.537  12.894  21.992  0.00  0.00    -0.200 OA
BRANCH  21  24
ATOM     24  N   UNL d   1     -49.868  13.922  22.432  0.00  0.00    -0.229 N 
ATOM     25  C   UNL d   1     -49.935  14.625  22.869  0.00  0.00     0.092 A 
ATOM     26  C   UNL d   1     -50.530  15.157  22.703  0.00  0.00     0.020 A 
ATOM     27  C   UNL d   1     -51.064  14.998  22.104  0.00  0.00     0.003 A 
ATOM     28  C   UNL d   1     -51.009  14.301  21.661  0.00  0.00     0.020 A 
ATOM     29  C   UNL d   1     -50.404  13.766  21.833  0.00  0.00     0.092 A 
ENDBRANCH  21  24
ENDBRANCH   1  21
TORSDOF 5
ENDMDL
MODEL 4
REMARK VINA RESULT:      -4.4      1.255      5.155
REMARK  5 active torsions:
REMARK  status: ('A' for Active; 'I' for Inactive)
REMARK       I    between atoms: C_5  and  N_1 
REMARK    1  A    between atoms: S_13  and  C_2 
REMARK    2  A    between atoms: S_3  and  C_9 
REMARK    3  A    between atoms: N_7  and  S_3 
REMARK    4  A    between atoms: C_12  and  C_5 
REMARK    5  A    between atoms: C_23  and  S_13 
ROOT
ATOM      1  C   UNL d   1     -47.940  13.003  22.687  0.00  0.00     0.104 A 
ATOM      2  C   UNL d   1     -46.375  13.157  22.190  0.00  0.00     0.057 A 
ATOM      3  C   UNL d   1     -47.376  13.333  23.191  0.00  0.00     0.013 A 
ATOM      4  C   UNL d   1     -47.720  12.748  21.929  0.00  0.00     0.013 A 
ATOM      5  C   UNL d   1     -46.935  12.824  21.677  0.00  0.00     0.005 A 
ATOM      6  C   UNL d   1     -46.597  13.409  22.940  0.00  0.00     0.005 A 
ENDROOT
BRANCH   2   7
ATOM      7  C   UNL d   1     -45.600  13.232  21.940  0.00  0.00     0.266 C 
ATOM      8  N   UNL d   1     -45.019  12.696  22.190  0.00  0.00    -0.253 N 
ATOM      9  C   UNL d   1     -45.145  12.057  22.696  0.00  0.00     0.182 A 
ATOM     10  C   UNL d   1     -44.220  12.710  21.979  0.00  0.00     0.086 A 
ATOM     11  N   UNL d   1     -44.419  11.671  22.799  0.00  0.00    -0.221 NA
ATOM     12  C   UNL d   1     -43.851  12.072  22.359  0.00  0.00     0.100 A 
ATOM     13  C   UNL d   1     -43.048  11.946  22.250  0.00  0.00     0.021 A 
ATOM     14  C   UNL d   1     -42.609  12.448  21.768  0.00  0.00     0.002 A 
ATOM     15  C   UNL d   1     -42.981  13.085  21.390  0.00  0.00     0.002 A 
ATOM     16  C   UNL d   1     -43.788  13.210  21.500  0.00  0.00     0.019 A 
ATOM     17  O   UNL d   1     -45.392  13.850  21.429  0.00  0.00    -0.267 OA
BRANCH   9  18
ATOM     18  S   UNL d   1     -45.863  11.847  23.032  0.00  0.00    -0.049 SA
BRANCH  18  19
ATOM     19  C   UNL d   1     -45.933  11.094  23.698  0.00  0.00     0.038 C 
ATOM     20  C   UNL d   1     -46.064  10.183  23.491  0.00  0.00     0.008 C 
ENDBRANCH  18  19
ENDBRANCH   9  18
ENDBRANCH   2   7
BRANCH   1  21
ATOM     21  S   UNL d   1     -48.724  12.928  22.942  0.00  0.00     0.271 S 
ATOM     22  O   UNL d   1     -48.632  13.584  23.444  0.00  0.00    -0.200 OA
ATOM     23  O   UNL d   1     -48.827  12.274  22.447  0.00  0.00    -0.200 OA
BRANCH  21  24
ATOM     24  N   UNL d   1     -49.509  12.851  23.196  0.00  0.00    -0.229 N 
ATOM     25  C   UNL d   1     -49.824  12.099  23.358  0.00  0.00     0.092 A 
ATOM     26  C   UNL d   1     -50.596  12.022  23.608  0.00  0.00     0.020 A 
ATOM     27  C   UNL d   1     -51.064  12.688  23.698  0.00  0.00     0.003 A 
ATOM     28  C   UNL d   1     -50.764  13.442  23.539  0.00  0.00     0.020 A 
ATOM     29  C   UNL d   1     -49.981  13.514  23.287  0.00  0.00     0.092 A 
ENDBRANCH  21  24
ENDBRANCH   1  21
TORSDOF 5
ENDMDL
