MODEL 1
REMARK VINA RESULT:      -7.4      0.000      0.000
REMARK  2 active torsions:
REMARK  status: ('A' for Active; 'I' for Inactive)
REMARK    1  A    between atoms: S_2  and  N_1 
REMARK    2  A    between atoms: C_8  and  S_2 
ROOT
ATOM      1  S   UNL d   1     -48.543  13.256  22.979  0.00  0.00     0.273 S 
ATOM      2  O   UNL d   1     -49.045  12.861  23.493  0.00  0.00    -0.200 OA
ATOM      3  O   UNL d   1     -48.044  13.658  22.459  0.00  0.00    -0.200 OA
ENDROOT
BRANCH   1   4
ATOM      4  N   UNL d   1     -49.160  13.775  22.804  0.00  0.00    -0.207 N 
ATOM      5  C   UNL d   1     -49.221  14.422  23.320  0.00  0.00     0.148 A 
ATOM      6  N   UNL d   1     -49.776  15.041  23.299  0.00  0.00    -0.198 NA
ATOM      7  C   UNL d   1     -50.384  15.165  22.778  0.00  0.00     0.066 A 
ATOM      8  C   UNL d   1     -49.697  14.267  22.686  0.00  0.00     0.169 A 
ATOM      9  C   UNL d   1     -50.609  14.709  22.135  0.00  0.00     0.066 A 
ATOM     10  N   UNL d   1     -50.271  14.008  21.857  0.00  0.00    -0.198 NA
ATOM     11  C   UNL d   1     -49.628  13.596  22.156  0.00  0.00     0.148 A 
ENDBRANCH   1   4
BRANCH   1  12
ATOM     12  C   UNL d   1     -47.932  12.732  23.159  0.00  0.00     0.104 A 
ATOM     13  C   UNL d   1     -47.147  12.981  23.110  0.00  0.00     0.014 A 
ATOM     14  C   UNL d   1     -46.537  12.458  23.290  0.00  0.00     0.012 A 
ATOM     15  C   UNL d   1     -46.711  11.685  23.519  0.00  0.00     0.058 A 
ATOM     16  C   UNL d   1     -47.496  11.435  23.568  0.00  0.00     0.012 A 
ATOM     17 CL   UNL d   1     -46.093  11.168  23.698  0.00  0.00    -0.082 Cl
ATOM     18  C   UNL d   1     -48.106  11.958  23.388  0.00  0.00     0.014 A 
ENDBRANCH   1  12
TORSDOF 2
ENDMDL
MODEL 2
REMARK VINA RESULT:      -7.1      1.944      3.674
REMARK  2 active torsions:
REMARK  status: ('A' for Active; 'I' for Inactive)
REMARK    1  A    between atoms: S_2  and  N_1 
REMARK    2  A    between atoms: C_8  and  S_2 
ROOT
ATOM      1  S   UNL d   1     -48.593  12.953  22.940  0.00  0.00     0.273 S 
ATOM      2  O   UNL d   1     -48.254  12.992  22.195  0.00  0.00    -0.200 OA
ATOM      3  O   UNL d   1     -48.928  12.909  23.693  0.00  0.00    -0.200 OA
ENDROOT
BRANCH   1   4
ATOM      4  N   UNL d   1     -47.973  12.464  23.177  0.00  0.00    -0.207 N 
ATOM      5  C   UNL d   1     -47.248  12.854  23.282  0.00  0.00     0.148 A 
ATOM      6  N   UNL d   1     -46.521  12.526  23.516  0.00  0.00    -0.198 NA
ATOM      7  C   UNL d   1     -46.342  11.757  23.697  0.00  0.00     0.066 A 
ATOM      8  C   UNL d   1     -47.389  12.066  23.390  0.00  0.00     0.169 A 
ATOM      9  C   UNL d   1     -46.834  11.102  23.696  0.00  0.00     0.066 A 
ATOM     10  N   UNL d   1     -47.639  11.062  23.510  0.00  0.00    -0.198 NA
ATOM     11  C   UNL d   1     -48.142  11.669  23.280  0.00  0.00     0.148 A 
ENDBRANCH   1   4
BRANCH   1  12
ATOM     12  C   UNL d   1     -49.210  13.442  22.695  0.00  0.00     0.104 A 
ATOM     13  C   UNL d   1     -49.717  13.197  22.093  0.00  0.00     0.014 A 
ATOM     14  C   UNL d   1     -50.333  13.686  21.847  0.00  0.00     0.012 A 
ATOM     15  C   UNL d   1     -50.443  14.421  22.205  0.00  0.00     0.058 A 
ATOM     16  C   UNL d   1     -49.936  14.667  22.808  0.00  0.00     0.012 A 
ATOM     17 CL   UNL d   1     -51.062  14.905  21.954  0.00  0.00    -0.082 Cl
ATOM     18  C   UNL d   1     -49.320  14.178  23.053  0.00  0.00     0.014 A 
ENDBRANCH   1  12
TORSDOF 2
ENDMDL
