MODEL 1
REMARK VINA RESULT:      41.7      0.000      0.000
REMARK  4 active torsions:
REMARK  status: ('A' for Active; 'I' for Inactive)
REMARK    1  A    between atoms: C_4  and  C_3 
REMARK    2  A    between atoms: S_8  and  C_5 
REMARK    3  A    between atoms: C_13  and  S_8 
REMARK    4  A    between atoms: C_14  and  C_13 
ROOT
ATOM      1  N   UNL d   1     -52.327  25.963  33.483  0.00  0.00    -0.146 NA
ATOM      2  N   UNL d   1     -51.889  26.651  33.502  0.00  0.00    -0.141 NA
ATOM      3  C   UNL d   1     -51.944  25.240  33.385  0.00  0.00     0.126 A 
ATOM      4  C   UNL d   1     -51.077  26.634  33.426  0.00  0.00     0.132 A 
ATOM      5  C   UNL d   1     -51.123  25.214  33.308  0.00  0.00     0.025 A 
ATOM      6  C   UNL d   1     -50.694  25.903  33.328  0.00  0.00     0.029 A 
ENDROOT
BRANCH   4   7
ATOM      7  S   UNL d   1     -50.638  27.331  33.446  0.00  0.00    -0.066 SA
BRANCH   7   8
ATOM      8  C   UNL d   1     -49.825  27.311  33.357  0.00  0.00     0.037 C 
BRANCH   8   9
ATOM      9  C   UNL d   1     -49.350  27.772  33.849  0.00  0.00     0.006 A 
ATOM     10  C   UNL d   1     -48.769  27.416  34.308  0.00  0.00     0.001 A 
ATOM     11  C   UNL d   1     -48.295  27.866  34.797  0.00  0.00     0.000 A 
ATOM     12  C   UNL d   1     -48.407  28.688  34.826  0.00  0.00     0.000 A 
ATOM     13  C   UNL d   1     -48.986  29.035  34.368  0.00  0.00     0.000 A 
ATOM     14  C   UNL d   1     -49.459  28.570  33.877  0.00  0.00     0.001 A 
ENDBRANCH   8   9
ENDBRANCH   7   8
ENDBRANCH   4   7
BRANCH   3  15
ATOM     15  C   UNL d   1     -52.378  24.544  33.365  0.00  0.00     0.119 A 
ATOM     16  O   UNL d   1     -53.196  24.478  33.313  0.00  0.00    -0.304 OA
ATOM     17  C   UNL d   1     -53.400  23.681  33.309  0.00  0.00     0.123 A 
ATOM     18  C   UNL d   1     -52.693  23.241  33.360  0.00  0.00     0.029 A 
ATOM     19  C   UNL d   1     -52.062  23.772  33.394  0.00  0.00     0.028 A 
ENDBRANCH   3  15
TORSDOF 4
ENDMDL
