MODEL 1
REMARK VINA RESULT:      57.6      0.000      0.000
REMARK  2 active torsions:
REMARK  status: ('A' for Active; 'I' for Inactive)
REMARK    1  A    between atoms: C_5  and  C_1 
REMARK    2  A    between atoms: C_10  and  N_4 
ROOT
ATOM      1  N   UNL d   1      13.410  13.895  -4.272  0.00  0.00    -0.273 N 
ATOM      2  C   UNL d   1      13.527  13.024  -3.255  0.00  0.00     0.057 A 
ATOM      3  C   UNL d   1      13.117  13.160  -4.524  0.00  0.00     0.265 A 
ATOM      4  C   UNL d   1      13.660  13.808  -3.495  0.00  0.00     0.086 A 
ATOM      5  C   UNL d   1      13.189  12.627  -3.901  0.00  0.00     0.066 A 
ATOM      6  O   UNL d   1      12.808  13.001  -5.276  0.00  0.00    -0.267 OA
ENDROOT
BRANCH   2   7
ATOM      7  C   UNL d   1      13.714  12.750  -2.509  0.00  0.00     0.149 A 
ATOM      8  N   UNL d   1      13.249  12.409  -1.961  0.00  0.00    -0.227 NA
ATOM      9  C   UNL d   1      13.707  12.231  -1.295  0.00  0.00     0.099 A 
ATOM     10  C   UNL d   1      13.515  11.883  -0.582  0.00  0.00     0.021 A 
ATOM     11  C   UNL d   1      14.469  12.475  -1.451  0.00  0.00     0.083 A 
ATOM     12  C   UNL d   1      14.113  11.780  -0.015  0.00  0.00     0.002 A 
ATOM     13  C   UNL d   1      14.875  12.024  -0.171  0.00  0.00     0.002 A 
ATOM     14  C   UNL d   1      15.062  12.377  -0.899  0.00  0.00     0.019 A 
ATOM     15  N   UNL d   1      14.473  12.800  -2.212  0.00  0.00    -0.288 N 
ATOM     16  C   UNL d   1      15.134  13.122  -2.610  0.00  0.00     0.101 C 
ENDBRANCH   2   7
BRANCH   1  17
ATOM     17  C   UNL d   1      13.427  14.553  -4.743  0.00  0.00     0.067 A 
ATOM     18  C   UNL d   1      14.053  14.671  -5.254  0.00  0.00     0.018 A 
ATOM     19  C   UNL d   1      14.084  15.341  -5.743  0.00  0.00     0.001 A 
ATOM     20  C   UNL d   1      14.711  15.444  -6.244  0.00  0.00     0.000 C 
ATOM     21  C   UNL d   1      13.464  15.900  -5.708  0.00  0.00     0.000 A 
ATOM     22  C   UNL d   1      12.838  15.781  -5.198  0.00  0.00     0.002 A 
ATOM     23  C   UNL d   1      13.484  16.590  -6.204  0.00  0.00     0.000 C 
ATOM     24  C   UNL d   1      12.817  15.107  -4.712  0.00  0.00     0.018 A 
ENDBRANCH   1  17
TORSDOF 2
ENDMDL
MODEL 2
REMARK VINA RESULT:      59.7      0.888      4.730
REMARK  2 active torsions:
REMARK  status: ('A' for Active; 'I' for Inactive)
REMARK    1  A    between atoms: C_5  and  C_1 
REMARK    2  A    between atoms: C_10  and  N_4 
ROOT
ATOM      1  N   UNL d   1      13.689  13.006  -2.997  0.00  0.00    -0.273 N 
ATOM      2  C   UNL d   1      13.523  13.795  -4.072  0.00  0.00     0.057 A 
ATOM      3  C   UNL d   1      13.297  12.567  -3.584  0.00  0.00     0.265 A 
ATOM      4  C   UNL d   1      13.826  13.756  -3.300  0.00  0.00     0.086 A 
ATOM      5  C   UNL d   1      13.196  13.051  -4.241  0.00  0.00     0.066 A 
ATOM      6  O   UNL d   1      13.054  11.779  -3.509  0.00  0.00    -0.267 OA
ENDROOT
BRANCH   2   7
ATOM      7  C   UNL d   1      13.567  14.467  -4.534  0.00  0.00     0.149 A 
ATOM      8  N   UNL d   1      13.304  14.594  -5.274  0.00  0.00    -0.227 NA
ATOM      9  C   UNL d   1      13.486  15.371  -5.493  0.00  0.00     0.099 A 
ATOM     10  C   UNL d   1      13.346  15.788  -6.181  0.00  0.00     0.021 A 
ATOM     11  C   UNL d   1      13.870  15.718  -4.863  0.00  0.00     0.083 A 
ATOM     12  C   UNL d   1      13.604  16.576  -6.228  0.00  0.00     0.002 A 
ATOM     13  C   UNL d   1      13.987  16.923  -5.599  0.00  0.00     0.002 A 
ATOM     14  C   UNL d   1      14.126  16.492  -4.902  0.00  0.00     0.019 A 
ATOM     15  N   UNL d   1      13.920  15.151  -4.262  0.00  0.00    -0.288 N 
ATOM     16  C   UNL d   1      14.270  15.256  -3.510  0.00  0.00     0.101 C 
ENDBRANCH   2   7
BRANCH   1  17
ATOM     17  C   UNL d   1      13.882  12.706  -2.271  0.00  0.00     0.067 A 
ATOM     18  C   UNL d   1      14.522  13.008  -1.863  0.00  0.00     0.018 A 
ATOM     19  C   UNL d   1      14.733  12.710  -1.118  0.00  0.00     0.001 A 
ATOM     20  C   UNL d   1      15.370  13.020  -0.726  0.00  0.00     0.000 C 
ATOM     21  C   UNL d   1      14.280  12.092  -0.783  0.00  0.00     0.000 A 
ATOM     22  C   UNL d   1      13.640  11.790  -1.191  0.00  0.00     0.002 A 
ATOM     23  C   UNL d   1      14.485  11.779  -0.020  0.00  0.00     0.000 C 
ATOM     24  C   UNL d   1      13.438  12.096  -1.937  0.00  0.00     0.018 A 
ENDBRANCH   1  17
TORSDOF 2
ENDMDL
MODEL 3
REMARK VINA RESULT:      59.9      2.669      4.038
REMARK  2 active torsions:
REMARK  status: ('A' for Active; 'I' for Inactive)
REMARK    1  A    between atoms: C_5  and  C_1 
REMARK    2  A    between atoms: C_10  and  N_4 
ROOT
ATOM      1  N   UNL d   1      14.749  14.696  -1.388  0.00  0.00    -0.273 N 
ATOM      2  C   UNL d   1      14.208  13.694  -2.101  0.00  0.00     0.057 A 
ATOM      3  C   UNL d   1      14.707  14.024  -0.901  0.00  0.00     0.265 A 
ATOM      4  C   UNL d   1      14.443  14.490  -2.121  0.00  0.00     0.086 A 
ATOM      5  C   UNL d   1      14.375  13.411  -1.338  0.00  0.00     0.066 A 
ATOM      6  O   UNL d   1      14.957  13.989  -0.113  0.00  0.00    -0.267 OA
ENDROOT
BRANCH   2   7
ATOM      7  C   UNL d   1      13.878  13.311  -2.742  0.00  0.00     0.149 A 
ATOM      8  N   UNL d   1      13.625  12.560  -2.811  0.00  0.00    -0.227 NA
ATOM      9  C   UNL d   1      13.336  12.445  -3.578  0.00  0.00     0.099 A 
ATOM     10  C   UNL d   1      13.014  11.790  -3.944  0.00  0.00     0.021 A 
ATOM     11  C   UNL d   1      13.420  13.150  -3.978  0.00  0.00     0.083 A 
ATOM     12  C   UNL d   1      12.772  11.855  -4.737  0.00  0.00     0.002 A 
ATOM     13  C   UNL d   1      12.856  12.560  -5.137  0.00  0.00     0.002 A 
ATOM     14  C   UNL d   1      13.184  13.222  -4.757  0.00  0.00     0.019 A 
ATOM     15  N   UNL d   1      13.760  13.693  -3.454  0.00  0.00    -0.288 N 
ATOM     16  C   UNL d   1      13.949  14.490  -3.620  0.00  0.00     0.101 C 
ENDBRANCH   2   7
BRANCH   1  17
ATOM     17  C   UNL d   1      15.047  15.407  -1.141  0.00  0.00     0.067 A 
ATOM     18  C   UNL d   1      14.847  16.091  -1.538  0.00  0.00     0.018 A 
ATOM     19  C   UNL d   1      15.144  16.828  -1.297  0.00  0.00     0.001 A 
ATOM     20  C   UNL d   1      14.936  17.498  -1.701  0.00  0.00     0.000 C 
ATOM     21  C   UNL d   1      15.657  16.864  -0.638  0.00  0.00     0.000 A 
ATOM     22  C   UNL d   1      15.858  16.179  -0.241  0.00  0.00     0.002 A 
ATOM     23  C   UNL d   1      15.969  17.611  -0.381  0.00  0.00     0.000 C 
ATOM     24  C   UNL d   1      15.553  15.446  -0.491  0.00  0.00     0.018 A 
ENDBRANCH   1  17
TORSDOF 2
ENDMDL
