MODEL 1
REMARK VINA RESULT:      -8.6      0.000      0.000
REMARK  8 active torsions:
REMARK  status: ('A' for Active; 'I' for Inactive)
REMARK    1  A    between atoms: C_5  and  C_1 
REMARK    2  A    between atoms: C_9  and  N_2 
REMARK    3  A    between atoms: C_8  and  C_5 
REMARK    4  A    between atoms: C_7  and  C_9 
REMARK       I    between atoms: N_12  and  C_7 
REMARK       I    between atoms: N_10  and  C_8 
REMARK    5  A    between atoms: C_20  and  N_10 
REMARK    6  A    between atoms: C_11  and  C_20 
REMARK    7  A    between atoms: C_23  and  N_12 
REMARK    8  A    between atoms: C_24  and  N_12 
ROOT
ATOM      1  C   UNL d   1      52.849  33.653  53.804  0.00  0.00     0.063 A 
ATOM      2  N   UNL d   1      53.454  32.457  53.801  0.00  0.00    -0.300 N 
ATOM      3  C   UNL d   1      52.824  32.882  53.479  0.00  0.00     0.084 A 
ATOM      4  C   UNL d   1      53.492  33.692  54.320  0.00  0.00     0.021 A 
ATOM      5  C   UNL d   1      53.867  32.946  54.315  0.00  0.00     0.064 A 
ATOM      6  C   UNL d   1      53.786  34.294  54.787  0.00  0.00     0.002 A 
ATOM      7  C   UNL d   1      54.534  32.825  54.786  0.00  0.00     0.018 A 
ATOM      8  C   UNL d   1      54.456  34.174  55.260  0.00  0.00     0.000 A 
ATOM      9  C   UNL d   1      54.827  33.436  55.255  0.00  0.00     0.002 A 
ENDROOT
BRANCH   1  10
ATOM     10  C   UNL d   1      52.321  34.260  53.635  0.00  0.00     0.254 C 
ATOM     11  O   UNL d   1      51.846  34.567  54.239  0.00  0.00    -0.281 OA
BRANCH  10  12
ATOM     12  C   UNL d   1      52.263  34.565  52.871  0.00  0.00     0.318 C 
ATOM     13  N   UNL d   1      51.522  34.638  52.515  0.00  0.00    -0.202 NA
ATOM     14  O   UNL d   1      52.946  34.792  52.473  0.00  0.00    -0.262 OA
BRANCH  13  15
ATOM     15  C   UNL d   1      50.852  34.409  52.919  0.00  0.00     0.127 C 
BRANCH  15  16
ATOM     16  C   UNL d   1      50.113  34.548  52.597  0.00  0.00     0.119 A 
ATOM     17  O   UNL d   1      49.488  34.959  52.953  0.00  0.00    -0.304 OA
ATOM     18  C   UNL d   1      48.843  34.969  52.435  0.00  0.00     0.123 A 
ATOM     19  C   UNL d   1      49.067  34.559  51.743  0.00  0.00     0.029 A 
ATOM     20  C   UNL d   1      49.838  34.304  51.844  0.00  0.00     0.028 A 
ENDBRANCH  15  16
ENDBRANCH  13  15
ENDBRANCH  10  12
ENDBRANCH   1  10
BRANCH   2  21
ATOM     21  C   UNL d   1      53.638  31.671  53.632  0.00  0.00     0.142 C 
BRANCH  21  22
ATOM     22  C   UNL d   1      53.110  31.204  53.213  0.00  0.00     0.282 C 
ATOM     23  N   UNL d   1      53.053  30.396  53.371  0.00  0.00    -0.271 N 
ATOM     24  O   UNL d   1      52.632  31.545  52.630  0.00  0.00    -0.265 OA
BRANCH  23  25
ATOM     25  C   UNL d   1      52.519  29.930  52.946  0.00  0.00     0.083 C 
ATOM     26  C   UNL d   1      52.798  29.330  52.453  0.00  0.00     0.021 C 
ENDBRANCH  23  25
BRANCH  23  27
ATOM     27  C   UNL d   1      53.529  30.056  53.951  0.00  0.00     0.083 C 
ATOM     28  C   UNL d   1      53.284  29.371  54.333  0.00  0.00     0.021 C 
ENDBRANCH  23  27
ENDBRANCH  21  22
ENDBRANCH   2  21
TORSDOF 8
ENDMDL
MODEL 2
REMARK VINA RESULT:      -8.1      1.033      4.531
REMARK  8 active torsions:
REMARK  status: ('A' for Active; 'I' for Inactive)
REMARK    1  A    between atoms: C_5  and  C_1 
REMARK    2  A    between atoms: C_9  and  N_2 
REMARK    3  A    between atoms: C_8  and  C_5 
REMARK    4  A    between atoms: C_7  and  C_9 
REMARK       I    between atoms: N_12  and  C_7 
REMARK       I    between atoms: N_10  and  C_8 
REMARK    5  A    between atoms: C_20  and  N_10 
REMARK    6  A    between atoms: C_11  and  C_20 
REMARK    7  A    between atoms: C_23  and  N_12 
REMARK    8  A    between atoms: C_24  and  N_12 
ROOT
ATOM      1  C   UNL d   1      53.160  32.456  53.457  0.00  0.00     0.063 A 
ATOM      2  N   UNL d   1      52.309  33.490  53.517  0.00  0.00    -0.300 N 
ATOM      3  C   UNL d   1      52.437  32.757  53.161  0.00  0.00     0.084 A 
ATOM      4  C   UNL d   1      53.467  33.006  53.989  0.00  0.00     0.021 A 
ATOM      5  C   UNL d   1      52.934  33.649  54.025  0.00  0.00     0.064 A 
ATOM      6  C   UNL d   1      54.147  33.014  54.442  0.00  0.00     0.002 A 
ATOM      7  C   UNL d   1      53.103  34.288  54.520  0.00  0.00     0.018 A 
ATOM      8  C   UNL d   1      54.317  33.654  54.939  0.00  0.00     0.000 A 
ATOM      9  C   UNL d   1      53.791  34.290  54.974  0.00  0.00     0.002 A 
ENDROOT
BRANCH   1  10
ATOM     10  C   UNL d   1      53.499  31.737  53.248  0.00  0.00     0.254 C 
ATOM     11  O   UNL d   1      54.310  31.621  53.363  0.00  0.00    -0.281 OA
BRANCH  10  12
ATOM     12  C   UNL d   1      53.039  31.133  52.927  0.00  0.00     0.318 C 
ATOM     13  N   UNL d   1      52.993  30.404  53.311  0.00  0.00    -0.202 NA
ATOM     14  O   UNL d   1      52.631  31.265  52.225  0.00  0.00    -0.262 OA
BRANCH  13  15
ATOM     15  C   UNL d   1      53.402  30.284  54.007  0.00  0.00     0.127 C 
BRANCH  15  16
ATOM     16  C   UNL d   1      53.363  29.560  54.385  0.00  0.00     0.119 A 
ATOM     17  O   UNL d   1      53.359  28.814  54.025  0.00  0.00    -0.304 OA
ATOM     18  C   UNL d   1      53.313  28.233  54.612  0.00  0.00     0.123 A 
ATOM     19  C   UNL d   1      53.288  28.619  55.351  0.00  0.00     0.029 A 
ATOM     20  C   UNL d   1      53.318  29.425  55.211  0.00  0.00     0.028 A 
ENDBRANCH  15  16
ENDBRANCH  13  15
ENDBRANCH  10  12
ENDBRANCH   1  10
BRANCH   2  21
ATOM     21  C   UNL d   1      51.660  33.981  53.385  0.00  0.00     0.142 C 
BRANCH  21  22
ATOM     22  C   UNL d   1      51.424  34.156  52.619  0.00  0.00     0.282 C 
ATOM     23  N   UNL d   1      50.637  34.343  52.459  0.00  0.00    -0.271 N 
ATOM     24  O   UNL d   1      51.979  34.146  52.006  0.00  0.00    -0.265 OA
BRANCH  23  25
ATOM     25  C   UNL d   1      50.405  34.520  51.685  0.00  0.00     0.083 C 
ATOM     26  C   UNL d   1      49.729  34.167  51.368  0.00  0.00     0.021 C 
ENDBRANCH  23  25
BRANCH  23  27
ATOM     27  C   UNL d   1      50.084  34.354  53.069  0.00  0.00     0.083 C 
ATOM     28  C   UNL d   1      49.548  34.973  53.127  0.00  0.00     0.021 C 
ENDBRANCH  23  27
ENDBRANCH  21  22
ENDBRANCH   2  21
TORSDOF 8
ENDMDL
MODEL 3
REMARK VINA RESULT:      -6.2      1.529      4.624
REMARK  8 active torsions:
REMARK  status: ('A' for Active; 'I' for Inactive)
REMARK    1  A    between atoms: C_5  and  C_1 
REMARK    2  A    between atoms: C_9  and  N_2 
REMARK    3  A    between atoms: C_8  and  C_5 
REMARK    4  A    between atoms: C_7  and  C_9 
REMARK       I    between atoms: N_12  and  C_7 
REMARK       I    between atoms: N_10  and  C_8 
REMARK    5  A    between atoms: C_20  and  N_10 
REMARK    6  A    between atoms: C_11  and  C_20 
REMARK    7  A    between atoms: C_23  and  N_12 
REMARK    8  A    between atoms: C_24  and  N_12 
ROOT
ATOM      1  C   UNL d   1      52.336  32.238  53.265  0.00  0.00     0.063 A 
ATOM      2  N   UNL d   1      52.972  33.329  53.713  0.00  0.00    -0.300 N 
ATOM      3  C   UNL d   1      53.020  32.507  53.665  0.00  0.00     0.084 A 
ATOM      4  C   UNL d   1      51.877  32.896  53.073  0.00  0.00     0.021 A 
ATOM      5  C   UNL d   1      52.276  33.575  53.354  0.00  0.00     0.064 A 
ATOM      6  C   UNL d   1      51.161  32.974  52.688  0.00  0.00     0.002 A 
ATOM      7  C   UNL d   1      51.940  34.319  53.238  0.00  0.00     0.018 A 
ATOM      8  C   UNL d   1      50.823  33.722  52.571  0.00  0.00     0.000 A 
ATOM      9  C   UNL d   1      51.218  34.392  52.848  0.00  0.00     0.002 A 
ENDROOT
BRANCH   1  10
ATOM     10  C   UNL d   1      52.158  31.453  53.096  0.00  0.00     0.254 C 
ATOM     11  O   UNL d   1      51.411  31.155  53.288  0.00  0.00    -0.281 OA
BRANCH  10  12
ATOM     12  C   UNL d   1      52.716  30.964  52.738  0.00  0.00     0.318 C 
ATOM     13  N   UNL d   1      52.973  30.283  53.126  0.00  0.00    -0.202 NA
ATOM     14  O   UNL d   1      53.010  31.162  51.995  0.00  0.00    -0.262 OA
BRANCH  13  15
ATOM     15  C   UNL d   1      52.675  30.096  53.861  0.00  0.00     0.127 C 
BRANCH  15  16
ATOM     16  C   UNL d   1      52.986  29.467  54.281  0.00  0.00     0.119 A 
ATOM     17  O   UNL d   1      53.179  28.720  53.981  0.00  0.00    -0.304 OA
ATOM     18  C   UNL d   1      53.477  28.252  54.595  0.00  0.00     0.123 A 
ATOM     19  C   UNL d   1      53.470  28.712  55.291  0.00  0.00     0.029 A 
ATOM     20  C   UNL d   1      53.171  29.449  55.099  0.00  0.00     0.028 A 
ENDBRANCH  15  16
ENDBRANCH  13  15
ENDBRANCH  10  12
ENDBRANCH   1  10
BRANCH   2  21
ATOM     21  C   UNL d   1      53.532  33.822  54.065  0.00  0.00     0.142 C 
BRANCH  21  22
ATOM     22  C   UNL d   1      53.886  33.606  54.773  0.00  0.00     0.282 C 
ATOM     23  N   UNL d   1      54.690  33.743  54.894  0.00  0.00    -0.271 N 
ATOM     24  O   UNL d   1      53.433  33.250  55.367  0.00  0.00    -0.265 OA
BRANCH  23  25
ATOM     25  C   UNL d   1      55.042  33.523  55.610  0.00  0.00     0.083 C 
ATOM     26  C   UNL d   1      55.286  34.104  56.143  0.00  0.00     0.021 C 
ENDBRANCH  23  25
BRANCH  23  27
ATOM     27  C   UNL d   1      55.142  34.097  54.304  0.00  0.00     0.083 C 
ATOM     28  C   UNL d   1      55.938  33.911  54.228  0.00  0.00     0.021 C 
ENDBRANCH  23  27
ENDBRANCH  21  22
ENDBRANCH   2  21
TORSDOF 8
ENDMDL
MODEL 4
REMARK VINA RESULT:      -5.9      1.069      2.968
REMARK  8 active torsions:
REMARK  status: ('A' for Active; 'I' for Inactive)
REMARK    1  A    between atoms: C_5  and  C_1 
REMARK    2  A    between atoms: C_9  and  N_2 
REMARK    3  A    between atoms: C_8  and  C_5 
REMARK    4  A    between atoms: C_7  and  C_9 
REMARK       I    between atoms: N_12  and  C_7 
REMARK       I    between atoms: N_10  and  C_8 
REMARK    5  A    between atoms: C_20  and  N_10 
REMARK    6  A    between atoms: C_11  and  C_20 
REMARK    7  A    between atoms: C_23  and  N_12 
REMARK    8  A    between atoms: C_24  and  N_12 
ROOT
ATOM      1  C   UNL d   1      52.317  32.489  53.163  0.00  0.00     0.063 A 
ATOM      2  N   UNL d   1      53.485  32.368  53.809  0.00  0.00    -0.300 N 
ATOM      3  C   UNL d   1      52.905  32.910  53.584  0.00  0.00     0.084 A 
ATOM      4  C   UNL d   1      52.543  31.696  53.133  0.00  0.00     0.021 A 
ATOM      5  C   UNL d   1      53.271  31.623  53.537  0.00  0.00     0.064 A 
ATOM      6  C   UNL d   1      52.194  31.036  52.801  0.00  0.00     0.002 A 
ATOM      7  C   UNL d   1      53.630  30.883  53.595  0.00  0.00     0.018 A 
ATOM      8  C   UNL d   1      52.554  30.292  52.858  0.00  0.00     0.000 A 
ATOM      9  C   UNL d   1      53.273  30.222  53.258  0.00  0.00     0.002 A 
ENDROOT
BRANCH   1  10
ATOM     10  C   UNL d   1      51.636  32.815  52.837  0.00  0.00     0.254 C 
ATOM     11  O   UNL d   1      50.902  32.472  53.002  0.00  0.00    -0.281 OA
BRANCH  10  12
ATOM     12  C   UNL d   1      51.680  33.477  52.349  0.00  0.00     0.318 C 
ATOM     13  N   UNL d   1      51.087  34.050  52.380  0.00  0.00    -0.202 NA
ATOM     14  O   UNL d   1      52.318  33.560  51.835  0.00  0.00    -0.262 OA
BRANCH  13  15
ATOM     15  C   UNL d   1      50.460  33.958  52.893  0.00  0.00     0.127 C 
BRANCH  15  16
ATOM     16  C   UNL d   1      49.842  34.494  52.885  0.00  0.00     0.119 A 
ATOM     17  O   UNL d   1      49.630  35.014  53.493  0.00  0.00    -0.304 OA
ATOM     18  C   UNL d   1      48.974  35.456  53.252  0.00  0.00     0.123 A 
ATOM     19  C   UNL d   1      48.770  35.209  52.481  0.00  0.00     0.029 A 
ATOM     20  C   UNL d   1      49.298  34.625  52.260  0.00  0.00     0.028 A 
ENDBRANCH  15  16
ENDBRANCH  13  15
ENDBRANCH  10  12
ENDBRANCH   1  10
BRANCH   2  21
ATOM     21  C   UNL d   1      54.167  32.547  54.237  0.00  0.00     0.142 C 
BRANCH  21  22
ATOM     22  C   UNL d   1      54.141  33.094  54.846  0.00  0.00     0.282 C 
ATOM     23  N   UNL d   1      54.801  33.560  55.014  0.00  0.00    -0.271 N 
ATOM     24  O   UNL d   1      53.451  33.179  55.294  0.00  0.00    -0.265 OA
BRANCH  23  25
ATOM     25  C   UNL d   1      54.770  34.111  55.630  0.00  0.00     0.083 C 
ATOM     26  C   UNL d   1      55.267  34.026  56.283  0.00  0.00     0.021 C 
ENDBRANCH  23  25
BRANCH  23  27
ATOM     27  C   UNL d   1      55.489  33.477  54.569  0.00  0.00     0.083 C 
ATOM     28  C   UNL d   1      55.938  34.138  54.380  0.00  0.00     0.021 C 
ENDBRANCH  23  27
ENDBRANCH  21  22
ENDBRANCH   2  21
TORSDOF 8
ENDMDL
