MODEL 1
REMARK VINA RESULT:      -5.5      0.000      0.000
REMARK  4 active torsions:
REMARK  status: ('A' for Active; 'I' for Inactive)
REMARK    1  A    between atoms: S_8  and  C_1 
REMARK    2  A    between atoms: C_2  and  S_7 
REMARK    3  A    between atoms: S_7  and  C_13 
REMARK    4  A    between atoms: C_13  and  S_8 
ROOT
ATOM      1  C   UNL d   1     -47.357  12.945  22.857  0.00  0.00     0.128 C 
ENDROOT
BRANCH   1   2
ATOM      2  S   UNL d   1     -47.636  13.654  22.542  0.00  0.00    -0.076 SA
BRANCH   2   3
ATOM      3  C   UNL d   1     -48.424  13.701  22.362  0.00  0.00     0.137 A 
ATOM      4  N   UNL d   1     -48.938  13.137  22.012  0.00  0.00    -0.232 NA
ATOM      5  C   UNL d   1     -49.675  13.469  21.956  0.00  0.00     0.088 A 
ATOM      6  C   UNL d   1     -50.398  13.198  21.668  0.00  0.00     0.020 A 
ATOM      7  C   UNL d   1     -49.638  14.237  22.264  0.00  0.00     0.049 A 
ATOM      8  C   UNL d   1     -51.057  13.665  21.684  0.00  0.00     0.002 A 
ATOM      9  C   UNL d   1     -51.045  14.428  21.984  0.00  0.00     0.001 A 
ATOM     10  C   UNL d   1     -50.313  14.715  22.280  0.00  0.00     0.008 A 
ATOM     11  S   UNL d   1     -48.873  14.385  22.515  0.00  0.00    -0.060 SA
ENDBRANCH   2   3
ENDBRANCH   1   2
BRANCH   1  12
ATOM     12  S   UNL d   1     -46.661  12.944  23.298  0.00  0.00    -0.076 SA
BRANCH  12  13
ATOM     13  C   UNL d   1     -46.155  12.293  23.333  0.00  0.00     0.137 A 
ATOM     14  N   UNL d   1     -45.384  12.299  23.141  0.00  0.00    -0.232 NA
ATOM     15  C   UNL d   1     -45.105  11.543  23.257  0.00  0.00     0.088 A 
ATOM     16  C   UNL d   1     -44.381  11.191  23.165  0.00  0.00     0.020 A 
ATOM     17  C   UNL d   1     -45.741  11.093  23.524  0.00  0.00     0.049 A 
ATOM     18  C   UNL d   1     -44.259  10.389  23.330  0.00  0.00     0.002 A 
ATOM     19  C   UNL d   1     -44.914   9.926  23.605  0.00  0.00     0.001 A 
ATOM     20  C   UNL d   1     -45.654  10.291  23.698  0.00  0.00     0.008 A 
ATOM     21  S   UNL d   1     -46.403  11.579  23.568  0.00  0.00    -0.060 SA
ENDBRANCH  12  13
ENDBRANCH   1  12
TORSDOF 4
ENDMDL
MODEL 2
REMARK VINA RESULT:      -5.3      8.662      9.868
REMARK  4 active torsions:
REMARK  status: ('A' for Active; 'I' for Inactive)
REMARK    1  A    between atoms: S_8  and  C_1 
REMARK    2  A    between atoms: C_2  and  S_7 
REMARK    3  A    between atoms: S_7  and  C_13 
REMARK    4  A    between atoms: C_13  and  S_8 
ROOT
ATOM      1  C   UNL d   1     -39.694  14.489  19.507  0.00  0.00     0.128 C 
ENDROOT
BRANCH   1   2
ATOM      2  S   UNL d   1     -40.073  14.409  18.779  0.00  0.00    -0.076 SA
BRANCH   2   3
ATOM      3  C   UNL d   1     -39.621  14.194  18.142  0.00  0.00     0.137 A 
ATOM      4  N   UNL d   1     -39.166  13.501  18.005  0.00  0.00    -0.232 NA
ATOM      5  C   UNL d   1     -38.822  13.567  17.275  0.00  0.00     0.088 A 
ATOM      6  C   UNL d   1     -38.323  13.079  16.837  0.00  0.00     0.020 A 
ATOM      7  C   UNL d   1     -39.050  14.292  16.944  0.00  0.00     0.049 A 
ATOM      8  C   UNL d   1     -38.060  13.295  16.105  0.00  0.00     0.002 A 
ATOM      9  C   UNL d   1     -38.272  14.007  15.757  0.00  0.00     0.001 A 
ATOM     10  C   UNL d   1     -38.781  14.513  16.194  0.00  0.00     0.008 A 
ATOM     11  S   UNL d   1     -39.541  14.680  17.472  0.00  0.00    -0.060 SA
ENDBRANCH   2   3
ENDBRANCH   1   2
BRANCH   1  12
ATOM     12  S   UNL d   1     -40.128  14.734  20.164  0.00  0.00    -0.076 SA
BRANCH  12  13
ATOM     13  C   UNL d   1     -39.791  14.830  20.910  0.00  0.00     0.137 A 
ATOM     14  N   UNL d   1     -39.531  14.240  21.376  0.00  0.00    -0.232 NA
ATOM     15  C   UNL d   1     -39.244  14.585  22.057  0.00  0.00     0.088 A 
ATOM     16  C   UNL d   1     -38.909  14.295  22.735  0.00  0.00     0.020 A 
ATOM     17  C   UNL d   1     -39.346  15.398  21.972  0.00  0.00     0.049 A 
ATOM     18  C   UNL d   1     -38.664  14.792  23.349  0.00  0.00     0.002 A 
ATOM     19  C   UNL d   1     -38.769  15.629  23.262  0.00  0.00     0.001 A 
ATOM     20  C   UNL d   1     -39.113  15.922  22.565  0.00  0.00     0.008 A 
ATOM     21  S   UNL d   1     -39.694  15.542  21.241  0.00  0.00    -0.060 SA
ENDBRANCH  12  13
ENDBRANCH   1  12
TORSDOF 4
ENDMDL
MODEL 3
REMARK VINA RESULT:      -5.2      8.651      9.977
REMARK  4 active torsions:
REMARK  status: ('A' for Active; 'I' for Inactive)
REMARK    1  A    between atoms: S_8  and  C_1 
REMARK    2  A    between atoms: C_2  and  S_7 
REMARK    3  A    between atoms: S_7  and  C_13 
REMARK    4  A    between atoms: C_13  and  S_8 
ROOT
ATOM      1  C   UNL d   1     -39.701  14.551  19.545  0.00  0.00     0.128 C 
ENDROOT
BRANCH   1   2
ATOM      2  S   UNL d   1     -40.176  14.752  20.188  0.00  0.00    -0.076 SA
BRANCH   2   3
ATOM      3  C   UNL d   1     -39.820  14.820  20.913  0.00  0.00     0.137 A 
ATOM      4  N   UNL d   1     -39.440  14.243  21.389  0.00  0.00    -0.232 NA
ATOM      5  C   UNL d   1     -39.178  14.607  22.064  0.00  0.00     0.088 A 
ATOM      6  C   UNL d   1     -38.774  14.341  22.730  0.00  0.00     0.020 A 
ATOM      7  C   UNL d   1     -39.387  15.408  22.024  0.00  0.00     0.049 A 
ATOM      8  C   UNL d   1     -38.582  14.843  23.333  0.00  0.00     0.002 A 
ATOM      9  C   UNL d   1     -38.777  15.640  23.317  0.00  0.00     0.001 A 
ATOM     10  C   UNL d   1     -39.190  15.922  22.642  0.00  0.00     0.008 A 
ATOM     11  S   UNL d   1     -39.781  15.544  21.320  0.00  0.00    -0.060 SA
ENDBRANCH   2   3
ENDBRANCH   1   2
BRANCH   1  12
ATOM     12  S   UNL d   1     -40.049  14.423  18.809  0.00  0.00    -0.076 SA
BRANCH  12  13
ATOM     13  C   UNL d   1     -39.609  14.281  18.126  0.00  0.00     0.137 A 
ATOM     14  N   UNL d   1     -39.197  13.617  17.974  0.00  0.00    -0.232 NA
ATOM     15  C   UNL d   1     -38.851  13.716  17.244  0.00  0.00     0.088 A 
ATOM     16  C   UNL d   1     -38.372  13.253  16.783  0.00  0.00     0.020 A 
ATOM     17  C   UNL d   1     -39.075  14.461  16.973  0.00  0.00     0.049 A 
ATOM     18  C   UNL d   1     -38.098  13.506  16.044  0.00  0.00     0.002 A 
ATOM     19  C   UNL d   1     -38.329  14.273  15.765  0.00  0.00     0.001 A 
ATOM     20  C   UNL d   1     -38.820  14.744  16.241  0.00  0.00     0.008 A 
ATOM     21  S   UNL d   1     -39.556  14.810  17.541  0.00  0.00    -0.060 SA
ENDBRANCH  12  13
ENDBRANCH   1  12
TORSDOF 4
ENDMDL
MODEL 4
REMARK VINA RESULT:      -4.6      8.791      9.292
REMARK  4 active torsions:
REMARK  status: ('A' for Active; 'I' for Inactive)
REMARK    1  A    between atoms: S_8  and  C_1 
REMARK    2  A    between atoms: C_2  and  S_7 
REMARK    3  A    between atoms: S_7  and  C_13 
REMARK    4  A    between atoms: C_13  and  S_8 
ROOT
ATOM      1  C   UNL d   1     -38.861  14.852  19.727  0.00  0.00     0.128 C 
ENDROOT
BRANCH   1   2
ATOM      2  S   UNL d   1     -38.714  15.028  18.935  0.00  0.00    -0.076 SA
BRANCH   2   3
ATOM      3  C   UNL d   1     -39.347  15.218  18.467  0.00  0.00     0.137 A 
ATOM      4  N   UNL d   1     -40.091  15.553  18.667  0.00  0.00    -0.232 NA
ATOM      5  C   UNL d   1     -40.523  15.629  17.986  0.00  0.00     0.088 A 
ATOM      6  C   UNL d   1     -41.278  15.915  17.823  0.00  0.00     0.020 A 
ATOM      7  C   UNL d   1     -40.066  15.346  17.355  0.00  0.00     0.049 A 
ATOM      8  C   UNL d   1     -41.571  15.922  17.071  0.00  0.00     0.002 A 
ATOM      9  C   UNL d   1     -41.138  15.648  16.430  0.00  0.00     0.001 A 
ATOM     10  C   UNL d   1     -40.366  15.354  16.584  0.00  0.00     0.008 A 
ATOM     11  S   UNL d   1     -39.344  15.093  17.645  0.00  0.00    -0.060 SA
ENDBRANCH   2   3
ENDBRANCH   1   2
BRANCH   1  12
ATOM     12  S   UNL d   1     -38.227  14.738  20.241  0.00  0.00    -0.076 SA
BRANCH  12  13
ATOM     13  C   UNL d   1     -38.326  14.509  21.027  0.00  0.00     0.137 A 
ATOM     14  N   UNL d   1     -38.580  13.796  21.271  0.00  0.00    -0.232 NA
ATOM     15  C   UNL d   1     -38.594  13.815  22.085  0.00  0.00     0.088 A 
ATOM     16  C   UNL d   1     -38.795  13.276  22.656  0.00  0.00     0.020 A 
ATOM     17  C   UNL d   1     -38.338  14.565  22.310  0.00  0.00     0.049 A 
ATOM     18  C   UNL d   1     -38.752  13.456  23.462  0.00  0.00     0.002 A 
ATOM     19  C   UNL d   1     -38.490  14.228  23.694  0.00  0.00     0.001 A 
ATOM     20  C   UNL d   1     -38.284  14.777  23.105  0.00  0.00     0.008 A 
ATOM     21  S   UNL d   1     -38.171  14.997  21.631  0.00  0.00    -0.060 SA
ENDBRANCH  12  13
ENDBRANCH   1  12
TORSDOF 4
ENDMDL
MODEL 5
REMARK VINA RESULT:      -4.4      8.762     10.248
REMARK  4 active torsions:
REMARK  status: ('A' for Active; 'I' for Inactive)
REMARK    1  A    between atoms: S_8  and  C_1 
REMARK    2  A    between atoms: C_2  and  S_7 
REMARK    3  A    between atoms: S_7  and  C_13 
REMARK    4  A    between atoms: C_13  and  S_8 
ROOT
ATOM      1  C   UNL d   1     -38.836  15.350  19.808  0.00  0.00     0.128 C 
ENDROOT
BRANCH   1   2
ATOM      2  S   UNL d   1     -38.384  15.481  20.485  0.00  0.00    -0.076 SA
BRANCH   2   3
ATOM      3  C   UNL d   1     -38.474  14.965  21.103  0.00  0.00     0.137 A 
ATOM      4  N   UNL d   1     -39.027  14.963  21.734  0.00  0.00    -0.232 NA
ATOM      5  C   UNL d   1     -38.873  14.319  22.201  0.00  0.00     0.088 A 
ATOM      6  C   UNL d   1     -39.216  14.023  22.889  0.00  0.00     0.020 A 
ATOM      7  C   UNL d   1     -38.229  13.911  21.876  0.00  0.00     0.049 A 
ATOM      8  C   UNL d   1     -38.937  13.352  23.241  0.00  0.00     0.002 A 
ATOM      9  C   UNL d   1     -38.301  12.931  22.939  0.00  0.00     0.001 A 
ATOM     10  C   UNL d   1     -37.943  13.224  22.238  0.00  0.00     0.008 A 
ATOM     11  S   UNL d   1     -37.980  14.303  21.202  0.00  0.00    -0.060 SA
ENDBRANCH   2   3
ENDBRANCH   1   2
BRANCH   1  12
ATOM     12  S   UNL d   1     -38.851  15.922  19.213  0.00  0.00    -0.076 SA
BRANCH  12  13
ATOM     13  C   UNL d   1     -39.403  15.916  18.602  0.00  0.00     0.137 A 
ATOM     14  N   UNL d   1     -40.193  15.918  18.696  0.00  0.00    -0.232 NA
ATOM     15  C   UNL d   1     -40.520  15.910  17.950  0.00  0.00     0.088 A 
ATOM     16  C   UNL d   1     -41.280  15.908  17.670  0.00  0.00     0.020 A 
ATOM     17  C   UNL d   1     -39.893  15.903  17.415  0.00  0.00     0.049 A 
ATOM     18  C   UNL d   1     -41.449  15.899  16.860  0.00  0.00     0.002 A 
ATOM     19  C   UNL d   1     -40.804  15.892  16.310  0.00  0.00     0.001 A 
ATOM     20  C   UNL d   1     -40.026  15.894  16.601  0.00  0.00     0.008 A 
ATOM     21  S   UNL d   1     -39.189  15.906  17.840  0.00  0.00    -0.060 SA
ENDBRANCH  12  13
ENDBRANCH   1  12
TORSDOF 4
ENDMDL
MODEL 6
REMARK VINA RESULT:      -3.2      4.080      6.478
REMARK  4 active torsions:
REMARK  status: ('A' for Active; 'I' for Inactive)
REMARK    1  A    between atoms: S_8  and  C_1 
REMARK    2  A    between atoms: C_2  and  S_7 
REMARK    3  A    between atoms: S_7  and  C_13 
REMARK    4  A    between atoms: C_13  and  S_8 
ROOT
ATOM      1  C   UNL d   1     -43.297  13.378  21.435  0.00  0.00     0.128 C 
ENDROOT
BRANCH   1   2
ATOM      2  S   UNL d   1     -42.554  13.183  21.136  0.00  0.00    -0.076 SA
BRANCH   2   3
ATOM      3  C   UNL d   1     -42.014  13.780  21.051  0.00  0.00     0.137 A 
ATOM      4  N   UNL d   1     -42.119  14.613  21.040  0.00  0.00    -0.232 NA
ATOM      5  C   UNL d   1     -41.393  14.957  20.939  0.00  0.00     0.088 A 
ATOM      6  C   UNL d   1     -41.139  15.739  20.885  0.00  0.00     0.020 A 
ATOM      7  C   UNL d   1     -40.826  14.355  20.886  0.00  0.00     0.049 A 
ATOM      8  C   UNL d   1     -40.359  15.920  20.782  0.00  0.00     0.002 A 
ATOM      9  C   UNL d   1     -39.779  15.343  20.726  0.00  0.00     0.001 A 
ATOM     10  C   UNL d   1     -40.027  14.542  20.780  0.00  0.00     0.008 A 
ATOM     11  S   UNL d   1     -41.201  13.631  20.954  0.00  0.00    -0.060 SA
ENDBRANCH   2   3
ENDBRANCH   1   2
BRANCH   1  12
ATOM     12  S   UNL d   1     -43.844  12.779  21.586  0.00  0.00    -0.076 SA
BRANCH  12  13
ATOM     13  C   UNL d   1     -44.561  12.915  21.968  0.00  0.00     0.137 A 
ATOM     14  N   UNL d   1     -44.954  13.607  21.975  0.00  0.00    -0.232 NA
ATOM     15  C   UNL d   1     -45.630  13.491  22.415  0.00  0.00     0.088 A 
ATOM     16  C   UNL d   1     -46.250  13.966  22.628  0.00  0.00     0.020 A 
ATOM     17  C   UNL d   1     -45.619  12.705  22.665  0.00  0.00     0.049 A 
ATOM     18  C   UNL d   1     -46.877  13.688  23.091  0.00  0.00     0.002 A 
ATOM     19  C   UNL d   1     -46.865  12.880  23.348  0.00  0.00     0.001 A 
ATOM     20  C   UNL d   1     -46.228  12.396  23.127  0.00  0.00     0.008 A 
ATOM     21  S   UNL d   1     -44.936  12.350  22.375  0.00  0.00    -0.060 SA
ENDBRANCH  12  13
ENDBRANCH   1  12
TORSDOF 4
ENDMDL
MODEL 7
REMARK VINA RESULT:      -3.2      4.162      5.400
REMARK  4 active torsions:
REMARK  status: ('A' for Active; 'I' for Inactive)
REMARK    1  A    between atoms: S_8  and  C_1 
REMARK    2  A    between atoms: C_2  and  S_7 
REMARK    3  A    between atoms: S_7  and  C_13 
REMARK    4  A    between atoms: C_13  and  S_8 
ROOT
ATOM      1  C   UNL d   1     -43.174  13.429  21.439  0.00  0.00     0.128 C 
ENDROOT
BRANCH   1   2
ATOM      2  S   UNL d   1     -43.737  12.828  21.471  0.00  0.00    -0.076 SA
BRANCH   2   3
ATOM      3  C   UNL d   1     -44.431  12.982  21.859  0.00  0.00     0.137 A 
ATOM      4  N   UNL d   1     -44.857  13.700  21.950  0.00  0.00    -0.232 NA
ATOM      5  C   UNL d   1     -45.518  13.546  22.392  0.00  0.00     0.088 A 
ATOM      6  C   UNL d   1     -46.140  14.013  22.662  0.00  0.00     0.020 A 
ATOM      7  C   UNL d   1     -45.520  12.740  22.583  0.00  0.00     0.049 A 
ATOM      8  C   UNL d   1     -46.740  13.699  23.103  0.00  0.00     0.002 A 
ATOM      9  C   UNL d   1     -46.764  12.904  23.306  0.00  0.00     0.001 A 
ATOM     10  C   UNL d   1     -46.135  12.419  23.035  0.00  0.00     0.008 A 
ATOM     11  S   UNL d   1     -44.856  12.389  22.259  0.00  0.00    -0.060 SA
ENDBRANCH   2   3
ENDBRANCH   1   2
BRANCH   1  12
ATOM     12  S   UNL d   1     -42.452  13.289  21.067  0.00  0.00    -0.076 SA
BRANCH  12  13
ATOM     13  C   UNL d   1     -41.855  13.856  21.023  0.00  0.00     0.137 A 
ATOM     14  N   UNL d   1     -41.951  14.607  20.781  0.00  0.00    -0.232 NA
ATOM     15  C   UNL d   1     -41.221  14.966  20.827  0.00  0.00     0.088 A 
ATOM     16  C   UNL d   1     -40.950  15.711  20.662  0.00  0.00     0.020 A 
ATOM     17  C   UNL d   1     -40.694  14.397  21.105  0.00  0.00     0.049 A 
ATOM     18  C   UNL d   1     -40.156  15.922  20.765  0.00  0.00     0.002 A 
ATOM     19  C   UNL d   1     -39.614  15.337  21.052  0.00  0.00     0.001 A 
ATOM     20  C   UNL d   1     -39.896  14.574  21.219  0.00  0.00     0.008 A 
ATOM     21  S   UNL d   1     -41.107  13.697  21.226  0.00  0.00    -0.060 SA
ENDBRANCH  12  13
ENDBRANCH   1  12
TORSDOF 4
ENDMDL
MODEL 8
REMARK VINA RESULT:      -3.1      0.666      5.297
REMARK  4 active torsions:
REMARK  status: ('A' for Active; 'I' for Inactive)
REMARK    1  A    between atoms: S_8  and  C_1 
REMARK    2  A    between atoms: C_2  and  S_7 
REMARK    3  A    between atoms: S_7  and  C_13 
REMARK    4  A    between atoms: C_13  and  S_8 
ROOT
ATOM      1  C   UNL d   1     -47.244  13.487  22.788  0.00  0.00     0.128 C 
ENDROOT
BRANCH   1   2
ATOM      2  S   UNL d   1     -46.421  13.439  22.770  0.00  0.00    -0.076 SA
BRANCH   2   3
ATOM      3  C   UNL d   1     -46.081  12.727  22.956  0.00  0.00     0.137 A 
ATOM      4  N   UNL d   1     -46.403  12.054  23.342  0.00  0.00    -0.232 NA
ATOM      5  C   UNL d   1     -45.823  11.490  23.388  0.00  0.00     0.088 A 
ATOM      6  C   UNL d   1     -45.798  10.728  23.698  0.00  0.00     0.020 A 
ATOM      7  C   UNL d   1     -45.137  11.794  23.036  0.00  0.00     0.049 A 
ATOM      8  C   UNL d   1     -45.125  10.283  23.663  0.00  0.00     0.002 A 
ATOM      9  C   UNL d   1     -44.434  10.561  23.320  0.00  0.00     0.001 A 
ATOM     10  C   UNL d   1     -44.448  11.337  23.000  0.00  0.00     0.008 A 
ATOM     11  S   UNL d   1     -45.290  12.552  22.769  0.00  0.00    -0.060 SA
ENDBRANCH   2   3
ENDBRANCH   1   2
BRANCH   1  12
ATOM     12  S   UNL d   1     -47.612  14.201  22.604  0.00  0.00    -0.076 SA
BRANCH  12  13
ATOM     13  C   UNL d   1     -48.427  14.270  22.506  0.00  0.00     0.137 A 
ATOM     14  N   UNL d   1     -48.867  13.843  22.000  0.00  0.00    -0.232 NA
ATOM     15  C   UNL d   1     -49.638  14.093  22.086  0.00  0.00     0.088 A 
ATOM     16  C   UNL d   1     -50.339  13.882  21.738  0.00  0.00     0.020 A 
ATOM     17  C   UNL d   1     -49.633  14.683  22.661  0.00  0.00     0.049 A 
ATOM     18  C   UNL d   1     -51.055  14.243  21.943  0.00  0.00     0.002 A 
ATOM     19  C   UNL d   1     -51.050  14.850  22.535  0.00  0.00     0.001 A 
ATOM     20  C   UNL d   1     -50.330  15.063  22.889  0.00  0.00     0.008 A 
ATOM     21  S   UNL d   1     -48.860  14.787  22.920  0.00  0.00    -0.060 SA
ENDBRANCH  12  13
ENDBRANCH   1  12
TORSDOF 4
ENDMDL
