MODEL 1
REMARK VINA RESULT:      -1.2      0.000      0.000
REMARK  5 active torsions:
REMARK  status: ('A' for Active; 'I' for Inactive)
REMARK       I    between atoms: N_2  and  C_1 
REMARK    1  A    between atoms: C_3  and  C_1 
REMARK    2  A    between atoms: C_5  and  N_2 
REMARK    3  A    between atoms: C_6  and  C_3 
REMARK    4  A    between atoms: C_7  and  C_3 
REMARK    5  A    between atoms: C_9  and  C_5 
ROOT
ATOM      1  C   UNL d   1      58.989  -0.567  29.432  0.00  0.00     0.058 C 
ENDROOT
BRANCH   1   2
ATOM      2  C   UNL d   1      58.707  -1.322  28.796  0.00  0.00     0.275 C 
ATOM      3  N   UNL d   1      58.662  -2.035  28.505  0.00  0.00    -0.231 NA
ATOM      4  O   UNL d   1      58.325  -0.728  28.455  0.00  0.00    -0.266 OA
BRANCH   3   5
ATOM      5  C   UNL d   1      59.052  -2.644  28.852  0.00  0.00     0.146 C 
ATOM      6  C   UNL d   1      59.704  -2.455  28.459  0.00  0.00     0.033 C 
ATOM      7  C   UNL d   1      58.383  -2.824  29.245  0.00  0.00     0.033 C 
BRANCH   5   8
ATOM      8  C   UNL d   1      59.428  -3.256  29.207  0.00  0.00     0.229 C 
ATOM      9  O   UNL d   1      60.029  -3.618  28.818  0.00  0.00    -0.286 OA
ENDBRANCH   5   8
ENDBRANCH   3   5
ENDBRANCH   1   2
BRANCH   1  10
ATOM     10  C   UNL d   1      58.454  -0.289  29.973  0.00  0.00     0.005 A 
ATOM     11  C   UNL d   1      58.381  -0.641  30.700  0.00  0.00     0.000 A 
ATOM     12  C   UNL d   1      57.833  -0.353  31.247  0.00  0.00     0.000 A 
ATOM     13  C   UNL d   1      57.358   0.294  31.059  0.00  0.00     0.000 A 
ATOM     14  C   UNL d   1      57.435   0.654  30.313  0.00  0.00     0.000 A 
ATOM     15  C   UNL d   1      57.979   0.367  29.769  0.00  0.00     0.000 A 
ENDBRANCH   1  10
BRANCH   1  16
ATOM     16  C   UNL d   1      59.686  -0.159  29.512  0.00  0.00     0.005 A 
ATOM     17  C   UNL d   1      60.089  -0.150  30.234  0.00  0.00     0.000 A 
ATOM     18  C   UNL d   1      60.805   0.268  30.317  0.00  0.00     0.000 A 
ATOM     19  C   UNL d   1      61.121   0.682  29.667  0.00  0.00     0.000 A 
ATOM     20  C   UNL d   1      60.712   0.672  28.935  0.00  0.00     0.000 A 
ATOM     21  C   UNL d   1      60.000   0.251  28.868  0.00  0.00     0.000 A 
ENDBRANCH   1  16
TORSDOF 5
ENDMDL
MODEL 2
REMARK VINA RESULT:       1.1      1.786      3.171
REMARK  5 active torsions:
REMARK  status: ('A' for Active; 'I' for Inactive)
REMARK       I    between atoms: N_2  and  C_1 
REMARK    1  A    between atoms: C_3  and  C_1 
REMARK    2  A    between atoms: C_5  and  N_2 
REMARK    3  A    between atoms: C_6  and  C_3 
REMARK    4  A    between atoms: C_7  and  C_3 
REMARK    5  A    between atoms: C_9  and  C_5 
ROOT
ATOM      1  C   UNL d   1      58.445  -0.015  30.472  0.00  0.00     0.058 C 
ENDROOT
BRANCH   1   2
ATOM      2  C   UNL d   1      57.545   0.287  30.864  0.00  0.00     0.275 C 
ATOM      3  N   UNL d   1      56.965   0.340  31.370  0.00  0.00    -0.231 NA
ATOM      4  O   UNL d   1      57.519   0.679  30.186  0.00  0.00    -0.266 OA
BRANCH   3   5
ATOM      5  C   UNL d   1      56.990  -0.060  32.065  0.00  0.00     0.146 C 
ATOM      6  C   UNL d   1      57.277   0.576  32.425  0.00  0.00     0.033 C 
ATOM      7  C   UNL d   1      56.698  -0.697  31.687  0.00  0.00     0.033 C 
BRANCH   5   8
ATOM      8  C   UNL d   1      57.008  -0.472  32.751  0.00  0.00     0.229 C 
ATOM      9  O   UNL d   1      56.428  -0.351  33.291  0.00  0.00    -0.286 OA
ENDBRANCH   5   8
ENDBRANCH   3   5
ENDBRANCH   1   2
BRANCH   1  10
ATOM     10  C   UNL d   1      58.450  -0.583  29.894  0.00  0.00     0.005 A 
ATOM     11  C   UNL d   1      58.546  -1.366  30.084  0.00  0.00     0.000 A 
ATOM     12  C   UNL d   1      58.551  -1.939  29.490  0.00  0.00     0.000 A 
ATOM     13  C   UNL d   1      58.458  -1.721  28.700  0.00  0.00     0.000 A 
ATOM     14  C   UNL d   1      58.360  -0.917  28.508  0.00  0.00     0.000 A 
ATOM     15  C   UNL d   1      58.355  -0.347  29.098  0.00  0.00     0.000 A 
ENDBRANCH   1  10
BRANCH   1  16
ATOM     16  C   UNL d   1      59.207   0.212  30.631  0.00  0.00     0.005 A 
ATOM     17  C   UNL d   1      59.762   0.285  30.021  0.00  0.00     0.000 A 
ATOM     18  C   UNL d   1      60.545   0.518  30.184  0.00  0.00     0.000 A 
ATOM     19  C   UNL d   1      60.775   0.680  30.968  0.00  0.00     0.000 A 
ATOM     20  C   UNL d   1      60.212   0.605  31.585  0.00  0.00     0.000 A 
ATOM     21  C   UNL d   1      59.435   0.372  31.408  0.00  0.00     0.000 A 
ENDBRANCH   1  16
TORSDOF 5
ENDMDL
