MODEL 1
REMARK VINA RESULT:      69.9      0.000      0.000
REMARK  4 active torsions:
REMARK  status: ('A' for Active; 'I' for Inactive)
REMARK    1  A    between atoms: C_4  and  C_1 
REMARK    2  A    between atoms: N_7  and  C_4 
REMARK    3  A    between atoms: C_10  and  C_4 
REMARK    4  A    between atoms: C_8  and  N_7 
ROOT
ATOM      1  C   UNL d   1     -51.619  25.892  34.260  0.00  0.00     0.085 C 
ENDROOT
BRANCH   1   2
ATOM      2  C   UNL d   1     -51.610  25.128  33.945  0.00  0.00     0.037 A 
ATOM      3  C   UNL d   1     -50.964  24.692  33.672  0.00  0.00     0.083 A 
ATOM      4  N   UNL d   1     -51.178  24.003  33.420  0.00  0.00    -0.245 NA
ATOM      5  C   UNL d   1     -50.186  24.968  33.674  0.00  0.00     0.021 C 
ATOM      6  C   UNL d   1     -52.011  23.925  33.508  0.00  0.00     0.081 A 
ATOM      7  C   UNL d   1     -52.282  24.631  33.838  0.00  0.00     0.021 A 
ATOM      8  C   UNL d   1     -52.544  23.308  33.331  0.00  0.00     0.019 A 
ATOM      9  C   UNL d   1     -53.087  24.725  33.992  0.00  0.00     0.002 A 
ATOM     10  C   UNL d   1     -53.621  24.125  33.823  0.00  0.00     0.000 A 
ATOM     11  C   UNL d   1     -53.350  23.419  33.493  0.00  0.00     0.002 A 
ENDBRANCH   1   2
BRANCH   1  12
ATOM     12  N   UNL d   1     -52.106  26.046  34.894  0.00  0.00    -0.227 NA
BRANCH  12  13
ATOM     13  C   UNL d   1     -51.802  26.204  35.628  0.00  0.00     0.162 A 
ATOM     14  N   UNL d   1     -51.130  26.662  35.717  0.00  0.00    -0.225 NA
ATOM     15  C   UNL d   1     -50.822  26.819  36.498  0.00  0.00     0.101 A 
ATOM     16  C   UNL d   1     -51.214  26.503  37.130  0.00  0.00     0.021 A 
ATOM     17  C   UNL d   1     -51.882  26.047  37.050  0.00  0.00     0.005 A 
ATOM     18  C   UNL d   1     -52.187  25.890  36.306  0.00  0.00     0.039 A 
ATOM     19  C   UNL d   1     -52.252  25.744  37.727  0.00  0.00     0.000 C 
ENDBRANCH  12  13
ENDBRANCH   1  12
BRANCH   1  20
ATOM     20  C   UNL d   1     -51.142  26.489  33.938  0.00  0.00     0.021 A 
ATOM     21  C   UNL d   1     -50.327  26.377  33.947  0.00  0.00     0.022 A 
ATOM     22  C   UNL d   1     -49.851  26.973  33.625  0.00  0.00     0.099 A 
ATOM     23  N   UNL d   1     -50.199  27.656  33.306  0.00  0.00    -0.242 NA
ATOM     24  C   UNL d   1     -51.010  27.742  33.308  0.00  0.00     0.099 A 
ATOM     25  C   UNL d   1     -51.490  27.171  33.618  0.00  0.00     0.022 A 
ENDBRANCH   1  20
TORSDOF 4
ENDMDL
