MODEL 1
REMARK VINA RESULT:      40.3      0.000      0.000
REMARK  2 active torsions:
REMARK  status: ('A' for Active; 'I' for Inactive)
REMARK    1  A    between atoms: N_7  and  C_1 
REMARK       I    between atoms: C_8  and  N_7 
REMARK    2  A    between atoms: C_10  and  C_8 
ROOT
ATOM      1  C   UNL d   1      45.241 -17.404  43.772  0.00  0.00     0.159 A 
ATOM      2  N   UNL d   1      45.862 -18.659  43.438  0.00  0.00    -0.257 N 
ATOM      3  C   UNL d   1      46.013 -18.373  42.673  0.00  0.00     0.150 A 
ATOM      4  C   UNL d   1      45.474 -18.165  43.980  0.00  0.00     0.285 A 
ATOM      5  N   UNL d   1      45.781 -17.603  42.448  0.00  0.00    -0.226 NA
ATOM      6  C   UNL d   1      45.395 -17.119  42.999  0.00  0.00     0.105 A 
ATOM      7  C   UNL d   1      46.394 -18.845  42.122  0.00  0.00     0.035 A 
ATOM      8  C   UNL d   1      46.089 -19.407  43.650  0.00  0.00     0.085 A 
ATOM      9  O   UNL d   1      45.323 -18.452  44.746  0.00  0.00    -0.265 OA
ATOM     10  C   UNL d   1      46.475 -19.892  43.100  0.00  0.00     0.019 A 
ATOM     11  C   UNL d   1      46.629 -19.623  42.345  0.00  0.00     0.004 A 
ATOM     12  C   UNL d   1      45.164 -16.365  42.793  0.00  0.00     0.022 C 
ATOM     13  C   UNL d   1      46.551 -18.581  41.365  0.00  0.00     0.003 C 
ENDROOT
BRANCH   1  14
ATOM     14  N   UNL d   1      44.855 -16.919  44.322  0.00  0.00    -0.202 NA
ATOM     15  C   UNL d   1      45.140 -16.153  44.460  0.00  0.00     0.279 C 
ATOM     16  O   UNL d   1      44.482 -16.307  44.922  0.00  0.00    -0.265 OA
BRANCH  15  17
ATOM     17  C   UNL d   1      45.517 -15.418  44.507  0.00  0.00     0.060 A 
ATOM     18  C   UNL d   1      45.144 -14.753  44.202  0.00  0.00     0.031 A 
ATOM     19  C   UNL d   1      45.522 -14.019  44.250  0.00  0.00     0.119 A 
ATOM     20  O   UNL d   1      45.294 -13.264  43.999  0.00  0.00    -0.300 OA
ATOM     21  C   UNL d   1      46.263 -13.953  44.598  0.00  0.00     0.119 A 
ATOM     22  C   UNL d   1      45.900 -12.728  44.194  0.00  0.00     0.304 A 
ATOM     23  O   UNL d   1      46.506 -13.171  44.571  0.00  0.00    -0.300 OA
ATOM     24  C   UNL d   1      46.637 -14.631  44.905  0.00  0.00     0.026 A 
ATOM     25  C   UNL d   1      46.263 -15.364  44.859  0.00  0.00     0.007 A 
ENDBRANCH  15  17
ENDBRANCH   1  14
TORSDOF 2
ENDMDL
