MODEL 1
REMARK VINA RESULT:      -9.2      0.000      0.000
REMARK  6 active torsions:
REMARK  status: ('A' for Active; 'I' for Inactive)
REMARK    1  A    between atoms: N_2  and  S_1 
REMARK    2  A    between atoms: C_7  and  S_1 
REMARK    3  A    between atoms: C_8  and  N_2 
REMARK    4  A    between atoms: N_3  and  C_9 
REMARK    5  A    between atoms: N_4  and  N_3 
REMARK    6  A    between atoms: C_10  and  N_4 
ROOT
ATOM      1  C   UNL d   1      52.007  33.249  52.904  0.00  0.00     0.094 A 
ATOM      2  C   UNL d   1      50.632  34.153  52.877  0.00  0.00     0.103 A 
ATOM      3  C   UNL d   1      51.324  32.980  53.289  0.00  0.00     0.021 A 
ATOM      4  C   UNL d   1      51.996  33.972  52.506  0.00  0.00     0.021 A 
ATOM      5  C   UNL d   1      51.307  34.433  52.488  0.00  0.00     0.022 A 
ATOM      6  C   UNL d   1      50.643  33.430  53.275  0.00  0.00     0.022 A 
ENDROOT
BRANCH   1   7
ATOM      7  N   UNL d   1      52.696  32.798  52.916  0.00  0.00    -0.158 NA
BRANCH   7   8
ATOM      8  S   UNL d   1      53.266  32.943  53.495  0.00  0.00     0.285 S 
ATOM      9  O   UNL d   1      53.578  33.544  53.024  0.00  0.00    -0.198 OA
ATOM     10  O   UNL d   1      52.953  32.342  53.965  0.00  0.00    -0.198 OA
BRANCH   8  11
ATOM     11  C   UNL d   1      53.842  33.101  54.064  0.00  0.00     0.105 A 
ATOM     12  C   UNL d   1      54.586  33.378  53.819  0.00  0.00     0.013 A 
ATOM     13  C   UNL d   1      55.168  33.538  54.382  0.00  0.00     0.001 A 
ATOM     14  C   UNL d   1      55.012  33.424  55.182  0.00  0.00     0.000 A 
ATOM     15  C   UNL d   1      54.267  33.148  55.425  0.00  0.00     0.001 A 
ATOM     16  C   UNL d   1      53.685  32.988  54.863  0.00  0.00     0.013 A 
ENDBRANCH   8  11
ENDBRANCH   7   8
ENDBRANCH   1   7
BRANCH   2  17
ATOM     17  N   UNL d   1      49.940  34.603  52.866  0.00  0.00    -0.148 NA
BRANCH  17  18
ATOM     18  N   UNL d   1      49.482  34.632  52.180  0.00  0.00    -0.148 NA
BRANCH  18  19
ATOM     19  C   UNL d   1      48.787  35.080  52.171  0.00  0.00     0.103 A 
ATOM     20  C   UNL d   1      48.590  35.557  52.807  0.00  0.00     0.021 A 
ATOM     21  C   UNL d   1      47.905  35.999  52.801  0.00  0.00     0.002 A 
ATOM     22  C   UNL d   1      47.404  35.967  52.146  0.00  0.00     0.000 A 
ATOM     23  C   UNL d   1      47.587  35.493  51.498  0.00  0.00     0.002 A 
ATOM     24  C   UNL d   1      48.285  35.048  51.516  0.00  0.00     0.021 A 
ENDBRANCH  18  19
ENDBRANCH  17  18
ENDBRANCH   2  17
TORSDOF 6
ENDMDL
MODEL 2
REMARK VINA RESULT:      -7.1      1.798      5.584
REMARK  6 active torsions:
REMARK  status: ('A' for Active; 'I' for Inactive)
REMARK    1  A    between atoms: N_2  and  S_1 
REMARK    2  A    between atoms: C_7  and  S_1 
REMARK    3  A    between atoms: C_8  and  N_2 
REMARK    4  A    between atoms: N_3  and  C_9 
REMARK    5  A    between atoms: N_4  and  N_3 
REMARK    6  A    between atoms: C_10  and  N_4 
ROOT
ATOM      1  C   UNL d   1      50.319  34.118  52.437  0.00  0.00     0.094 A 
ATOM      2  C   UNL d   1      51.810  34.120  53.132  0.00  0.00     0.103 A 
ATOM      3  C   UNL d   1      50.435  33.760  53.176  0.00  0.00     0.021 A 
ATOM      4  C   UNL d   1      50.954  34.476  52.051  0.00  0.00     0.021 A 
ATOM      5  C   UNL d   1      51.709  34.481  52.394  0.00  0.00     0.022 A 
ATOM      6  C   UNL d   1      51.176  33.762  53.519  0.00  0.00     0.022 A 
ENDROOT
BRANCH   1   7
ATOM      7  N   UNL d   1      49.573  34.119  52.087  0.00  0.00    -0.158 NA
BRANCH   7   8
ATOM      8  S   UNL d   1      49.051  34.738  52.246  0.00  0.00     0.285 S 
ATOM      9  O   UNL d   1      48.966  34.862  51.435  0.00  0.00    -0.198 OA
ATOM     10  O   UNL d   1      49.136  34.613  53.057  0.00  0.00    -0.198 OA
BRANCH   8  11
ATOM     11  C   UNL d   1      48.527  35.359  52.387  0.00  0.00     0.105 A 
ATOM     12  C   UNL d   1      48.013  35.600  51.781  0.00  0.00     0.013 A 
ATOM     13  C   UNL d   1      47.486  36.220  51.914  0.00  0.00     0.001 A 
ATOM     14  C   UNL d   1      47.469  36.599  52.645  0.00  0.00     0.000 A 
ATOM     15  C   UNL d   1      47.984  36.357  53.251  0.00  0.00     0.001 A 
ATOM     16  C   UNL d   1      48.511  35.737  53.118  0.00  0.00     0.013 A 
ENDBRANCH   8  11
ENDBRANCH   7   8
ENDBRANCH   1   7
BRANCH   2  17
ATOM     17  N   UNL d   1      52.557  34.118  53.485  0.00  0.00    -0.148 NA
BRANCH  17  18
ATOM     18  N   UNL d   1      52.853  33.420  53.813  0.00  0.00    -0.148 NA
BRANCH  18  19
ATOM     19  C   UNL d   1      53.611  33.412  54.143  0.00  0.00     0.103 A 
ATOM     20  C   UNL d   1      54.230  33.039  53.757  0.00  0.00     0.021 A 
ATOM     21  C   UNL d   1      54.978  33.030  54.080  0.00  0.00     0.002 A 
ATOM     22  C   UNL d   1      55.115  33.401  54.805  0.00  0.00     0.000 A 
ATOM     23  C   UNL d   1      54.503  33.780  55.206  0.00  0.00     0.002 A 
ATOM     24  C   UNL d   1      53.747  33.782  54.867  0.00  0.00     0.021 A 
ENDBRANCH  18  19
ENDBRANCH  17  18
ENDBRANCH   2  17
TORSDOF 6
ENDMDL
