MODEL 1
REMARK VINA RESULT:      18.6      0.000      0.000
REMARK  4 active torsions:
REMARK  status: ('A' for Active; 'I' for Inactive)
REMARK    1  A    between atoms: N_8  and  C_7 
REMARK    2  A    between atoms: C_9  and  N_8 
REMARK    3  A    between atoms: O_15  and  C_10 
REMARK    4  A    between atoms: C_16  and  O_15 
ROOT
ATOM      1  C   UNL d   1     -56.214 -99.418 -44.488  0.00  0.00     0.082 A 
ATOM      2  C   UNL d   1     -55.215-100.711 -44.305  0.00  0.00     0.100 A 
ATOM      3  C   UNL d   1     -55.403 -99.302 -44.414  0.00  0.00     0.021 A 
ATOM      4  C   UNL d   1     -56.530-100.175 -44.470  0.00  0.00     0.021 A 
ATOM      5  C   UNL d   1     -54.900 -99.950 -44.323  0.00  0.00     0.026 A 
ATOM      6  C   UNL d   1     -56.028-100.828 -44.378  0.00  0.00     0.026 A 
ENDROOT
BRANCH   1   7
ATOM      7  N   UNL d   1     -56.716 -98.765 -44.579  0.00  0.00    -0.245 NA
BRANCH   7   8
ATOM      8  C   UNL d   1     -57.544 -98.762 -44.484  0.00  0.00     0.093 A 
ATOM      9  C   UNL d   1     -58.266 -98.761 -44.892  0.00  0.00     0.118 A 
ATOM     10  S   UNL d   1     -58.864 -98.758 -44.338  0.00  0.00     0.213 S 
ATOM     11  C   UNL d   1     -58.526 -98.758 -43.585  0.00  0.00     0.100 A 
ATOM     12  O   UNL d   1     -59.475 -98.755 -43.770  0.00  0.00    -0.217 OA
ATOM     13  O   UNL d   1     -59.255 -98.758 -45.065  0.00  0.00    -0.217 OA
ATOM     14  C   UNL d   1     -57.708 -98.761 -43.677  0.00  0.00     0.032 A 
ENDBRANCH   7   8
ENDBRANCH   1   7
BRANCH   2  15
ATOM     15  O   UNL d   1     -54.713-101.364 -44.213  0.00  0.00    -0.305 OA
BRANCH  15  16
ATOM     16  C   UNL d   1     -54.713-101.962 -44.780  0.00  0.00     0.123 C 
ATOM     17  C   UNL d   1     -54.849-102.748 -44.549  0.00  0.00     0.029 C 
ENDBRANCH  15  16
ENDBRANCH   2  15
TORSDOF 4
ENDMDL
