MODEL 1
REMARK VINA RESULT:      -3.4      0.000      0.000
REMARK  4 active torsions:
REMARK  status: ('A' for Active; 'I' for Inactive)
REMARK    1  A    between atoms: C_17  and  C_4 
REMARK    2  A    between atoms: C_6  and  C_8 
REMARK       I    between atoms: C_8  and  N_16 
REMARK    3  A    between atoms: N_16  and  C_18 
REMARK    4  A    between atoms: C_18  and  C_17 
ROOT
ATOM      1  C   UNL d   1      33.236  20.074 -22.367  0.00  0.00     0.042 C 
ENDROOT
BRANCH   1   2
ATOM      2  C   UNL d   1      33.037  19.347 -22.711  0.00  0.00     0.103 A 
ATOM      3  N   UNL d   1      32.622  19.234 -23.418  0.00  0.00    -0.221 NA
ATOM      4  C   UNL d   1      32.549  18.415 -23.547  0.00  0.00     0.179 A 
ATOM      5  N   UNL d   1      32.920  18.024 -22.916  0.00  0.00    -0.282 N 
ATOM      6  S   UNL d   1      32.249  17.844 -24.059  0.00  0.00    -0.048 SA
ATOM      7  C   UNL d   1      33.220  18.604 -22.402  0.00  0.00     0.101 A 
ATOM      8  C   UNL d   1      32.847  17.215 -23.044  0.00  0.00     0.089 A 
ATOM      9  C   UNL d   1      32.434  17.101 -23.748  0.00  0.00     0.057 A 
ENDBRANCH   1   2
BRANCH   1  10
ATOM     10  C   UNL d   1      32.733  20.409 -21.802  0.00  0.00     0.104 C 
BRANCH  10  11
ATOM     11  N   UNL d   1      32.892  21.171 -21.501  0.00  0.00    -0.206 NA
ATOM     12  C   UNL d   1      32.353  21.534 -20.990  0.00  0.00     0.285 C 
ATOM     13  O   UNL d   1      31.657  21.142 -20.777  0.00  0.00    -0.265 OA
BRANCH  12  14
ATOM     14  C   UNL d   1      32.509  22.288 -20.693  0.00  0.00     0.087 A 
ATOM     15  S   UNL d   1      32.217  23.006 -20.998  0.00  0.00    -0.082 SA
ATOM     16  C   UNL d   1      32.514  23.617 -20.531  0.00  0.00     0.036 A 
ATOM     17  C   UNL d   1      32.988  23.271 -19.938  0.00  0.00     0.008 A 
ATOM     18  C   UNL d   1      32.977  22.464 -20.049  0.00  0.00     0.012 A 
ENDBRANCH  12  14
ENDBRANCH  10  11
ENDBRANCH   1  10
TORSDOF 4
ENDMDL
MODEL 2
REMARK VINA RESULT:      -3.0      1.188      4.899
REMARK  4 active torsions:
REMARK  status: ('A' for Active; 'I' for Inactive)
REMARK    1  A    between atoms: C_17  and  C_4 
REMARK    2  A    between atoms: C_6  and  C_8 
REMARK       I    between atoms: C_8  and  N_16 
REMARK    3  A    between atoms: N_16  and  C_18 
REMARK    4  A    between atoms: C_18  and  C_17 
ROOT
ATOM      1  C   UNL d   1      33.138  19.970 -21.733  0.00  0.00     0.042 C 
ENDROOT
BRANCH   1   2
ATOM      2  C   UNL d   1      32.958  20.764 -21.577  0.00  0.00     0.103 A 
ATOM      3  N   UNL d   1      33.231  21.423 -21.997  0.00  0.00    -0.221 NA
ATOM      4  C   UNL d   1      32.910  22.105 -21.646  0.00  0.00     0.179 A 
ATOM      5  N   UNL d   1      32.437  21.864 -21.009  0.00  0.00    -0.282 N 
ATOM      6  S   UNL d   1      32.881  22.927 -21.689  0.00  0.00    -0.048 SA
ATOM      7  C   UNL d   1      32.470  21.035 -20.970  0.00  0.00     0.101 A 
ATOM      8  C   UNL d   1      32.119  22.539 -20.662  0.00  0.00     0.089 A 
ATOM      9  C   UNL d   1      32.391  23.196 -21.079  0.00  0.00     0.057 A 
ENDBRANCH   1   2
BRANCH   1  10
ATOM     10  C   UNL d   1      32.897  19.631 -22.448  0.00  0.00     0.104 C 
BRANCH  10  11
ATOM     11  N   UNL d   1      32.872  18.801 -22.529  0.00  0.00    -0.206 NA
ATOM     12  C   UNL d   1      32.671  18.462 -23.256  0.00  0.00     0.285 C 
ATOM     13  O   UNL d   1      32.494  18.946 -23.903  0.00  0.00    -0.265 OA
BRANCH  12  14
ATOM     14  C   UNL d   1      32.646  17.641 -23.336  0.00  0.00     0.087 A 
ATOM     15  S   UNL d   1      32.005  17.197 -23.630  0.00  0.00    -0.082 SA
ATOM     16  C   UNL d   1      32.222  16.401 -23.611  0.00  0.00     0.036 A 
ATOM     17  C   UNL d   1      32.996  16.360 -23.305  0.00  0.00     0.008 A 
ATOM     18  C   UNL d   1      33.241  17.120 -23.142  0.00  0.00     0.012 A 
ENDBRANCH  12  14
ENDBRANCH  10  11
ENDBRANCH   1  10
TORSDOF 4
ENDMDL
MODEL 3
REMARK VINA RESULT:      -2.8      0.951      1.123
REMARK  4 active torsions:
REMARK  status: ('A' for Active; 'I' for Inactive)
REMARK    1  A    between atoms: C_17  and  C_4 
REMARK    2  A    between atoms: C_6  and  C_8 
REMARK       I    between atoms: C_8  and  N_16 
REMARK    3  A    between atoms: N_16  and  C_18 
REMARK    4  A    between atoms: C_18  and  C_17 
ROOT
ATOM      1  C   UNL d   1      33.116  19.303 -22.988  0.00  0.00     0.042 C 
ENDROOT
BRANCH   1   2
ATOM      2  C   UNL d   1      32.864  18.534 -23.170  0.00  0.00     0.103 A 
ATOM      3  N   UNL d   1      32.203  18.328 -23.624  0.00  0.00    -0.221 NA
ATOM      4  C   UNL d   1      32.164  17.497 -23.660  0.00  0.00     0.179 A 
ATOM      5  N   UNL d   1      32.803  17.194 -23.228  0.00  0.00    -0.282 N 
ATOM      6  S   UNL d   1      31.735  16.862 -23.961  0.00  0.00    -0.048 SA
ATOM      7  C   UNL d   1      33.233  17.838 -22.927  0.00  0.00     0.101 A 
ATOM      8  C   UNL d   1      32.765  16.373 -23.265  0.00  0.00     0.089 A 
ATOM      9  C   UNL d   1      32.108  16.165 -23.716  0.00  0.00     0.057 A 
ENDBRANCH   1   2
BRANCH   1  10
ATOM     10  C   UNL d   1      33.034  19.586 -22.216  0.00  0.00     0.104 C 
BRANCH  10  11
ATOM     11  N   UNL d   1      32.850  20.389 -22.083  0.00  0.00    -0.206 NA
ATOM     12  C   UNL d   1      32.936  20.713 -21.327  0.00  0.00     0.285 C 
ATOM     13  O   UNL d   1      33.204  20.241 -20.703  0.00  0.00    -0.265 OA
BRANCH  12  14
ATOM     14  C   UNL d   1      32.753  21.507 -21.195  0.00  0.00     0.087 A 
ATOM     15  S   UNL d   1      33.239  22.159 -21.380  0.00  0.00    -0.082 SA
ATOM     16  C   UNL d   1      32.838  22.843 -21.154  0.00  0.00     0.036 A 
ATOM     17  C   UNL d   1      32.106  22.609 -20.830  0.00  0.00     0.008 A 
ATOM     18  C   UNL d   1      32.068  21.796 -20.862  0.00  0.00     0.012 A 
ENDBRANCH  12  14
ENDBRANCH  10  11
ENDBRANCH   1  10
TORSDOF 4
ENDMDL
MODEL 4
REMARK VINA RESULT:      -1.7      1.973      5.273
REMARK  4 active torsions:
REMARK  status: ('A' for Active; 'I' for Inactive)
REMARK    1  A    between atoms: C_17  and  C_4 
REMARK    2  A    between atoms: C_6  and  C_8 
REMARK       I    between atoms: C_8  and  N_16 
REMARK    3  A    between atoms: N_16  and  C_18 
REMARK    4  A    between atoms: C_18  and  C_17 
ROOT
ATOM      1  C   UNL d   1      33.108  18.689 -23.508  0.00  0.00     0.042 C 
ENDROOT
BRANCH   1   2
ATOM      2  C   UNL d   1      33.139  19.277 -22.924  0.00  0.00     0.103 A 
ATOM      3  N   UNL d   1      33.182  19.156 -22.106  0.00  0.00    -0.221 NA
ATOM      4  C   UNL d   1      33.202  19.901 -21.736  0.00  0.00     0.179 A 
ATOM      5  N   UNL d   1      33.172  20.480 -22.328  0.00  0.00    -0.282 N 
ATOM      6  S   UNL d   1      33.241  20.283 -21.008  0.00  0.00    -0.048 SA
ATOM      7  C   UNL d   1      33.133  20.090 -23.061  0.00  0.00     0.101 A 
ATOM      8  C   UNL d   1      33.192  21.217 -21.962  0.00  0.00     0.089 A 
ATOM      9  C   UNL d   1      33.234  21.098 -21.148  0.00  0.00     0.057 A 
ENDBRANCH   1   2
BRANCH   1  10
ATOM     10  C   UNL d   1      32.833  17.934 -23.312  0.00  0.00     0.104 C 
BRANCH  10  11
ATOM     11  N   UNL d   1      32.239  17.574 -23.773  0.00  0.00    -0.206 NA
ATOM     12  C   UNL d   1      32.072  16.769 -23.677  0.00  0.00     0.285 C 
ATOM     13  O   UNL d   1      32.495  16.323 -23.124  0.00  0.00    -0.265 OA
BRANCH  12  14
ATOM     14  C   UNL d   1      31.484  16.412 -24.133  0.00  0.00     0.087 A 
ATOM     15  S   UNL d   1      31.606  15.860 -24.745  0.00  0.00    -0.082 SA
ATOM     16  C   UNL d   1      30.867  15.652 -25.047  0.00  0.00     0.036 A 
ATOM     17  C   UNL d   1      30.293  16.078 -24.617  0.00  0.00     0.008 A 
ATOM     18  C   UNL d   1      30.682  16.535 -24.066  0.00  0.00     0.012 A 
ENDBRANCH  12  14
ENDBRANCH  10  11
ENDBRANCH   1  10
TORSDOF 4
ENDMDL
MODEL 5
REMARK VINA RESULT:      -1.4      3.159      4.632
REMARK  4 active torsions:
REMARK  status: ('A' for Active; 'I' for Inactive)
REMARK    1  A    between atoms: C_17  and  C_4 
REMARK    2  A    between atoms: C_6  and  C_8 
REMARK       I    between atoms: C_8  and  N_16 
REMARK    3  A    between atoms: N_16  and  C_18 
REMARK    4  A    between atoms: C_18  and  C_17 
ROOT
ATOM      1  C   UNL d   1      30.285  17.568 -24.705  0.00  0.00     0.042 C 
ENDROOT
BRANCH   1   2
ATOM      2  C   UNL d   1      29.677  17.050 -24.481  0.00  0.00     0.103 A 
ATOM      3  N   UNL d   1      29.327  16.998 -23.733  0.00  0.00    -0.221 NA
ATOM      4  C   UNL d   1      28.744  16.405 -23.761  0.00  0.00     0.179 A 
ATOM      5  N   UNL d   1      28.737  16.092 -24.529  0.00  0.00    -0.282 N 
ATOM      6  S   UNL d   1      28.172  16.009 -23.320  0.00  0.00    -0.048 SA
ATOM      7  C   UNL d   1      29.315  16.494 -24.970  0.00  0.00     0.101 A 
ATOM      8  C   UNL d   1      28.161  15.506 -24.558  0.00  0.00     0.089 A 
ATOM      9  C   UNL d   1      27.811  15.453 -23.813  0.00  0.00     0.057 A 
ENDBRANCH   1   2
BRANCH   1  10
ATOM     10  C   UNL d   1      31.043  17.467 -24.389  0.00  0.00     0.104 C 
BRANCH  10  11
ATOM     11  N   UNL d   1      31.437  18.113 -24.038  0.00  0.00    -0.206 NA
ATOM     12  C   UNL d   1      32.239  18.052 -23.843  0.00  0.00     0.285 C 
ATOM     13  O   UNL d   1      32.648  17.349 -23.995  0.00  0.00    -0.265 OA
BRANCH  12  14
ATOM     14  C   UNL d   1      32.629  18.690 -23.496  0.00  0.00     0.087 A 
ATOM     15  S   UNL d   1      32.876  19.384 -23.886  0.00  0.00    -0.082 SA
ATOM     16  C   UNL d   1      33.241  19.869 -23.327  0.00  0.00     0.036 A 
ATOM     17  C   UNL d   1      33.216  19.471 -22.595  0.00  0.00     0.008 A 
ATOM     18  C   UNL d   1      32.842  18.757 -22.712  0.00  0.00     0.012 A 
ENDBRANCH  12  14
ENDBRANCH  10  11
ENDBRANCH   1  10
TORSDOF 4
ENDMDL
MODEL 6
REMARK VINA RESULT:      -1.1      2.840      5.746
REMARK  4 active torsions:
REMARK  status: ('A' for Active; 'I' for Inactive)
REMARK    1  A    between atoms: C_17  and  C_4 
REMARK    2  A    between atoms: C_6  and  C_8 
REMARK       I    between atoms: C_8  and  N_16 
REMARK    3  A    between atoms: N_16  and  C_18 
REMARK    4  A    between atoms: C_18  and  C_17 
ROOT
ATOM      1  C   UNL d   1      31.863  17.289 -24.312  0.00  0.00     0.042 C 
ENDROOT
BRANCH   1   2
ATOM      2  C   UNL d   1      32.201  17.927 -23.904  0.00  0.00     0.103 A 
ATOM      3  N   UNL d   1      32.405  18.663 -24.223  0.00  0.00    -0.221 NA
ATOM      4  C   UNL d   1      32.726  19.129 -23.613  0.00  0.00     0.179 A 
ATOM      5  N   UNL d   1      32.719  18.677 -22.918  0.00  0.00    -0.282 N 
ATOM      6  S   UNL d   1      33.047  19.866 -23.435  0.00  0.00    -0.048 SA
ATOM      7  C   UNL d   1      32.394  17.935 -23.102  0.00  0.00     0.101 A 
ATOM      8  C   UNL d   1      33.036  19.138 -22.315  0.00  0.00     0.089 A 
ATOM      9  C   UNL d   1      33.240  19.872 -22.631  0.00  0.00     0.057 A 
ENDBRANCH   1   2
BRANCH   1  10
ATOM     10  C   UNL d   1      31.408  16.736 -23.898  0.00  0.00     0.104 C 
BRANCH  10  11
ATOM     11  N   UNL d   1      30.643  16.539 -24.166  0.00  0.00    -0.206 NA
ATOM     12  C   UNL d   1      30.191  15.982 -23.756  0.00  0.00     0.285 C 
ATOM     13  O   UNL d   1      30.497  15.620 -23.078  0.00  0.00    -0.265 OA
BRANCH  12  14
ATOM     14  C   UNL d   1      29.434  15.787 -24.022  0.00  0.00     0.087 A 
ATOM     15  S   UNL d   1      28.749  15.731 -23.552  0.00  0.00    -0.082 SA
ATOM     16  C   UNL d   1      28.122  15.523 -24.046  0.00  0.00     0.036 A 
ATOM     17  C   UNL d   1      28.425  15.453 -24.819  0.00  0.00     0.008 A 
ATOM     18  C   UNL d   1      29.223  15.615 -24.790  0.00  0.00     0.012 A 
ENDBRANCH  12  14
ENDBRANCH  10  11
ENDBRANCH   1  10
TORSDOF 4
ENDMDL
MODEL 7
REMARK VINA RESULT:      -0.6      3.596      4.329
REMARK  4 active torsions:
REMARK  status: ('A' for Active; 'I' for Inactive)
REMARK    1  A    between atoms: C_17  and  C_4 
REMARK    2  A    between atoms: C_6  and  C_8 
REMARK       I    between atoms: C_8  and  N_16 
REMARK    3  A    between atoms: N_16  and  C_18 
REMARK    4  A    between atoms: C_18  and  C_17 
ROOT
ATOM      1  C   UNL d   1      33.128  22.843 -20.424  0.00  0.00     0.042 C 
ENDROOT
BRANCH   1   2
ATOM      2  C   UNL d   1      32.863  22.996 -21.194  0.00  0.00     0.103 A 
ATOM      3  N   UNL d   1      32.180  23.413 -21.406  0.00  0.00    -0.221 NA
ATOM      4  C   UNL d   1      32.135  23.430 -22.237  0.00  0.00     0.179 A 
ATOM      5  N   UNL d   1      32.793  23.023 -22.536  0.00  0.00    -0.282 N 
ATOM      6  S   UNL d   1      31.689  23.697 -22.876  0.00  0.00    -0.048 SA
ATOM      7  C   UNL d   1      33.240  22.757 -21.888  0.00  0.00     0.101 A 
ATOM      8  C   UNL d   1      32.748  23.041 -23.357  0.00  0.00     0.089 A 
ATOM      9  C   UNL d   1      32.069  23.455 -23.569  0.00  0.00     0.057 A 
ENDBRANCH   1   2
BRANCH   1  10
ATOM     10  C   UNL d   1      32.735  23.187 -19.782  0.00  0.00     0.104 C 
BRANCH  10  11
ATOM     11  N   UNL d   1      33.013  23.060 -19.006  0.00  0.00    -0.206 NA
ATOM     12  C   UNL d   1      32.528  23.235 -18.359  0.00  0.00     0.285 C 
ATOM     13  O   UNL d   1      31.768  23.537 -18.483  0.00  0.00    -0.265 OA
BRANCH  12  14
ATOM     14  C   UNL d   1      32.803  23.110 -17.592  0.00  0.00     0.087 A 
ATOM     15  S   UNL d   1      32.989  23.702 -17.035  0.00  0.00    -0.082 SA
ATOM     16  C   UNL d   1      33.241  23.327 -16.345  0.00  0.00     0.036 A 
ATOM     17  C   UNL d   1      33.209  22.505 -16.481  0.00  0.00     0.008 A 
ATOM     18  C   UNL d   1      32.942  22.388 -17.241  0.00  0.00     0.012 A 
ENDBRANCH  12  14
ENDBRANCH  10  11
ENDBRANCH   1  10
TORSDOF 4
ENDMDL
