MODEL 1
REMARK VINA RESULT:      69.5      0.000      0.000
REMARK  4 active torsions:
REMARK  status: ('A' for Active; 'I' for Inactive)
REMARK    1  A    between atoms: N_2  and  S_1 
REMARK    2  A    between atoms: C_4  and  S_1 
REMARK    3  A    between atoms: C_5  and  N_3 
REMARK    4  A    between atoms: C_12  and  C_13 
ROOT
ATOM      1  N   UNL d   1     -50.399  26.497  34.133  0.00  0.00    -0.226 N 
ATOM      2  N   UNL d   1     -51.400  25.228  33.803  0.00  0.00    -0.299 N 
ATOM      3  C   UNL d   1     -50.088  25.742  34.034  0.00  0.00     0.111 A 
ATOM      4  C   UNL d   1     -51.217  26.624  34.067  0.00  0.00     0.111 A 
ATOM      5  C   UNL d   1     -50.589  25.107  33.869  0.00  0.00     0.100 A 
ATOM      6  C   UNL d   1     -51.718  25.989  33.902  0.00  0.00     0.100 A 
ENDROOT
BRANCH   1   7
ATOM      7  S   UNL d   1     -49.897  27.135  34.299  0.00  0.00     0.271 S 
ATOM      8  O   UNL d   1     -49.797  27.267  33.490  0.00  0.00    -0.200 OA
ATOM      9  O   UNL d   1     -49.996  27.003  35.107  0.00  0.00    -0.200 OA
BRANCH   7  10
ATOM     10  C   UNL d   1     -49.398  27.767  34.463  0.00  0.00     0.104 A 
ATOM     11  C   UNL d   1     -48.861  27.718  35.085  0.00  0.00     0.013 A 
ATOM     12  C   UNL d   1     -48.361  28.353  35.250  0.00  0.00    -0.004 A 
ATOM     13  C   UNL d   1     -48.397  29.036  34.793  0.00  0.00    -0.023 A 
ATOM     14  C   UNL d   1     -48.933  29.084  34.173  0.00  0.00    -0.004 A 
ATOM     15  C   UNL d   1     -49.433  28.449  34.008  0.00  0.00     0.013 A 
BRANCH  13  16
ATOM     16  C   UNL d   1     -47.895  29.674  34.958  0.00  0.00     0.019 C 
ATOM     17  C   UNL d   1     -48.421  30.187  34.584  0.00  0.00     0.004 C 
ATOM     18  C   UNL d   1     -47.368  29.161  35.333  0.00  0.00     0.004 C 
ATOM     19  C   UNL d   1     -47.396  30.306  35.123  0.00  0.00     0.004 C 
ENDBRANCH  13  16
ENDBRANCH   7  10
ENDBRANCH   1   7
BRANCH   2  20
ATOM     20  C   UNL d   1     -51.906  24.587  33.636  0.00  0.00     0.092 A 
ATOM     21  C   UNL d   1     -51.590  23.823  33.534  0.00  0.00     0.156 A 
ATOM     22  F   UNL d   1     -50.829  23.711  33.594  0.00  0.00    -0.203 F 
ATOM     23  C   UNL d   1     -52.089  23.191  33.370  0.00  0.00     0.031 A 
ATOM     24  C   UNL d   1     -52.909  23.314  33.306  0.00  0.00     0.002 A 
ATOM     25  C   UNL d   1     -53.218  24.072  33.407  0.00  0.00     0.002 A 
ATOM     26  C   UNL d   1     -52.720  24.704  33.572  0.00  0.00     0.020 A 
ENDBRANCH   2  20
TORSDOF 4
ENDMDL
MODEL 2
REMARK VINA RESULT:      71.0      1.439      5.568
REMARK  4 active torsions:
REMARK  status: ('A' for Active; 'I' for Inactive)
REMARK    1  A    between atoms: N_2  and  S_1 
REMARK    2  A    between atoms: C_4  and  S_1 
REMARK    3  A    between atoms: C_5  and  N_3 
REMARK    4  A    between atoms: C_12  and  C_13 
ROOT
ATOM      1  N   UNL d   1     -49.812  27.441  34.401  0.00  0.00    -0.226 N 
ATOM      2  N   UNL d   1     -48.830  28.716  34.766  0.00  0.00    -0.299 N 
ATOM      3  C   UNL d   1     -49.956  28.180  34.070  0.00  0.00     0.111 A 
ATOM      4  C   UNL d   1     -49.173  27.333  34.920  0.00  0.00     0.111 A 
ATOM      5  C   UNL d   1     -49.465  28.818  34.252  0.00  0.00     0.100 A 
ATOM      6  C   UNL d   1     -48.682  27.971  35.102  0.00  0.00     0.100 A 
ENDROOT
BRANCH   1   7
ATOM      7  S   UNL d   1     -50.306  26.801  34.218  0.00  0.00     0.271 S 
ATOM      8  O   UNL d   1     -50.438  26.673  35.022  0.00  0.00    -0.200 OA
ATOM      9  O   UNL d   1     -50.173  26.929  33.414  0.00  0.00    -0.200 OA
BRANCH   7  10
ATOM     10  C   UNL d   1     -50.794  26.167  34.036  0.00  0.00     0.104 A 
ATOM     11  C   UNL d   1     -50.505  25.536  33.593  0.00  0.00     0.013 A 
ATOM     12  C   UNL d   1     -50.997  24.899  33.411  0.00  0.00    -0.004 A 
ATOM     13  C   UNL d   1     -51.777  24.892  33.671  0.00  0.00    -0.023 A 
ATOM     14  C   UNL d   1     -52.064  25.521  34.113  0.00  0.00    -0.004 A 
ATOM     15  C   UNL d   1     -51.573  26.158  34.295  0.00  0.00     0.013 A 
BRANCH  13  16
ATOM     16  C   UNL d   1     -52.270  24.252  33.488  0.00  0.00     0.019 C 
ATOM     17  C   UNL d   1     -52.886  24.775  33.321  0.00  0.00     0.004 C 
ATOM     18  C   UNL d   1     -51.654  23.729  33.656  0.00  0.00     0.004 C 
ATOM     19  C   UNL d   1     -52.759  23.618  33.307  0.00  0.00     0.004 C 
ENDBRANCH  13  16
ENDBRANCH   7  10
ENDBRANCH   1   7
BRANCH   2  20
ATOM     20  C   UNL d   1     -48.334  29.359  34.950  0.00  0.00     0.092 A 
ATOM     21  C   UNL d   1     -47.720  29.267  35.505  0.00  0.00     0.156 A 
ATOM     22  F   UNL d   1     -47.612  28.584  35.847  0.00  0.00    -0.203 F 
ATOM     23  C   UNL d   1     -47.231  29.901  35.687  0.00  0.00     0.031 A 
ATOM     24  C   UNL d   1     -47.349  30.637  35.316  0.00  0.00     0.002 A 
ATOM     25  C   UNL d   1     -47.958  30.725  34.767  0.00  0.00     0.002 A 
ATOM     26  C   UNL d   1     -48.447  30.091  34.586  0.00  0.00     0.020 A 
ENDBRANCH   2  20
TORSDOF 4
ENDMDL
MODEL 3
REMARK VINA RESULT:      71.4      0.905      1.502
REMARK  4 active torsions:
REMARK  status: ('A' for Active; 'I' for Inactive)
REMARK    1  A    between atoms: N_2  and  S_1 
REMARK    2  A    between atoms: C_4  and  S_1 
REMARK    3  A    between atoms: C_5  and  N_3 
REMARK    4  A    between atoms: C_12  and  C_13 
ROOT
ATOM      1  N   UNL d   1     -49.800  27.100  34.306  0.00  0.00    -0.226 N 
ATOM      2  N   UNL d   1     -50.749  25.811  33.908  0.00  0.00    -0.299 N 
ATOM      3  C   UNL d   1     -50.238  26.717  34.887  0.00  0.00     0.111 A 
ATOM      4  C   UNL d   1     -49.833  26.841  33.518  0.00  0.00     0.111 A 
ATOM      5  C   UNL d   1     -50.713  26.072  34.688  0.00  0.00     0.100 A 
ATOM      6  C   UNL d   1     -50.307  26.196  33.319  0.00  0.00     0.100 A 
ENDROOT
BRANCH   1   7
ATOM      7  S   UNL d   1     -49.323  27.748  34.506  0.00  0.00     0.271 S 
ATOM      8  O   UNL d   1     -49.512  27.642  35.302  0.00  0.00    -0.200 OA
ATOM      9  O   UNL d   1     -49.134  27.855  33.710  0.00  0.00    -0.200 OA
BRANCH   7  10
ATOM     10  C   UNL d   1     -48.851  28.390  34.704  0.00  0.00     0.104 A 
ATOM     11  C   UNL d   1     -48.982  29.123  34.354  0.00  0.00     0.013 A 
ATOM     12  C   UNL d   1     -48.507  29.768  34.553  0.00  0.00    -0.004 A 
ATOM     13  C   UNL d   1     -47.902  29.680  35.102  0.00  0.00    -0.023 A 
ATOM     14  C   UNL d   1     -47.771  28.949  35.451  0.00  0.00    -0.004 A 
ATOM     15  C   UNL d   1     -48.246  28.304  35.252  0.00  0.00     0.013 A 
BRANCH  13  16
ATOM     16  C   UNL d   1     -47.425  30.328  35.302  0.00  0.00     0.019 C 
ATOM     17  C   UNL d   1     -46.870  29.817  35.637  0.00  0.00     0.004 C 
ATOM     18  C   UNL d   1     -47.979  30.839  34.968  0.00  0.00     0.004 C 
ATOM     19  C   UNL d   1     -46.952  30.970  35.500  0.00  0.00     0.004 C 
ENDBRANCH  13  16
ENDBRANCH   7  10
ENDBRANCH   1   7
BRANCH   2  20
ATOM     20  C   UNL d   1     -51.228  25.160  33.707  0.00  0.00     0.092 A 
ATOM     21  C   UNL d   1     -52.049  25.260  33.612  0.00  0.00     0.156 A 
ATOM     22  F   UNL d   1     -52.364  25.958  33.711  0.00  0.00    -0.203 F 
ATOM     23  C   UNL d   1     -52.522  24.618  33.414  0.00  0.00     0.031 A 
ATOM     24  C   UNL d   1     -52.179  23.867  33.308  0.00  0.00     0.002 A 
ATOM     25  C   UNL d   1     -51.366  23.771  33.403  0.00  0.00     0.002 A 
ATOM     26  C   UNL d   1     -50.894  24.413  33.601  0.00  0.00     0.020 A 
ENDBRANCH   2  20
TORSDOF 4
ENDMDL
