MODEL 1
REMARK VINA RESULT:      52.6      0.000      0.000
REMARK  4 active torsions:
REMARK  status: ('A' for Active; 'I' for Inactive)
REMARK    1  A    between atoms: C_6  and  C_1 
REMARK    2  A    between atoms: C_7  and  N_2 
REMARK    3  A    between atoms: C_10  and  C_7 
REMARK    4  A    between atoms: C_11  and  C_10 
ROOT
ATOM      1  C   UNL d   1     -57.904 -98.950 -44.046  0.00  0.00     0.148 A 
ATOM      2  N   UNL d   1     -57.691 -98.857 -44.848  0.00  0.00    -0.289 N 
ATOM      3  N   UNL d   1     -57.194 -99.026 -43.601  0.00  0.00    -0.227 NA
ATOM      4  C   UNL d   1     -56.861 -98.876 -44.901  0.00  0.00     0.083 A 
ATOM      5  C   UNL d   1     -56.556 -98.979 -44.139  0.00  0.00     0.099 A 
ATOM      6  C   UNL d   1     -56.335 -98.812 -45.543  0.00  0.00     0.019 A 
ATOM      7  C   UNL d   1     -55.737 -99.020 -44.002  0.00  0.00     0.021 A 
ATOM      8  C   UNL d   1     -55.521 -98.852 -45.418  0.00  0.00     0.002 A 
ATOM      9  C   UNL d   1     -55.224 -98.955 -44.653  0.00  0.00     0.002 A 
ENDROOT
BRANCH   2  10
ATOM     10  C   UNL d   1     -58.220 -98.763 -45.483  0.00  0.00     0.082 C 
BRANCH  10  11
ATOM     11  C   UNL d   1     -58.111 -99.203 -46.172  0.00  0.00     0.019 C 
BRANCH  11  12
ATOM     12  C   UNL d   1     -58.595 -99.062 -46.819  0.00  0.00     0.002 A 
ATOM     13  C   UNL d   1     -59.400 -98.966 -46.715  0.00  0.00     0.000 A 
ATOM     14  C   UNL d   1     -59.882 -98.825 -47.362  0.00  0.00     0.000 A 
ATOM     15  C   UNL d   1     -59.561 -98.779 -48.113  0.00  0.00     0.000 A 
ATOM     16  C   UNL d   1     -58.748 -98.875 -48.222  0.00  0.00     0.000 A 
ATOM     17  C   UNL d   1     -58.270 -99.016 -47.568  0.00  0.00     0.000 A 
ENDBRANCH  11  12
ENDBRANCH  10  11
ENDBRANCH   2  10
BRANCH   1  18
ATOM     18  C   UNL d   1     -58.671 -98.965 -43.737  0.00  0.00     0.035 A 
ATOM     19  C   UNL d   1     -59.479 -98.816 -43.811  0.00  0.00     0.003 A 
ATOM     20  C   UNL d   1     -59.180 -99.148 -43.115  0.00  0.00     0.003 A 
ENDBRANCH   1  18
TORSDOF 4
ENDMDL
