MODEL 1
REMARK VINA RESULT:      -7.9      0.000      0.000
REMARK  8 active torsions:
REMARK  status: ('A' for Active; 'I' for Inactive)
REMARK    1  A    between atoms: C_8  and  N_1 
REMARK    2  A    between atoms: C_7  and  N_3 
REMARK    3  A    between atoms: C_11  and  C_7 
REMARK    4  A    between atoms: C_20  and  C_8 
REMARK    5  A    between atoms: C_9  and  C_13 
REMARK       I    between atoms: N_16  and  C_9 
REMARK    6  A    between atoms: C_24  and  N_16 
REMARK    7  A    between atoms: C_27  and  C_24 
REMARK    8  A    between atoms: C_25  and  C_27 
ROOT
ATOM      1  N   UNL d   1     -47.412  13.128  23.154  0.00  0.00    -0.226 N 
ATOM      2  C   UNL d   1     -47.886  13.668  22.748  0.00  0.00     0.342 A 
ATOM      3  N   UNL d   1     -48.630  13.441  22.477  0.00  0.00    -0.259 N 
ATOM      4  C   UNL d   1     -47.676  12.356  23.292  0.00  0.00     0.270 A 
ATOM      5  C   UNL d   1     -48.424  12.135  23.017  0.00  0.00     0.073 A 
ATOM      6  C   UNL d   1     -48.899  12.675  22.611  0.00  0.00     0.073 A 
ATOM      7  O   UNL d   1     -47.611  14.446  22.613  0.00  0.00    -0.245 OA
ATOM      8  O   UNL d   1     -47.206  11.822  23.694  0.00  0.00    -0.266 OA
ATOM      9  C   UNL d   1     -48.689  11.363  23.155  0.00  0.00     0.006 A 
ATOM     10  C   UNL d   1     -49.642  12.447  22.340  0.00  0.00     0.018 A 
ATOM     11  C   UNL d   1     -49.440  11.139  22.879  0.00  0.00     0.000 A 
ATOM     12  C   UNL d   1     -49.915  11.678  22.474  0.00  0.00     0.002 A 
ENDROOT
BRANCH   1  13
ATOM     13  C   UNL d   1     -46.654  13.358  23.431  0.00  0.00     0.087 C 
BRANCH  13  14
ATOM     14  C   UNL d   1     -46.000  13.282  22.947  0.00  0.00     0.018 A 
ATOM     15  C   UNL d   1     -45.715  13.934  22.533  0.00  0.00     0.002 A 
ATOM     16  C   UNL d   1     -45.048  13.856  22.040  0.00  0.00     0.005 A 
ATOM     17  C   UNL d   1     -44.673  13.127  21.966  0.00  0.00     0.058 A 
ATOM     18  C   UNL d   1     -44.958  12.468  22.382  0.00  0.00     0.005 A 
ATOM     19  C   UNL d   1     -45.625  12.546  22.875  0.00  0.00     0.002 A 
BRANCH  17  20
ATOM     20  C   UNL d   1     -44.012  13.050  21.477  0.00  0.00     0.279 C 
ATOM     21  O   UNL d   1     -44.011  12.493  20.871  0.00  0.00    -0.265 OA
ATOM     22  N   UNL d   1     -43.354  13.529  21.596  0.00  0.00    -0.206 NA
BRANCH  22  23
ATOM     23  C   UNL d   1     -42.694  13.452  21.107  0.00  0.00     0.102 C 
BRANCH  23  24
ATOM     24  C   UNL d   1     -41.953  13.698  21.372  0.00  0.00     0.021 C 
BRANCH  24  25
ATOM     25  C   UNL d   1     -41.477  14.175  20.889  0.00  0.00     0.002 A 
ATOM     26  C   UNL d   1     -40.970  13.822  20.335  0.00  0.00     0.000 A 
ATOM     27  C   UNL d   1     -40.491  14.302  19.849  0.00  0.00     0.000 A 
ATOM     28  C   UNL d   1     -40.524  15.127  19.923  0.00  0.00     0.000 A 
ATOM     29  C   UNL d   1     -41.028  15.474  20.475  0.00  0.00     0.000 A 
ATOM     30  C   UNL d   1     -41.507  14.994  20.960  0.00  0.00     0.000 A 
ENDBRANCH  24  25
ENDBRANCH  23  24
ENDBRANCH  22  23
ENDBRANCH  17  20
ENDBRANCH  13  14
ENDBRANCH   1  13
BRANCH   3  31
ATOM     31  C   UNL d   1     -49.104  13.980  22.072  0.00  0.00     0.084 C 
BRANCH  31  32
ATOM     32  C   UNL d   1     -49.563  14.522  22.490  0.00  0.00     0.018 A 
ATOM     33  C   UNL d   1     -50.231  14.861  22.135  0.00  0.00     0.001 A 
ATOM     34  C   UNL d   1     -50.445  14.657  21.348  0.00  0.00     0.000 C 
ATOM     35  C   UNL d   1     -50.691  15.402  22.552  0.00  0.00     0.000 A 
ATOM     36  C   UNL d   1     -50.485  15.605  23.323  0.00  0.00     0.000 A 
ATOM     37  C   UNL d   1     -49.817  15.266  23.678  0.00  0.00     0.000 A 
ATOM     38  C   UNL d   1     -49.357  14.724  23.261  0.00  0.00     0.002 A 
ENDBRANCH  31  32
ENDBRANCH   3  31
TORSDOF 8
ENDMDL
MODEL 2
REMARK VINA RESULT:      -7.1      0.900      2.079
REMARK  8 active torsions:
REMARK  status: ('A' for Active; 'I' for Inactive)
REMARK    1  A    between atoms: C_8  and  N_1 
REMARK    2  A    between atoms: C_7  and  N_3 
REMARK    3  A    between atoms: C_11  and  C_7 
REMARK    4  A    between atoms: C_20  and  C_8 
REMARK    5  A    between atoms: C_9  and  C_13 
REMARK       I    between atoms: N_16  and  C_9 
REMARK    6  A    between atoms: C_24  and  N_16 
REMARK    7  A    between atoms: C_27  and  C_24 
REMARK    8  A    between atoms: C_25  and  C_27 
ROOT
ATOM      1  N   UNL d   1     -46.819  13.232  22.877  0.00  0.00    -0.226 N 
ATOM      2  C   UNL d   1     -47.430  12.792  22.540  0.00  0.00     0.342 A 
ATOM      3  N   UNL d   1     -48.120  13.167  22.291  0.00  0.00    -0.259 N 
ATOM      4  C   UNL d   1     -46.892  14.052  22.968  0.00  0.00     0.270 A 
ATOM      5  C   UNL d   1     -47.587  14.422  22.716  0.00  0.00     0.073 A 
ATOM      6  C   UNL d   1     -48.198  13.982  22.379  0.00  0.00     0.073 A 
ATOM      7  O   UNL d   1     -47.348  11.964  22.452  0.00  0.00    -0.245 OA
ATOM      8  O   UNL d   1     -46.287  14.488  23.302  0.00  0.00    -0.266 OA
ATOM      9  C   UNL d   1     -47.660  15.242  22.807  0.00  0.00     0.006 A 
ATOM     10  C   UNL d   1     -48.888  14.357  22.130  0.00  0.00     0.018 A 
ATOM     11  C   UNL d   1     -48.358  15.615  22.554  0.00  0.00     0.000 A 
ATOM     12  C   UNL d   1     -48.969  15.175  22.217  0.00  0.00     0.002 A 
ENDROOT
BRANCH   1  13
ATOM     13  C   UNL d   1     -46.117  12.852  23.131  0.00  0.00     0.087 C 
BRANCH  13  14
ATOM     14  C   UNL d   1     -45.445  12.878  22.666  0.00  0.00     0.018 A 
ATOM     15  C   UNL d   1     -44.995  12.197  22.556  0.00  0.00     0.002 A 
ATOM     16  C   UNL d   1     -44.310  12.223  22.082  0.00  0.00     0.005 A 
ATOM     17  C   UNL d   1     -44.083  12.929  21.723  0.00  0.00     0.058 A 
ATOM     18  C   UNL d   1     -44.535  13.617  21.833  0.00  0.00     0.005 A 
ATOM     19  C   UNL d   1     -45.220  13.590  22.307  0.00  0.00     0.002 A 
BRANCH  17  20
ATOM     20  C   UNL d   1     -43.405  12.955  21.254  0.00  0.00     0.279 C 
ATOM     21  O   UNL d   1     -43.347  12.477  20.587  0.00  0.00    -0.265 OA
ATOM     22  N   UNL d   1     -42.785  13.459  21.452  0.00  0.00    -0.206 NA
BRANCH  22  23
ATOM     23  C   UNL d   1     -42.107  13.485  20.983  0.00  0.00     0.102 C 
BRANCH  23  24
ATOM     24  C   UNL d   1     -41.471  13.961  21.202  0.00  0.00     0.021 C 
BRANCH  24  25
ATOM     25  C   UNL d   1     -41.054  14.388  20.626  0.00  0.00     0.002 A 
ATOM     26  C   UNL d   1     -40.699  13.986  19.993  0.00  0.00     0.000 A 
ATOM     27  C   UNL d   1     -40.279  14.415  19.414  0.00  0.00     0.000 A 
ATOM     28  C   UNL d   1     -40.220  15.241  19.475  0.00  0.00     0.000 A 
ATOM     29  C   UNL d   1     -40.574  15.636  20.105  0.00  0.00     0.000 A 
ATOM     30  C   UNL d   1     -40.994  15.207  20.684  0.00  0.00     0.000 A 
ENDBRANCH  24  25
ENDBRANCH  23  24
ENDBRANCH  22  23
ENDBRANCH  17  20
ENDBRANCH  13  14
ENDBRANCH   1  13
BRANCH   3  31
ATOM     31  C   UNL d   1     -48.731  12.727  21.954  0.00  0.00     0.084 C 
BRANCH  31  32
ATOM     32  C   UNL d   1     -49.295  12.368  22.436  0.00  0.00     0.018 A 
ATOM     33  C   UNL d   1     -50.046  12.190  22.134  0.00  0.00     0.001 A 
ATOM     34  C   UNL d   1     -50.239  12.375  21.337  0.00  0.00     0.000 C 
ATOM     35  C   UNL d   1     -50.610  11.831  22.615  0.00  0.00     0.000 A 
ATOM     36  C   UNL d   1     -50.425  11.648  23.396  0.00  0.00     0.000 A 
ATOM     37  C   UNL d   1     -49.673  11.825  23.698  0.00  0.00     0.000 A 
ATOM     38  C   UNL d   1     -49.109  12.185  23.217  0.00  0.00     0.002 A 
ENDBRANCH  31  32
ENDBRANCH   3  31
TORSDOF 8
ENDMDL
MODEL 3
REMARK VINA RESULT:      -5.4      1.678      7.774
REMARK  8 active torsions:
REMARK  status: ('A' for Active; 'I' for Inactive)
REMARK    1  A    between atoms: C_8  and  N_1 
REMARK    2  A    between atoms: C_7  and  N_3 
REMARK    3  A    between atoms: C_11  and  C_7 
REMARK    4  A    between atoms: C_20  and  C_8 
REMARK    5  A    between atoms: C_9  and  C_13 
REMARK       I    between atoms: N_16  and  C_9 
REMARK    6  A    between atoms: C_24  and  N_16 
REMARK    7  A    between atoms: C_27  and  C_24 
REMARK    8  A    between atoms: C_25  and  C_27 
ROOT
ATOM      1  N   UNL d   1     -41.224  13.632  20.693  0.00  0.00    -0.226 N 
ATOM      2  C   UNL d   1     -41.220  14.114  20.024  0.00  0.00     0.342 A 
ATOM      3  N   UNL d   1     -40.774  14.806  20.017  0.00  0.00    -0.259 N 
ATOM      4  C   UNL d   1     -40.782  13.837  21.362  0.00  0.00     0.270 A 
ATOM      5  C   UNL d   1     -40.336  14.534  21.348  0.00  0.00     0.073 A 
ATOM      6  C   UNL d   1     -40.333  15.016  20.679  0.00  0.00     0.073 A 
ATOM      7  O   UNL d   1     -41.670  13.899  19.352  0.00  0.00    -0.245 OA
ATOM      8  O   UNL d   1     -40.785  13.359  22.025  0.00  0.00    -0.266 OA
ATOM      9  C   UNL d   1     -39.894  14.739  22.017  0.00  0.00     0.006 A 
ATOM     10  C   UNL d   1     -39.887  15.708  20.672  0.00  0.00     0.018 A 
ATOM     11  C   UNL d   1     -39.445  15.439  22.005  0.00  0.00     0.000 A 
ATOM     12  C   UNL d   1     -39.442  15.922  21.336  0.00  0.00     0.002 A 
ENDROOT
BRANCH   1  13
ATOM     13  C   UNL d   1     -41.677  12.927  20.702  0.00  0.00     0.087 C 
BRANCH  13  14
ATOM     14  C   UNL d   1     -42.402  12.909  21.078  0.00  0.00     0.018 A 
ATOM     15  C   UNL d   1     -43.062  13.242  20.715  0.00  0.00     0.002 A 
ATOM     16  C   UNL d   1     -43.802  13.225  21.099  0.00  0.00     0.005 A 
ATOM     17  C   UNL d   1     -43.873  12.875  21.841  0.00  0.00     0.058 A 
ATOM     18  C   UNL d   1     -43.209  12.539  22.209  0.00  0.00     0.005 A 
ATOM     19  C   UNL d   1     -42.470  12.556  21.825  0.00  0.00     0.002 A 
BRANCH  17  20
ATOM     20  C   UNL d   1     -44.606  12.857  22.221  0.00  0.00     0.279 C 
ATOM     21  O   UNL d   1     -44.820  12.203  22.672  0.00  0.00    -0.265 OA
ATOM     22  N   UNL d   1     -45.122  13.494  22.150  0.00  0.00    -0.206 NA
BRANCH  22  23
ATOM     23  C   UNL d   1     -45.854  13.477  22.530  0.00  0.00     0.102 C 
BRANCH  23  24
ATOM     24  C   UNL d   1     -46.258  14.179  22.680  0.00  0.00     0.021 C 
BRANCH  24  25
ATOM     25  C   UNL d   1     -47.086  14.179  22.733  0.00  0.00     0.002 A 
ATOM     26  C   UNL d   1     -47.515  14.837  22.467  0.00  0.00     0.000 A 
ATOM     27  C   UNL d   1     -48.348  14.836  22.520  0.00  0.00     0.000 A 
ATOM     28  C   UNL d   1     -48.740  14.179  22.838  0.00  0.00     0.000 A 
ATOM     29  C   UNL d   1     -48.310  13.527  23.101  0.00  0.00     0.000 A 
ATOM     30  C   UNL d   1     -47.478  13.527  23.048  0.00  0.00     0.000 A 
ENDBRANCH  24  25
ENDBRANCH  23  24
ENDBRANCH  22  23
ENDBRANCH  17  20
ENDBRANCH  13  14
ENDBRANCH   1  13
BRANCH   3  31
ATOM     31  C   UNL d   1     -40.771  15.289  19.348  0.00  0.00     0.084 C 
BRANCH  31  32
ATOM     32  C   UNL d   1     -40.418  15.025  18.651  0.00  0.00     0.018 A 
ATOM     33  C   UNL d   1     -40.657  15.337  17.921  0.00  0.00     0.001 A 
ATOM     34  C   UNL d   1     -41.260  15.922  17.885  0.00  0.00     0.000 C 
ATOM     35  C   UNL d   1     -40.305  15.074  17.225  0.00  0.00     0.000 A 
ATOM     36  C   UNL d   1     -39.714  14.501  17.256  0.00  0.00     0.000 A 
ATOM     37  C   UNL d   1     -39.475  14.190  17.986  0.00  0.00     0.000 A 
ATOM     38  C   UNL d   1     -39.828  14.453  18.682  0.00  0.00     0.002 A 
ENDBRANCH  31  32
ENDBRANCH   3  31
TORSDOF 8
ENDMDL
