MODEL 1
REMARK VINA RESULT:      -7.2      0.000      0.000
REMARK  5 active torsions:
REMARK  status: ('A' for Active; 'I' for Inactive)
REMARK    1  A    between atoms: C_2  and  C_1 
REMARK    2  A    between atoms: C_6  and  C_2 
REMARK    3  A    between atoms: C_3  and  O_5 
REMARK    4  A    between atoms: C_11  and  C_3 
REMARK    5  A    between atoms: O_5  and  C_6 
ROOT
ATOM      1  O   UNL d   1      52.353  31.967  53.334  0.00  0.00    -0.268 OA
ENDROOT
BRANCH   1   2
ATOM      2  C   UNL d   1      52.779  31.379  52.932  0.00  0.00     0.300 C 
ATOM      3  O   UNL d   1      53.049  31.529  52.180  0.00  0.00    -0.259 OA
BRANCH   2   4
ATOM      4  C   UNL d   1      52.927  30.655  53.286  0.00  0.00     0.064 A 
ATOM      5  C   UNL d   1      53.603  30.541  53.732  0.00  0.00     0.005 A 
ATOM      6  C   UNL d   1      53.747  29.819  54.083  0.00  0.00     0.000 A 
ATOM      7  C   UNL d   1      53.219  29.202  53.993  0.00  0.00     0.000 A 
ATOM      8  C   UNL d   1      52.537  29.312  53.545  0.00  0.00     0.000 A 
ATOM      9  C   UNL d   1      52.386  30.038  53.188  0.00  0.00     0.005 A 
ENDBRANCH   2   4
ENDBRANCH   1   2
BRANCH   1  10
ATOM     10  C   UNL d   1      52.510  32.773  53.163  0.00  0.00     0.168 C 
BRANCH  10  11
ATOM     11  C   UNL d   1      52.069  33.373  53.503  0.00  0.00     0.226 C 
ATOM     12  O   UNL d   1      51.254  33.309  53.615  0.00  0.00    -0.284 OA
BRANCH  11  13
ATOM     13  C   UNL d   1      52.489  34.088  53.744  0.00  0.00     0.070 A 
ATOM     14  S   UNL d   1      52.854  34.231  54.507  0.00  0.00    -0.083 SA
ATOM     15  C   UNL d   1      53.210  35.020  54.496  0.00  0.00     0.035 A 
ATOM     16  C   UNL d   1      53.063  35.369  53.719  0.00  0.00     0.008 A 
ATOM     17  C   UNL d   1      52.618  34.796  53.251  0.00  0.00     0.010 A 
ENDBRANCH  11  13
ENDBRANCH  10  11
ENDBRANCH   1  10
TORSDOF 5
ENDMDL
MODEL 2
REMARK VINA RESULT:      -7.1      1.431      4.249
REMARK  5 active torsions:
REMARK  status: ('A' for Active; 'I' for Inactive)
REMARK    1  A    between atoms: C_2  and  C_1 
REMARK    2  A    between atoms: C_6  and  C_2 
REMARK    3  A    between atoms: C_3  and  O_5 
REMARK    4  A    between atoms: C_11  and  C_3 
REMARK    5  A    between atoms: O_5  and  C_6 
ROOT
ATOM      1  O   UNL d   1      53.290  32.660  53.352  0.00  0.00    -0.268 OA
ENDROOT
BRANCH   1   2
ATOM      2  C   UNL d   1      53.784  33.234  53.692  0.00  0.00     0.300 C 
ATOM      3  O   UNL d   1      54.579  33.079  53.763  0.00  0.00    -0.259 OA
BRANCH   2   4
ATOM      4  C   UNL d   1      53.479  33.947  53.953  0.00  0.00     0.064 A 
ATOM      5  C   UNL d   1      53.077  34.440  53.439  0.00  0.00     0.005 A 
ATOM      6  C   UNL d   1      52.773  35.151  53.702  0.00  0.00     0.000 A 
ATOM      7  C   UNL d   1      52.867  35.377  54.482  0.00  0.00     0.000 A 
ATOM      8  C   UNL d   1      53.271  34.884  55.004  0.00  0.00     0.000 A 
ATOM      9  C   UNL d   1      53.579  34.166  54.743  0.00  0.00     0.005 A 
ENDBRANCH   2   4
ENDBRANCH   1   2
BRANCH   1  10
ATOM     10  C   UNL d   1      53.509  31.853  53.401  0.00  0.00     0.168 C 
BRANCH  10  11
ATOM     11  C   UNL d   1      53.086  31.273  53.005  0.00  0.00     0.226 C 
ATOM     12  O   UNL d   1      52.683  31.427  52.302  0.00  0.00    -0.284 OA
BRANCH  11  13
ATOM     13  C   UNL d   1      53.074  30.483  53.354  0.00  0.00     0.070 A 
ATOM     14  S   UNL d   1      52.440  29.908  53.291  0.00  0.00    -0.083 SA
ATOM     15  C   UNL d   1      52.671  29.197  53.727  0.00  0.00     0.035 A 
ATOM     16  C   UNL d   1      53.456  29.333  54.062  0.00  0.00     0.008 A 
ATOM     17  C   UNL d   1      53.708  30.126  53.834  0.00  0.00     0.010 A 
ENDBRANCH  11  13
ENDBRANCH  10  11
ENDBRANCH   1  10
TORSDOF 5
ENDMDL
MODEL 3
REMARK VINA RESULT:      -6.9      2.080      3.334
REMARK  5 active torsions:
REMARK  status: ('A' for Active; 'I' for Inactive)
REMARK    1  A    between atoms: C_2  and  C_1 
REMARK    2  A    between atoms: C_6  and  C_2 
REMARK    3  A    between atoms: C_3  and  O_5 
REMARK    4  A    between atoms: C_11  and  C_3 
REMARK    5  A    between atoms: O_5  and  C_6 
ROOT
ATOM      1  O   UNL d   1      52.635  32.682  53.672  0.00  0.00    -0.268 OA
ENDROOT
BRANCH   1   2
ATOM      2  C   UNL d   1      52.269  32.766  52.932  0.00  0.00     0.300 C 
ATOM      3  O   UNL d   1      52.525  32.310  52.309  0.00  0.00    -0.259 OA
BRANCH   2   4
ATOM      4  C   UNL d   1      51.658  33.302  52.826  0.00  0.00     0.064 A 
ATOM      5  C   UNL d   1      50.976  33.247  53.273  0.00  0.00     0.005 A 
ATOM      6  C   UNL d   1      50.369  33.781  53.166  0.00  0.00     0.000 A 
ATOM      7  C   UNL d   1      50.436  34.377  52.611  0.00  0.00     0.000 A 
ATOM      8  C   UNL d   1      51.121  34.437  52.158  0.00  0.00     0.000 A 
ATOM      9  C   UNL d   1      51.737  33.900  52.262  0.00  0.00     0.005 A 
ENDBRANCH   2   4
ENDBRANCH   1   2
BRANCH   1  10
ATOM     10  C   UNL d   1      53.469  32.609  53.708  0.00  0.00     0.168 C 
BRANCH  10  11
ATOM     11  C   UNL d   1      53.852  32.465  54.418  0.00  0.00     0.226 C 
ATOM     12  O   UNL d   1      53.669  31.814  54.891  0.00  0.00    -0.284 OA
BRANCH  11  13
ATOM     13  C   UNL d   1      54.465  33.025  54.659  0.00  0.00     0.070 A 
ATOM     14  S   UNL d   1      54.518  33.425  55.417  0.00  0.00    -0.083 SA
ATOM     15  C   UNL d   1      55.220  33.931  55.409  0.00  0.00     0.035 A 
ATOM     16  C   UNL d   1      55.605  33.842  54.640  0.00  0.00     0.008 A 
ATOM     17  C   UNL d   1      55.141  33.283  54.174  0.00  0.00     0.010 A 
ENDBRANCH  11  13
ENDBRANCH  10  11
ENDBRANCH   1  10
TORSDOF 5
ENDMDL
MODEL 4
REMARK VINA RESULT:      -6.9      2.099      3.063
REMARK  5 active torsions:
REMARK  status: ('A' for Active; 'I' for Inactive)
REMARK    1  A    between atoms: C_2  and  C_1 
REMARK    2  A    between atoms: C_6  and  C_2 
REMARK    3  A    between atoms: C_3  and  O_5 
REMARK    4  A    between atoms: C_11  and  C_3 
REMARK    5  A    between atoms: O_5  and  C_6 
ROOT
ATOM      1  O   UNL d   1      53.438  32.599  53.521  0.00  0.00    -0.268 OA
ENDROOT
BRANCH   1   2
ATOM      2  C   UNL d   1      53.831  32.399  54.224  0.00  0.00     0.300 C 
ATOM      3  O   UNL d   1      53.672  31.684  54.577  0.00  0.00    -0.259 OA
BRANCH   2   4
ATOM      4  C   UNL d   1      54.372  32.913  54.562  0.00  0.00     0.064 A 
ATOM      5  C   UNL d   1      54.302  33.134  55.346  0.00  0.00     0.005 A 
ATOM      6  C   UNL d   1      54.842  33.646  55.680  0.00  0.00     0.000 A 
ATOM      7  C   UNL d   1      55.459  33.944  55.234  0.00  0.00     0.000 A 
ATOM      8  C   UNL d   1      55.534  33.725  54.443  0.00  0.00     0.000 A 
ATOM      9  C   UNL d   1      54.991  33.209  54.102  0.00  0.00     0.005 A 
ENDBRANCH   2   4
ENDBRANCH   1   2
BRANCH   1  10
ATOM     10  C   UNL d   1      52.600  32.612  53.511  0.00  0.00     0.168 C 
BRANCH  10  11
ATOM     11  C   UNL d   1      52.185  32.711  52.812  0.00  0.00     0.226 C 
ATOM     12  O   UNL d   1      52.335  32.252  52.144  0.00  0.00    -0.284 OA
BRANCH  11  13
ATOM     13  C   UNL d   1      51.574  33.323  52.797  0.00  0.00     0.070 A 
ATOM     14  S   UNL d   1      50.823  33.302  53.211  0.00  0.00    -0.083 SA
ATOM     15  C   UNL d   1      50.393  34.032  53.032  0.00  0.00     0.035 A 
ATOM     16  C   UNL d   1      50.883  34.508  52.502  0.00  0.00     0.008 A 
ATOM     17  C   UNL d   1      51.613  34.073  52.355  0.00  0.00     0.010 A 
ENDBRANCH  11  13
ENDBRANCH  10  11
ENDBRANCH   1  10
TORSDOF 5
ENDMDL
