MODEL 1
REMARK VINA RESULT:       7.6      0.000      0.000
REMARK  3 active torsions:
REMARK  status: ('A' for Active; 'I' for Inactive)
REMARK    1  A    between atoms: C_9  and  N_1 
REMARK       I    between atoms: C_8  and  N_2 
REMARK    2  A    between atoms: C_3  and  C_9 
REMARK    3  A    between atoms: C_13  and  C_8 
ROOT
ATOM      1  N   UNL d   1     -42.580-122.649 -51.653  0.00  0.00    -0.193 N 
ATOM      2  C   UNL d   1     -42.529-123.378 -50.533  0.00  0.00     0.055 A 
ATOM      3  N   UNL d   1     -41.805-122.960 -51.576  0.00  0.00    -0.163 NA
ATOM      4  C   UNL d   1     -43.012-122.911 -51.010  0.00  0.00     0.089 A 
ATOM      5  C   UNL d   1     -42.841-122.170 -52.267  0.00  0.00     0.303 C 
ATOM      6  C   UNL d   1     -41.784-123.409 -50.881  0.00  0.00     0.104 A 
ATOM      7  O   UNL d   1     -43.631-121.905 -52.262  0.00  0.00    -0.263 OA
ATOM      8  C   UNL d   1     -43.807-122.731 -50.869  0.00  0.00     0.021 C 
ATOM      9  C   UNL d   1     -41.123-123.817 -50.593  0.00  0.00     0.023 C 
ENDROOT
BRANCH   2  10
ATOM     10  C   UNL d   1     -42.758-123.751 -49.824  0.00  0.00     0.089 C 
BRANCH  10  11
ATOM     11  N   UNL d   1     -42.557-123.418 -49.095  0.00  0.00    -0.240 N 
ATOM     12  C   UNL d   1     -43.062-123.002 -48.603  0.00  0.00     0.267 A 
ATOM     13  C   UNL d   1     -42.625-122.773 -47.939  0.00  0.00     0.061 A 
ATOM     14  O   UNL d   1     -43.859-122.842 -48.746  0.00  0.00    -0.267 OA
ATOM     15  C   UNL d   1     -42.841-122.347 -47.268  0.00  0.00     0.005 A 
ATOM     16  C   UNL d   1     -41.859-123.046 -48.021  0.00  0.00     0.061 A 
ATOM     17  C   UNL d   1     -42.285-122.195 -46.680  0.00  0.00     0.000 A 
ATOM     18  C   UNL d   1     -41.511-122.469 -46.762  0.00  0.00     0.000 A 
ATOM     19  C   UNL d   1     -41.296-122.896 -47.433  0.00  0.00     0.005 A 
ATOM     20  C   UNL d   1     -41.807-123.449 -48.741  0.00  0.00     0.267 A 
ATOM     21  O   UNL d   1     -41.130-123.816 -49.047  0.00  0.00    -0.267 OA
ENDBRANCH  10  11
ENDBRANCH   2  10
BRANCH   5  22
ATOM     22  C   UNL d   1     -42.326-121.959 -52.874  0.00  0.00     0.158 A 
ATOM     23  O   UNL d   1     -42.274-122.325 -53.612  0.00  0.00    -0.300 OA
ATOM     24  C   UNL d   1     -41.688-121.937 -54.043  0.00  0.00     0.123 A 
ATOM     25  C   UNL d   1     -41.381-121.339 -53.581  0.00  0.00     0.029 A 
ATOM     26  C   UNL d   1     -41.776-121.350 -52.852  0.00  0.00     0.032 A 
ENDBRANCH   5  22
TORSDOF 3
ENDMDL
