MODEL 1
REMARK VINA RESULT:      42.5      0.000      0.000
REMARK  5 active torsions:
REMARK  status: ('A' for Active; 'I' for Inactive)
REMARK    1  A    between atoms: C_2  and  C_1 
REMARK    2  A    between atoms: C_3  and  C_1 
REMARK    3  A    between atoms: C_4  and  C_2 
REMARK    4  A    between atoms: C_8  and  C_3 
REMARK    5  A    between atoms: O_18  and  C_10 
ROOT
ATOM      1  C   UNL d   1     -50.335  27.084  33.692  0.00  0.00     0.196 C 
ATOM      2  O   UNL d   1     -50.711  27.717  33.316  0.00  0.00    -0.287 OA
ENDROOT
BRANCH   1   3
ATOM      3  C   UNL d   1     -49.666  27.218  34.157  0.00  0.00     0.042 C 
BRANCH   3   4
ATOM      4  C   UNL d   1     -49.007  27.714  34.098  0.00  0.00     0.003 C 
BRANCH   4   5
ATOM      5  C   UNL d   1     -48.650  28.266  34.598  0.00  0.00     0.000 A 
ATOM      6  C   UNL d   1     -48.774  29.073  34.467  0.00  0.00     0.003 A 
ATOM      7  C   UNL d   1     -48.417  29.628  34.966  0.00  0.00     0.042 A 
ATOM      8  C   UNL d   1     -47.942  29.370  35.589  0.00  0.00     0.196 A 
ATOM      9  C   UNL d   1     -47.823  28.561  35.712  0.00  0.00     0.042 A 
ATOM     10  O   UNL d   1     -47.585  29.921  36.088  0.00  0.00    -0.287 OA
ATOM     11  C   UNL d   1     -48.175  28.012  35.220  0.00  0.00     0.003 A 
ENDBRANCH   4   5
ENDBRANCH   3   4
ENDBRANCH   1   3
BRANCH   1  12
ATOM     12  C   UNL d   1     -50.640  26.320  33.593  0.00  0.00     0.039 A 
ATOM     13  C   UNL d   1     -50.147  25.686  33.401  0.00  0.00     0.005 A 
ATOM     14  C   UNL d   1     -50.465  24.932  33.306  0.00  0.00     0.024 A 
ATOM     15  C   UNL d   1     -51.278  24.810  33.401  0.00  0.00     0.094 A 
ATOM     16  C   UNL d   1     -51.772  25.454  33.595  0.00  0.00     0.024 A 
ATOM     17  C   UNL d   1     -51.453  26.205  33.690  0.00  0.00     0.005 A 
BRANCH  15  18
ATOM     18  O   UNL d   1     -51.596  24.055  33.306  0.00  0.00    -0.328 OA
ATOM     19  C   UNL d   1     -52.241  23.819  33.763  0.00  0.00     0.181 C 
ENDBRANCH  15  18
ENDBRANCH   1  12
TORSDOF 5
ENDMDL
MODEL 2
REMARK VINA RESULT:      44.9      0.868      1.393
REMARK  5 active torsions:
REMARK  status: ('A' for Active; 'I' for Inactive)
REMARK    1  A    between atoms: C_2  and  C_1 
REMARK    2  A    between atoms: C_3  and  C_1 
REMARK    3  A    between atoms: C_4  and  C_2 
REMARK    4  A    between atoms: C_8  and  C_3 
REMARK    5  A    between atoms: O_18  and  C_10 
ROOT
ATOM      1  C   UNL d   1     -49.372  27.349  33.788  0.00  0.00     0.196 C 
ATOM      2  O   UNL d   1     -48.722  27.174  33.308  0.00  0.00    -0.287 OA
ENDROOT
BRANCH   1   3
ATOM      3  C   UNL d   1     -49.313  27.933  34.368  0.00  0.00     0.042 C 
BRANCH   3   4
ATOM      4  C   UNL d   1     -48.782  28.089  34.983  0.00  0.00     0.003 C 
BRANCH   4   5
ATOM      5  C   UNL d   1     -48.371  28.758  35.238  0.00  0.00     0.000 A 
ATOM      6  C   UNL d   1     -47.952  28.732  35.950  0.00  0.00     0.003 A 
ATOM      7  C   UNL d   1     -47.539  29.400  36.207  0.00  0.00     0.042 A 
ATOM      8  C   UNL d   1     -47.549  30.087  35.750  0.00  0.00     0.196 A 
ATOM      9  C   UNL d   1     -47.970  30.105  35.039  0.00  0.00     0.042 A 
ATOM     10  O   UNL d   1     -47.138  30.755  36.004  0.00  0.00    -0.287 OA
ATOM     11  C   UNL d   1     -48.378  29.444  34.784  0.00  0.00     0.003 A 
ENDBRANCH   4   5
ENDBRANCH   3   4
ENDBRANCH   1   3
BRANCH   1  12
ATOM     12  C   UNL d   1     -50.078  26.928  33.676  0.00  0.00     0.039 A 
ATOM     13  C   UNL d   1     -50.769  27.313  33.439  0.00  0.00     0.005 A 
ATOM     14  C   UNL d   1     -51.464  26.881  33.332  0.00  0.00     0.024 A 
ATOM     15  C   UNL d   1     -51.468  26.064  33.461  0.00  0.00     0.094 A 
ATOM     16  C   UNL d   1     -50.765  25.680  33.701  0.00  0.00     0.024 A 
ATOM     17  C   UNL d   1     -50.075  26.112  33.807  0.00  0.00     0.005 A 
BRANCH  15  18
ATOM     18  O   UNL d   1     -52.162  25.632  33.354  0.00  0.00    -0.328 OA
ATOM     19  C   UNL d   1     -52.132  24.809  33.306  0.00  0.00     0.181 C 
ENDBRANCH  15  18
ENDBRANCH   1  12
TORSDOF 5
ENDMDL
