MODEL 1
REMARK VINA RESULT:     159.8      0.000      0.000
REMARK  9 active torsions:
REMARK  status: ('A' for Active; 'I' for Inactive)
REMARK    1  A    between atoms: N_8  and  C_1 
REMARK    2  A    between atoms: S_2  and  C_13 
REMARK    3  A    between atoms: N_7  and  S_2 
REMARK    4  A    between atoms: C_12  and  C_3 
REMARK       I    between atoms: C_10  and  N_8 
REMARK       I    between atoms: C_11  and  N_9 
REMARK    5  A    between atoms: C_21  and  C_10 
REMARK    6  A    between atoms: O_33  and  C_11 
REMARK    7  A    between atoms: C_34  and  N_14 
REMARK    8  A    between atoms: C_35  and  O_33 
REMARK    9  A    between atoms: C_36  and  C_34 
ROOT
ATOM      1  C   UNL d   1      40.884 -16.606  37.810  0.00  0.00     0.104 A 
ATOM      2  C   UNL d   1      42.193 -15.612  37.951  0.00  0.00     0.056 A 
ATOM      3  C   UNL d   1      41.057 -16.239  38.534  0.00  0.00     0.013 A 
ATOM      4  C   UNL d   1      41.372 -16.471  37.152  0.00  0.00     0.013 A 
ATOM      5  C   UNL d   1      41.708 -15.744  38.607  0.00  0.00     0.005 A 
ATOM      6  C   UNL d   1      42.030 -15.970  37.228  0.00  0.00     0.005 A 
ENDROOT
BRANCH   2   7
ATOM      7  C   UNL d   1      42.851 -15.113  38.018  0.00  0.00     0.258 C 
ATOM      8  N   UNL d   1      43.616 -15.418  37.897  0.00  0.00    -0.316 N 
ATOM      9  H   UNL d   1      43.273 -15.953  37.800  0.00  0.00     0.169 HD
ATOM     10  O   UNL d   1      42.755 -14.313  38.205  0.00  0.00    -0.267 OA
BRANCH   8  11
ATOM     11  C   UNL d   1      44.273 -14.921  37.964  0.00  0.00     0.094 A 
ATOM     12  C   UNL d   1      44.987 -15.002  37.561  0.00  0.00     0.082 A 
ATOM     13  C   UNL d   1      45.494 -14.392  37.786  0.00  0.00     0.016 A 
ATOM     14  C   UNL d   1      46.267 -14.199  37.564  0.00  0.00     0.020 A 
ATOM     15  C   UNL d   1      45.100 -13.921  38.336  0.00  0.00     0.049 A 
ATOM     16  C   UNL d   1      46.637 -13.541  37.892  0.00  0.00     0.080 A 
ATOM     17  N   UNL d   1      46.248 -13.069  38.440  0.00  0.00    -0.302 N 
ATOM     18  C   UNL d   1      45.475 -13.257  38.665  0.00  0.00     0.087 A 
ATOM     19  S   UNL d   1      44.343 -14.241  38.452  0.00  0.00    -0.068 SA
BRANCH  12  20
ATOM     20  C   UNL d   1      45.173 -15.591  37.020  0.00  0.00     0.299 C 
ATOM     21  O   UNL d   1      44.720 -15.691  36.352  0.00  0.00    -0.264 OA
ATOM     22  N   UNL d   1      45.818 -16.078  37.158  0.00  0.00    -0.102 N 
ENDBRANCH  12  20
BRANCH  17  23
ATOM     23  C   UNL d   1      46.622 -12.413  38.764  0.00  0.00     0.080 C 
BRANCH  23  24
ATOM     24  C   UNL d   1      46.620 -12.288  39.581  0.00  0.00     0.019 C 
ATOM     25  C   UNL d   1      45.914 -12.128  39.966  0.00  0.00     0.002 C 
ENDBRANCH  23  24
ENDBRANCH  17  23
ENDBRANCH   8  11
ENDBRANCH   2   7
BRANCH   1  26
ATOM     26  S   UNL d   1      40.226 -17.105  37.739  0.00  0.00     0.271 S 
ATOM     27  O   UNL d   1      39.813 -16.572  38.226  0.00  0.00    -0.200 OA
ATOM     28  O   UNL d   1      40.637 -17.632  37.256  0.00  0.00    -0.200 OA
BRANCH  26  29
ATOM     29  N   UNL d   1      39.571 -17.600  37.669  0.00  0.00    -0.226 N 
ATOM     30  C   UNL d   1      39.242 -17.757  36.934  0.00  0.00     0.111 A 
ATOM     31  C   UNL d   1      38.583 -18.256  36.880  0.00  0.00     0.105 A 
ATOM     32  N   UNL d   1      38.257 -18.596  37.559  0.00  0.00    -0.248 N 
ATOM     33  C   UNL d   1      38.589 -18.437  38.293  0.00  0.00     0.105 A 
ATOM     34  C   UNL d   1      37.606 -19.089  37.501  0.00  0.00     0.378 C 
ATOM     35  C   UNL d   1      39.242 -17.941  38.344  0.00  0.00     0.111 A 
ATOM     36  O   UNL d   1      37.277 -19.246  36.765  0.00  0.00    -0.237 OA
BRANCH  34  37
ATOM     37  O   UNL d   1      37.288 -19.422  38.176  0.00  0.00    -0.257 OA
BRANCH  37  38
ATOM     38  C   UNL d   1      37.764 -19.569  38.822  0.00  0.00     0.128 C 
ATOM     39  C   UNL d   1      37.788 -20.327  39.160  0.00  0.00     0.029 C 
ENDBRANCH  37  38
ENDBRANCH  34  37
ENDBRANCH  26  29
ENDBRANCH   1  26
TORSDOF 9
ENDMDL
