MODEL 1
REMARK VINA RESULT:      -6.4      0.000      0.000
REMARK  2 active torsions:
REMARK  status: ('A' for Active; 'I' for Inactive)
REMARK    1  A    between atoms: C_6  and  C_1 
REMARK       I    between atoms: C_7  and  N_8 
REMARK    2  A    between atoms: N_8  and  C_10 
ROOT
ATOM      1  C   UNL d   1     -41.381-123.067 -52.938  0.00  0.00     0.025 A 
ATOM      2  C   UNL d   1     -41.515-122.398 -53.392  0.00  0.00     0.021 A 
ATOM      3  C   UNL d   1     -41.450-122.442 -54.229  0.00  0.00     0.085 A 
ATOM      4  C   UNL d   1     -41.183-123.780 -53.320  0.00  0.00     0.002 A 
ATOM      5  C   UNL d   1     -41.123-123.817 -54.112  0.00  0.00     0.002 A 
ATOM      6  C   UNL d   1     -41.253-123.155 -54.598  0.00  0.00     0.019 A 
ENDROOT
BRANCH   1   7
ATOM      7  C   UNL d   1     -41.444-123.023 -52.146  0.00  0.00     0.111 A 
ATOM      8  N   UNL d   1     -41.778-122.438 -51.689  0.00  0.00    -0.239 NA
ATOM      9  C   UNL d   1     -41.693-122.669 -50.890  0.00  0.00     0.088 A 
ATOM     10  C   UNL d   1     -41.927-122.296 -50.183  0.00  0.00     0.020 A 
ATOM     11  C   UNL d   1     -41.305-123.397 -50.885  0.00  0.00     0.049 A 
ATOM     12  C   UNL d   1     -41.768-122.657 -49.471  0.00  0.00     0.002 A 
ATOM     13  C   UNL d   1     -41.362-123.418 -49.466  0.00  0.00     0.001 A 
ATOM     14  C   UNL d   1     -41.143-123.763 -50.173  0.00  0.00     0.008 A 
ATOM     15  S   UNL d   1     -41.155-123.605 -51.682  0.00  0.00    -0.066 SA
ENDBRANCH   1   7
BRANCH   3  16
ATOM     16  N   UNL d   1     -41.592-121.742 -54.683  0.00  0.00    -0.208 NA
ATOM     17  C   UNL d   1     -42.178-121.768 -55.267  0.00  0.00     0.279 C 
ATOM     18  O   UNL d   1     -42.303-121.094 -55.694  0.00  0.00    -0.265 OA
ATOM     19  C   UNL d   1     -42.616-122.445 -55.410  0.00  0.00     0.068 C 
ENDBRANCH   3  16
TORSDOF 2
ENDMDL
MODEL 2
REMARK VINA RESULT:      -6.1      0.783      1.034
REMARK  2 active torsions:
REMARK  status: ('A' for Active; 'I' for Inactive)
REMARK    1  A    between atoms: C_6  and  C_1 
REMARK       I    between atoms: C_7  and  N_8 
REMARK    2  A    between atoms: N_8  and  C_10 
ROOT
ATOM      1  C   UNL d   1     -41.525-123.125 -51.938  0.00  0.00     0.025 A 
ATOM      2  C   UNL d   1     -41.647-122.445 -52.379  0.00  0.00     0.021 A 
ATOM      3  C   UNL d   1     -41.503-122.453 -53.207  0.00  0.00     0.085 A 
ATOM      4  C   UNL d   1     -41.259-123.813 -52.324  0.00  0.00     0.002 A 
ATOM      5  C   UNL d   1     -41.123-123.816 -53.107  0.00  0.00     0.002 A 
ATOM      6  C   UNL d   1     -41.239-123.141 -53.581  0.00  0.00     0.019 A 
ENDROOT
BRANCH   1   7
ATOM      7  C   UNL d   1     -41.662-123.114 -51.154  0.00  0.00     0.111 A 
ATOM      8  N   UNL d   1     -42.298-122.808 -50.749  0.00  0.00    -0.239 NA
ATOM      9  C   UNL d   1     -42.162-122.946 -49.935  0.00  0.00     0.088 A 
ATOM     10  C   UNL d   1     -42.616-122.757 -49.263  0.00  0.00     0.020 A 
ATOM     11  C   UNL d   1     -41.438-123.336 -49.870  0.00  0.00     0.049 A 
ATOM     12  C   UNL d   1     -42.340-122.963 -48.525  0.00  0.00     0.002 A 
ATOM     13  C   UNL d   1     -41.583-123.372 -48.458  0.00  0.00     0.001 A 
ATOM     14  C   UNL d   1     -41.157-123.545 -49.132  0.00  0.00     0.008 A 
ATOM     15  S   UNL d   1     -41.138-123.435 -50.645  0.00  0.00    -0.066 SA
ENDBRANCH   1   7
BRANCH   3  16
ATOM     16  N   UNL d   1     -41.634-121.743 -53.648  0.00  0.00    -0.208 NA
ATOM     17  C   UNL d   1     -42.015-121.803 -54.381  0.00  0.00     0.279 C 
ATOM     18  O   UNL d   1     -42.134-121.119 -54.792  0.00  0.00    -0.265 OA
ATOM     19  C   UNL d   1     -42.262-122.524 -54.681  0.00  0.00     0.068 C 
ENDBRANCH   3  16
TORSDOF 2
ENDMDL
MODEL 3
REMARK VINA RESULT:      -6.0      1.908      4.261
REMARK  2 active torsions:
REMARK  status: ('A' for Active; 'I' for Inactive)
REMARK    1  A    between atoms: C_6  and  C_1 
REMARK       I    between atoms: C_7  and  N_8 
REMARK    2  A    between atoms: N_8  and  C_10 
ROOT
ATOM      1  C   UNL d   1     -41.616-122.182 -52.081  0.00  0.00     0.025 A 
ATOM      2  C   UNL d   1     -41.954-122.781 -51.636  0.00  0.00     0.021 A 
ATOM      3  C   UNL d   1     -41.874-122.776 -50.799  0.00  0.00     0.085 A 
ATOM      4  C   UNL d   1     -41.197-121.578 -51.690  0.00  0.00     0.002 A 
ATOM      5  C   UNL d   1     -41.123-121.576 -50.899  0.00  0.00     0.002 A 
ATOM      6  C   UNL d   1     -41.456-122.171 -50.421  0.00  0.00     0.019 A 
ENDROOT
BRANCH   1   7
ATOM      7  C   UNL d   1     -41.694-122.190 -52.873  0.00  0.00     0.111 A 
ATOM      8  N   UNL d   1     -42.175-121.735 -53.346  0.00  0.00    -0.239 NA
ATOM      9  C   UNL d   1     -42.038-121.970 -54.137  0.00  0.00     0.088 A 
ATOM     10  C   UNL d   1     -42.368-121.703 -54.854  0.00  0.00     0.020 A 
ATOM     11  C   UNL d   1     -41.470-122.568 -54.120  0.00  0.00     0.049 A 
ATOM     12  C   UNL d   1     -42.125-122.040 -55.553  0.00  0.00     0.002 A 
ATOM     13  C   UNL d   1     -41.530-122.665 -55.536  0.00  0.00     0.001 A 
ATOM     14  C   UNL d   1     -41.223-122.909 -54.820  0.00  0.00     0.008 A 
ATOM     15  S   UNL d   1     -41.264-122.694 -53.319  0.00  0.00    -0.066 SA
ENDBRANCH   1   7
BRANCH   3  16
ATOM     16  N   UNL d   1     -42.229-123.402 -50.354  0.00  0.00    -0.208 NA
ATOM     17  C   UNL d   1     -42.782-123.202 -49.771  0.00  0.00     0.279 C 
ATOM     18  O   UNL d   1     -43.113-123.807 -49.353  0.00  0.00    -0.265 OA
ATOM     19  C   UNL d   1     -42.987-122.423 -49.620  0.00  0.00     0.068 C 
ENDBRANCH   3  16
TORSDOF 2
ENDMDL
MODEL 4
REMARK VINA RESULT:      -4.2      2.480      4.884
REMARK  2 active torsions:
REMARK  status: ('A' for Active; 'I' for Inactive)
REMARK    1  A    between atoms: C_6  and  C_1 
REMARK       I    between atoms: C_7  and  N_8 
REMARK    2  A    between atoms: N_8  and  C_10 
ROOT
ATOM      1  C   UNL d   1     -42.178-122.815 -50.285  0.00  0.00     0.025 A 
ATOM      2  C   UNL d   1     -41.658-123.047 -49.696  0.00  0.00     0.021 A 
ATOM      3  C   UNL d   1     -41.908-123.044 -48.893  0.00  0.00     0.085 A 
ATOM      4  C   UNL d   1     -42.948-122.580 -50.072  0.00  0.00     0.002 A 
ATOM      5  C   UNL d   1     -43.181-122.578 -49.312  0.00  0.00     0.002 A 
ATOM      6  C   UNL d   1     -42.675-122.809 -48.692  0.00  0.00     0.019 A 
ENDROOT
BRANCH   1   7
ATOM      7  C   UNL d   1     -41.939-122.819 -51.043  0.00  0.00     0.111 A 
ATOM      8  N   UNL d   1     -41.803-123.453 -51.536  0.00  0.00    -0.239 NA
ATOM      9  C   UNL d   1     -41.561-123.144 -52.275  0.00  0.00     0.088 A 
ATOM     10  C   UNL d   1     -41.348-123.524 -52.985  0.00  0.00     0.020 A 
ATOM     11  C   UNL d   1     -41.556-122.322 -52.208  0.00  0.00     0.049 A 
ATOM     12  C   UNL d   1     -41.132-123.075 -53.627  0.00  0.00     0.002 A 
ATOM     13  C   UNL d   1     -41.127-122.215 -53.557  0.00  0.00     0.001 A 
ATOM     14  C   UNL d   1     -41.340-121.867 -52.850  0.00  0.00     0.008 A 
ATOM     15  S   UNL d   1     -41.796-122.134 -51.429  0.00  0.00    -0.066 SA
ENDBRANCH   1   7
BRANCH   3  16
ATOM     16  N   UNL d   1     -41.358-123.287 -48.297  0.00  0.00    -0.208 NA
ATOM     17  C   UNL d   1     -41.660-123.588 -47.587  0.00  0.00     0.279 C 
ATOM     18  O   UNL d   1     -41.126-123.816 -47.027  0.00  0.00    -0.265 OA
ATOM     19  C   UNL d   1     -42.465-123.654 -47.454  0.00  0.00     0.068 C 
ENDBRANCH   3  16
TORSDOF 2
ENDMDL
