MODEL 1
REMARK VINA RESULT:      75.9      0.000      0.000
REMARK  6 active torsions:
REMARK  status: ('A' for Active; 'I' for Inactive)
REMARK    1  A    between atoms: S_3  and  C_1 
REMARK    2  A    between atoms: C_11  and  S_3 
REMARK    3  A    between atoms: S_8  and  C_4 
REMARK    4  A    between atoms: C_7  and  C_5 
REMARK    5  A    between atoms: C_16  and  S_8 
REMARK    6  A    between atoms: C_19  and  C_16 
ROOT
ATOM      1  C   UNL d   1     -49.675  27.405  35.161  0.00  0.00     0.200 A 
ATOM      2  N   UNL d   1     -49.065  27.892  34.890  0.00  0.00    -0.206 NA
ATOM      3  C   UNL d   1     -49.761  27.533  35.976  0.00  0.00     0.160 A 
ATOM      4  C   UNL d   1     -48.772  28.324  35.536  0.00  0.00     0.207 A 
ATOM      5  O   UNL d   1     -49.206  28.097  36.201  0.00  0.00    -0.279 OA
ENDROOT
BRANCH   1   6
ATOM      6  S   UNL d   1     -50.116  26.884  34.695  0.00  0.00     0.229 S 
ATOM      7  O   UNL d   1     -49.436  26.425  34.637  0.00  0.00    -0.215 OA
ATOM      8  O   UNL d   1     -50.801  27.339  34.750  0.00  0.00    -0.215 OA
BRANCH   6   9
ATOM      9  C   UNL d   1     -50.566  26.368  34.229  0.00  0.00     0.089 A 
ATOM     10  C   UNL d   1     -50.211  25.721  33.848  0.00  0.00     0.011 A 
ATOM     11  C   UNL d   1     -50.658  25.217  33.391  0.00  0.00     0.001 A 
ATOM     12  C   UNL d   1     -51.467  25.348  33.306  0.00  0.00     0.000 A 
ATOM     13  C   UNL d   1     -51.826  25.983  33.678  0.00  0.00     0.001 A 
ATOM     14  C   UNL d   1     -51.379  26.497  34.142  0.00  0.00     0.011 A 
ENDBRANCH   6   9
ENDBRANCH   1   6
BRANCH   3  15
ATOM     15  S   UNL d   1     -50.307  27.160  36.469  0.00  0.00    -0.060 SA
BRANCH  15  16
ATOM     16  C   UNL d   1     -50.235  27.235  37.290  0.00  0.00     0.037 C 
BRANCH  16  17
ATOM     17  C   UNL d   1     -50.823  26.940  37.788  0.00  0.00     0.006 C 
ATOM     18  C   UNL d   1     -51.152  26.198  37.635  0.00  0.00     0.001 C 
ATOM     19  C   UNL d   1     -51.075  27.387  38.431  0.00  0.00     0.001 C 
ENDBRANCH  16  17
ENDBRANCH  15  16
ENDBRANCH   3  15
BRANCH   4  20
ATOM     20  C   UNL d   1     -48.156  28.880  35.513  0.00  0.00     0.141 A 
ATOM     21  O   UNL d   1     -48.068  29.537  36.014  0.00  0.00    -0.302 OA
ATOM     22  C   UNL d   1     -47.389  29.934  35.800  0.00  0.00     0.123 A 
ATOM     23  C   UNL d   1     -47.041  29.538  35.167  0.00  0.00     0.029 A 
ATOM     24  C   UNL d   1     -47.513  28.887  34.989  0.00  0.00     0.030 A 
ENDBRANCH   4  20
TORSDOF 6
ENDMDL
MODEL 2
REMARK VINA RESULT:      78.2      2.502      5.043
REMARK  6 active torsions:
REMARK  status: ('A' for Active; 'I' for Inactive)
REMARK    1  A    between atoms: S_3  and  C_1 
REMARK    2  A    between atoms: C_11  and  S_3 
REMARK    3  A    between atoms: S_8  and  C_4 
REMARK    4  A    between atoms: C_7  and  C_5 
REMARK    5  A    between atoms: C_16  and  S_8 
REMARK    6  A    between atoms: C_19  and  C_16 
ROOT
ATOM      1  C   UNL d   1     -48.383  30.233  34.389  0.00  0.00     0.200 A 
ATOM      2  N   UNL d   1     -48.872  29.742  33.936  0.00  0.00    -0.206 NA
ATOM      3  C   UNL d   1     -48.095  29.787  35.026  0.00  0.00     0.160 A 
ATOM      4  C   UNL d   1     -48.887  28.992  34.292  0.00  0.00     0.207 A 
ATOM      5  O   UNL d   1     -48.405  29.028  34.963  0.00  0.00    -0.279 OA
ENDROOT
BRANCH   1   6
ATOM      6  S   UNL d   1     -48.217  31.026  34.227  0.00  0.00     0.229 S 
ATOM      7  O   UNL d   1     -49.022  31.169  34.317  0.00  0.00    -0.215 OA
ATOM      8  O   UNL d   1     -47.410  30.889  34.136  0.00  0.00    -0.215 OA
BRANCH   6   9
ATOM      9  C   UNL d   1     -48.041  31.818  34.065  0.00  0.00     0.089 A 
ATOM     10  C   UNL d   1     -47.336  32.161  34.337  0.00  0.00     0.011 A 
ATOM     11  C   UNL d   1     -47.168  32.941  34.174  0.00  0.00     0.001 A 
ATOM     12  C   UNL d   1     -47.699  33.393  33.737  0.00  0.00     0.000 A 
ATOM     13  C   UNL d   1     -48.398  33.064  33.464  0.00  0.00     0.001 A 
ATOM     14  C   UNL d   1     -48.574  32.275  33.625  0.00  0.00     0.011 A 
ENDBRANCH   6   9
ENDBRANCH   1   6
BRANCH   3  15
ATOM     15  S   UNL d   1     -47.586  30.060  35.617  0.00  0.00    -0.060 SA
BRANCH  15  16
ATOM     16  C   UNL d   1     -47.332  29.542  36.209  0.00  0.00     0.037 C 
BRANCH  16  17
ATOM     17  C   UNL d   1     -46.966  29.834  36.888  0.00  0.00     0.006 C 
ATOM     18  C   UNL d   1     -47.425  30.044  37.541  0.00  0.00     0.001 C 
ATOM     19  C   UNL d   1     -46.147  29.914  36.907  0.00  0.00     0.001 C 
ENDBRANCH  16  17
ENDBRANCH  15  16
ENDBRANCH   3  15
BRANCH   4  20
ATOM     20  C   UNL d   1     -49.308  28.331  34.021  0.00  0.00     0.141 A 
ATOM     21  O   UNL d   1     -49.166  27.538  34.225  0.00  0.00    -0.302 OA
ATOM     22  C   UNL d   1     -49.707  27.070  33.835  0.00  0.00     0.123 A 
ATOM     23  C   UNL d   1     -50.196  27.555  33.382  0.00  0.00     0.029 A 
ATOM     24  C   UNL d   1     -49.951  28.334  33.496  0.00  0.00     0.030 A 
ENDBRANCH   4  20
TORSDOF 6
ENDMDL
MODEL 3
REMARK VINA RESULT:      78.6      2.274      3.681
REMARK  6 active torsions:
REMARK  status: ('A' for Active; 'I' for Inactive)
REMARK    1  A    between atoms: S_3  and  C_1 
REMARK    2  A    between atoms: C_11  and  S_3 
REMARK    3  A    between atoms: S_8  and  C_4 
REMARK    4  A    between atoms: C_7  and  C_5 
REMARK    5  A    between atoms: C_16  and  S_8 
REMARK    6  A    between atoms: C_19  and  C_16 
ROOT
ATOM      1  C   UNL d   1     -51.700  25.619  35.269  0.00  0.00     0.200 A 
ATOM      2  N   UNL d   1     -51.810  25.664  36.087  0.00  0.00    -0.206 NA
ATOM      3  C   UNL d   1     -51.213  26.251  35.041  0.00  0.00     0.160 A 
ATOM      4  C   UNL d   1     -51.392  26.324  36.368  0.00  0.00     0.207 A 
ATOM      5  O   UNL d   1     -51.027  26.680  35.718  0.00  0.00    -0.279 OA
ENDROOT
BRANCH   1   6
ATOM      6  S   UNL d   1     -52.022  25.042  34.772  0.00  0.00     0.229 S 
ATOM      7  O   UNL d   1     -51.347  25.123  34.309  0.00  0.00    -0.215 OA
ATOM      8  O   UNL d   1     -52.701  24.957  35.232  0.00  0.00    -0.215 OA
BRANCH   6   9
ATOM      9  C   UNL d   1     -52.354  24.464  34.281  0.00  0.00     0.089 A 
ATOM     10  C   UNL d   1     -51.872  23.995  33.792  0.00  0.00     0.011 A 
ATOM     11  C   UNL d   1     -52.203  23.428  33.311  0.00  0.00     0.001 A 
ATOM     12  C   UNL d   1     -53.019  23.316  33.308  0.00  0.00     0.000 A 
ATOM     13  C   UNL d   1     -53.502  23.774  33.787  0.00  0.00     0.001 A 
ATOM     14  C   UNL d   1     -53.174  24.350  34.276  0.00  0.00     0.011 A 
ENDBRANCH   6   9
ENDBRANCH   1   6
BRANCH   3  15
ATOM     15  S   UNL d   1     -50.962  26.416  34.273  0.00  0.00    -0.060 SA
BRANCH  15  16
ATOM     16  C   UNL d   1     -50.836  27.201  34.044  0.00  0.00     0.037 C 
BRANCH  16  17
ATOM     17  C   UNL d   1     -50.202  27.394  33.553  0.00  0.00     0.006 C 
ATOM     18  C   UNL d   1     -50.100  28.176  33.307  0.00  0.00     0.001 C 
ATOM     19  C   UNL d   1     -49.679  26.807  33.312  0.00  0.00     0.001 C 
ENDBRANCH  16  17
ENDBRANCH  15  16
ENDBRANCH   3  15
BRANCH   4  20
ATOM     20  C   UNL d   1     -51.350  26.576  37.157  0.00  0.00     0.141 A 
ATOM     21  O   UNL d   1     -50.849  27.166  37.461  0.00  0.00    -0.302 OA
ATOM     22  C   UNL d   1     -50.989  27.236  38.261  0.00  0.00     0.123 A 
ATOM     23  C   UNL d   1     -51.575  26.698  38.474  0.00  0.00     0.029 A 
ATOM     24  C   UNL d   1     -51.799  26.290  37.794  0.00  0.00     0.030 A 
ENDBRANCH   4  20
TORSDOF 6
ENDMDL
