MODEL 1
REMARK VINA RESULT:      60.9      0.000      0.000
REMARK  7 active torsions:
REMARK  status: ('A' for Active; 'I' for Inactive)
REMARK    1  A    between atoms: C_3  and  C_1 
REMARK    2  A    between atoms: N_5  and  C_2 
REMARK    3  A    between atoms: N_4  and  C_3 
REMARK    4  A    between atoms: C_10  and  C_3 
REMARK    5  A    between atoms: C_13  and  N_4 
REMARK       I    between atoms: C_6  and  N_5 
REMARK    6  A    between atoms: C_8  and  C_13 
REMARK    7  A    between atoms: O_16  and  C_8 
ROOT
ATOM      1  C   UNL d   1     -51.341  25.683  34.488  0.00  0.00     0.083 C 
ENDROOT
BRANCH   1   2
ATOM      2  C   UNL d   1     -51.136  24.988  34.094  0.00  0.00     0.036 A 
ATOM      3  C   UNL d   1     -51.701  24.445  33.878  0.00  0.00     0.086 A 
ATOM      4  C   UNL d   1     -51.496  23.749  33.484  0.00  0.00     0.020 A 
ATOM      5  C   UNL d   1     -50.726  23.597  33.306  0.00  0.00     0.008 A 
ATOM      6  C   UNL d   1     -50.126  24.154  33.523  0.00  0.00     0.035 A 
ATOM      7  C   UNL d   1     -50.349  24.844  33.917  0.00  0.00     0.010 A 
ATOM      8 BR   UNL d   1     -49.319  24.009  33.343  0.00  0.00    -0.049 Br
BRANCH   3   9
ATOM      9  N   UNL d   1     -52.511  24.599  34.064  0.00  0.00    -0.208 NA
ATOM     10  C   UNL d   1     -53.102  24.096  33.774  0.00  0.00     0.279 C 
ATOM     11  O   UNL d   1     -53.874  24.244  33.951  0.00  0.00    -0.265 OA
ATOM     12  C   UNL d   1     -52.918  23.449  33.310  0.00  0.00     0.068 C 
ENDBRANCH   3   9
ENDBRANCH   1   2
BRANCH   1  13
ATOM     13  N   UNL d   1     -51.605  25.671  35.258  0.00  0.00    -0.238 NA
BRANCH  13  14
ATOM     14  C   UNL d   1     -51.312  26.248  35.779  0.00  0.00     0.167 C 
BRANCH  14  15
ATOM     15  C   UNL d   1     -51.461  26.147  36.601  0.00  0.00     0.315 C 
ATOM     16  O   UNL d   1     -51.115  25.484  36.997  0.00  0.00    -0.257 OA
BRANCH  15  17
ATOM     17  O   UNL d   1     -51.933  26.678  37.021  0.00  0.00    -0.295 OA
ATOM     18  C   UNL d   1     -52.277  26.454  37.706  0.00  0.00     0.185 C 
ENDBRANCH  15  17
ENDBRANCH  14  15
ENDBRANCH  13  14
ENDBRANCH   1  13
BRANCH   1  19
ATOM     19  C   UNL d   1     -51.278  26.403  34.098  0.00  0.00     0.018 A 
ATOM     20  C   UNL d   1     -50.567  26.821  34.092  0.00  0.00     0.002 A 
ATOM     21  C   UNL d   1     -50.485  27.537  33.710  0.00  0.00     0.000 A 
ATOM     22  C   UNL d   1     -51.170  27.855  33.306  0.00  0.00     0.000 A 
ATOM     23  C   UNL d   1     -51.884  27.443  33.309  0.00  0.00     0.000 A 
ATOM     24  C   UNL d   1     -51.940  26.720  33.702  0.00  0.00     0.002 A 
ENDBRANCH   1  19
TORSDOF 7
ENDMDL
MODEL 2
REMARK VINA RESULT:      61.3      1.372      1.862
REMARK  7 active torsions:
REMARK  status: ('A' for Active; 'I' for Inactive)
REMARK    1  A    between atoms: C_3  and  C_1 
REMARK    2  A    between atoms: N_5  and  C_2 
REMARK    3  A    between atoms: N_4  and  C_3 
REMARK    4  A    between atoms: C_10  and  C_3 
REMARK    5  A    between atoms: C_13  and  N_4 
REMARK       I    between atoms: C_6  and  N_5 
REMARK    6  A    between atoms: C_8  and  C_13 
REMARK    7  A    between atoms: O_16  and  C_8 
ROOT
ATOM      1  C   UNL d   1     -51.343  25.795  34.508  0.00  0.00     0.083 C 
ENDROOT
BRANCH   1   2
ATOM      2  C   UNL d   1     -51.622  25.129  34.108  0.00  0.00     0.036 A 
ATOM      3  C   UNL d   1     -51.114  24.637  33.708  0.00  0.00     0.086 A 
ATOM      4  C   UNL d   1     -51.393  23.971  33.308  0.00  0.00     0.020 A 
ATOM      5  C   UNL d   1     -52.179  23.798  33.309  0.00  0.00     0.008 A 
ATOM      6  C   UNL d   1     -52.720  24.301  33.722  0.00  0.00     0.035 A 
ATOM      7  C   UNL d   1     -52.424  24.963  34.117  0.00  0.00     0.010 A 
ATOM      8 BR   UNL d   1     -53.542  24.133  33.732  0.00  0.00    -0.049 Br
BRANCH   3   9
ATOM      9  N   UNL d   1     -50.288  24.814  33.703  0.00  0.00    -0.208 NA
ATOM     10  C   UNL d   1     -49.738  24.206  33.584  0.00  0.00     0.279 C 
ATOM     11  O   UNL d   1     -48.950  24.376  33.580  0.00  0.00    -0.265 OA
ATOM     12  C   UNL d   1     -49.979  23.434  33.470  0.00  0.00     0.068 C 
ENDBRANCH   3   9
ENDBRANCH   1   2
BRANCH   1  13
ATOM     13  N   UNL d   1     -51.119  25.757  35.291  0.00  0.00    -0.238 NA
BRANCH  13  14
ATOM     14  C   UNL d   1     -51.362  26.370  35.795  0.00  0.00     0.167 C 
BRANCH  14  15
ATOM     15  C   UNL d   1     -51.323  26.236  36.625  0.00  0.00     0.315 C 
ATOM     16  O   UNL d   1     -50.578  26.025  36.966  0.00  0.00    -0.257 OA
BRANCH  15  17
ATOM     17  O   UNL d   1     -51.992  26.305  37.104  0.00  0.00    -0.295 OA
ATOM     18  C   UNL d   1     -52.149  25.750  37.656  0.00  0.00     0.185 C 
ENDBRANCH  15  17
ENDBRANCH  14  15
ENDBRANCH  13  14
ENDBRANCH   1  13
BRANCH   1  19
ATOM     19  C   UNL d   1     -51.289  26.512  34.112  0.00  0.00     0.018 A 
ATOM     20  C   UNL d   1     -50.564  26.899  34.034  0.00  0.00     0.002 A 
ATOM     21  C   UNL d   1     -50.490  27.612  33.645  0.00  0.00     0.000 A 
ATOM     22  C   UNL d   1     -51.197  27.959  33.309  0.00  0.00     0.000 A 
ATOM     23  C   UNL d   1     -51.925  27.577  33.383  0.00  0.00     0.000 A 
ATOM     24  C   UNL d   1     -51.973  26.857  33.782  0.00  0.00     0.002 A 
ENDBRANCH   1  19
TORSDOF 7
ENDMDL
