MODEL 1
REMARK VINA RESULT:      -7.1      0.000      0.000
REMARK  5 active torsions:
REMARK  status: ('A' for Active; 'I' for Inactive)
REMARK    1  A    between atoms: C_22  and  N_10 
REMARK    2  A    between atoms: C_19  and  N_13 
REMARK    3  A    between atoms: N_14  and  C_26 
REMARK    4  A    between atoms: C_25  and  C_22 
REMARK    5  A    between atoms: C_26  and  C_25 
ROOT
ATOM      1  C   UNL d   1      53.487  30.550  54.523  0.00  0.00     0.173 A 
ATOM      2  C   UNL d   1      53.247  30.906  53.846  0.00  0.00     0.191 A 
ATOM      3  C   UNL d   1      53.644  32.174  54.348  0.00  0.00     0.722 A 
ATOM      4  N   UNL d   1      53.894  31.818  55.049  0.00  0.00    -0.131 N 
ATOM      5  N   UNL d   1      53.321  31.718  53.747  0.00  0.00    -0.042 NA
ATOM      6  N   UNL d   1      52.923  30.465  53.238  0.00  0.00    -0.240 N 
ATOM      7  N   UNL d   1      53.110  29.281  54.067  0.00  0.00    -0.223 N 
ATOM      8  C   UNL d   1      52.853  29.647  53.347  0.00  0.00     0.343 A 
ATOM      9  C   UNL d   1      53.430  29.742  54.660  0.00  0.00     0.288 A 
ATOM     10  N   UNL d   1      53.720  32.993  54.252  0.00  0.00    -0.139 N 
ATOM     11  C   UNL d   1      54.295  33.096  55.556  0.00  0.00     0.116 A 
ATOM     12  C   UNL d   1      54.045  33.452  54.855  0.00  0.00     0.100 A 
ATOM     13  O   UNL d   1      52.512  29.201  52.703  0.00  0.00    -0.245 OA
ATOM     14  O   UNL d   1      53.680  29.387  55.361  0.00  0.00    -0.265 OA
ATOM     15  C   UNL d   1      52.673  30.821  52.537  0.00  0.00     0.105 C 
ATOM     16  C   UNL d   1      53.039  28.476  54.170  0.00  0.00     0.107 C 
ATOM     17  C   UNL d   1      54.111  34.271  54.735  0.00  0.00     0.021 C 
ENDROOT
BRANCH  10  18
ATOM     18  C   UNL d   1      53.471  33.353  53.553  0.00  0.00     0.100 C 
BRANCH  18  19
ATOM     19  C   UNL d   1      52.732  33.728  53.513  0.00  0.00     0.039 C 
BRANCH  19  20
ATOM     20  C   UNL d   1      52.575  34.260  52.919  0.00  0.00     0.082 C 
BRANCH  20  21
ATOM     21  N   UNL d   1      51.805  34.365  52.650  0.00  0.00    -0.300 N 
ATOM     22  C   UNL d   1      51.202  34.514  53.193  0.00  0.00     0.100 A 
ATOM     23  C   UNL d   1      50.435  34.618  52.923  0.00  0.00     0.100 A 
ATOM     24  N   UNL d   1      50.272  34.574  52.120  0.00  0.00    -0.301 N 
ATOM     25  C   UNL d   1      50.875  34.427  51.588  0.00  0.00     0.100 A 
ATOM     26  C   UNL d   1      51.651  34.320  51.852  0.00  0.00     0.100 A 
BRANCH  24  27
ATOM     27  C   UNL d   1      49.502  34.679  51.851  0.00  0.00     0.064 A 
ATOM     28  C   UNL d   1      49.271  34.368  51.132  0.00  0.00     0.018 A 
ATOM     29  C   UNL d   1      48.508  34.469  50.860  0.00  0.00     0.002 A 
ATOM     30  C   UNL d   1      47.965  34.891  51.318  0.00  0.00     0.000 A 
ATOM     31  C   UNL d   1      48.197  35.207  52.048  0.00  0.00     0.002 A 
ATOM     32  C   UNL d   1      48.961  35.101  52.311  0.00  0.00     0.018 A 
ENDBRANCH  24  27
ENDBRANCH  20  21
ENDBRANCH  19  20
ENDBRANCH  18  19
ENDBRANCH  10  18
TORSDOF 5
ENDMDL
MODEL 2
REMARK VINA RESULT:      -6.7      0.963      1.540
REMARK  5 active torsions:
REMARK  status: ('A' for Active; 'I' for Inactive)
REMARK    1  A    between atoms: C_22  and  N_10 
REMARK    2  A    between atoms: C_19  and  N_13 
REMARK    3  A    between atoms: N_14  and  C_26 
REMARK    4  A    between atoms: C_25  and  C_22 
REMARK    5  A    between atoms: C_26  and  C_25 
ROOT
ATOM      1  C   UNL d   1      53.350  31.503  54.185  0.00  0.00     0.173 A 
ATOM      2  C   UNL d   1      52.912  31.659  53.531  0.00  0.00     0.191 A 
ATOM      3  C   UNL d   1      52.975  33.053  53.797  0.00  0.00     0.722 A 
ATOM      4  N   UNL d   1      53.426  32.904  54.472  0.00  0.00    -0.131 N 
ATOM      5  N   UNL d   1      52.719  32.431  53.327  0.00  0.00    -0.042 NA
ATOM      6  N   UNL d   1      52.650  31.050  53.053  0.00  0.00    -0.240 N 
ATOM      7  N   UNL d   1      53.313  30.122  53.960  0.00  0.00    -0.223 N 
ATOM      8  C   UNL d   1      52.850  30.275  53.267  0.00  0.00     0.343 A 
ATOM      9  C   UNL d   1      53.564  30.747  54.422  0.00  0.00     0.288 A 
ATOM     10  N   UNL d   1      52.782  33.832  53.595  0.00  0.00    -0.139 N 
ATOM     11  C   UNL d   1      53.490  34.309  54.740  0.00  0.00     0.116 A 
ATOM     12  C   UNL d   1      53.039  34.459  54.065  0.00  0.00     0.100 A 
ATOM     13  O   UNL d   1      52.567  29.651  52.757  0.00  0.00    -0.245 OA
ATOM     14  O   UNL d   1      54.015  30.598  55.096  0.00  0.00    -0.265 OA
ATOM     15  C   UNL d   1      52.199  31.199  52.379  0.00  0.00     0.105 C 
ATOM     16  C   UNL d   1      53.507  29.358  54.166  0.00  0.00     0.107 C 
ATOM     17  C   UNL d   1      52.833  35.231  53.842  0.00  0.00     0.021 C 
ENDROOT
BRANCH  10  18
ATOM     18  C   UNL d   1      52.332  33.986  52.921  0.00  0.00     0.100 C 
BRANCH  18  19
ATOM     19  C   UNL d   1      51.542  34.232  52.990  0.00  0.00     0.039 C 
BRANCH  19  20
ATOM     20  C   UNL d   1      51.018  34.101  52.382  0.00  0.00     0.082 C 
BRANCH  20  21
ATOM     21  N   UNL d   1      50.283  34.469  52.384  0.00  0.00    -0.300 N 
ATOM     22  C   UNL d   1      50.002  34.815  53.078  0.00  0.00     0.100 A 
ATOM     23  C   UNL d   1      49.269  35.181  53.077  0.00  0.00     0.100 A 
ATOM     24  N   UNL d   1      48.821  35.203  52.390  0.00  0.00    -0.301 N 
ATOM     25  C   UNL d   1      49.106  34.858  51.706  0.00  0.00     0.100 A 
ATOM     26  C   UNL d   1      49.844  34.487  51.698  0.00  0.00     0.100 A 
BRANCH  24  27
ATOM     27  C   UNL d   1      48.086  35.571  52.391  0.00  0.00     0.064 A 
ATOM     28  C   UNL d   1      47.809  35.936  53.067  0.00  0.00     0.018 A 
ATOM     29  C   UNL d   1      47.079  36.304  53.074  0.00  0.00     0.002 A 
ATOM     30  C   UNL d   1      46.618  36.304  52.388  0.00  0.00     0.000 A 
ATOM     31  C   UNL d   1      46.897  35.934  51.701  0.00  0.00     0.002 A 
ATOM     32  C   UNL d   1      47.626  35.570  51.705  0.00  0.00     0.018 A 
ENDBRANCH  24  27
ENDBRANCH  20  21
ENDBRANCH  19  20
ENDBRANCH  18  19
ENDBRANCH  10  18
TORSDOF 5
ENDMDL
MODEL 3
REMARK VINA RESULT:      -5.9      3.261      6.833
REMARK  5 active torsions:
REMARK  status: ('A' for Active; 'I' for Inactive)
REMARK    1  A    between atoms: C_22  and  N_10 
REMARK    2  A    between atoms: C_19  and  N_13 
REMARK    3  A    between atoms: N_14  and  C_26 
REMARK    4  A    between atoms: C_25  and  C_22 
REMARK    5  A    between atoms: C_26  and  C_25 
ROOT
ATOM      1  C   UNL d   1      46.109  35.824  52.879  0.00  0.00     0.173 A 
ATOM      2  C   UNL d   1      46.690  35.588  52.379  0.00  0.00     0.191 A 
ATOM      3  C   UNL d   1      47.682  35.964  53.325  0.00  0.00     0.722 A 
ATOM      4  N   UNL d   1      47.092  36.210  53.846  0.00  0.00    -0.131 N 
ATOM      5  N   UNL d   1      47.481  35.653  52.592  0.00  0.00    -0.042 NA
ATOM      6  N   UNL d   1      46.506  35.276  51.646  0.00  0.00    -0.240 N 
ATOM      7  N   UNL d   1      45.099  35.468  51.976  0.00  0.00    -0.223 N 
ATOM      8  C   UNL d   1      45.706  35.215  51.441  0.00  0.00     0.343 A 
ATOM      9  C   UNL d   1      45.308  35.776  52.703  0.00  0.00     0.288 A 
ATOM     10  N   UNL d   1      48.478  36.030  53.543  0.00  0.00    -0.139 N 
ATOM     11  C   UNL d   1      48.091  36.589  54.799  0.00  0.00     0.116 A 
ATOM     12  C   UNL d   1      48.681  36.342  54.278  0.00  0.00     0.100 A 
ATOM     13  O   UNL d   1      45.531  34.887  50.672  0.00  0.00    -0.245 OA
ATOM     14  O   UNL d   1      44.718  36.022  53.224  0.00  0.00    -0.265 OA
ATOM     15  C   UNL d   1      47.096  35.030  51.125  0.00  0.00     0.105 C 
ATOM     16  C   UNL d   1      44.314  35.406  51.770  0.00  0.00     0.107 C 
ATOM     17  C   UNL d   1      49.486  36.399  54.474  0.00  0.00     0.021 C 
ENDROOT
BRANCH  10  18
ATOM     18  C   UNL d   1      49.071  35.785  53.025  0.00  0.00     0.100 C 
BRANCH  18  19
ATOM     19  C   UNL d   1      49.568  35.150  53.224  0.00  0.00     0.039 C 
BRANCH  19  20
ATOM     20  C   UNL d   1      50.030  34.799  52.655  0.00  0.00     0.082 C 
BRANCH  20  21
ATOM     21  N   UNL d   1      50.688  34.357  52.873  0.00  0.00    -0.300 N 
ATOM     22  C   UNL d   1      51.444  34.651  52.723  0.00  0.00     0.100 A 
ATOM     23  C   UNL d   1      52.098  34.208  52.941  0.00  0.00     0.100 A 
ATOM     24  N   UNL d   1      52.000  33.479  53.304  0.00  0.00    -0.301 N 
ATOM     25  C   UNL d   1      51.247  33.194  53.450  0.00  0.00     0.100 A 
ATOM     26  C   UNL d   1      50.582  33.634  53.233  0.00  0.00     0.100 A 
BRANCH  24  27
ATOM     27  C   UNL d   1      52.657  33.037  53.522  0.00  0.00     0.064 A 
ATOM     28  C   UNL d   1      53.120  33.270  54.154  0.00  0.00     0.018 A 
ATOM     29  C   UNL d   1      53.774  32.835  54.375  0.00  0.00     0.002 A 
ATOM     30  C   UNL d   1      53.968  32.151  53.954  0.00  0.00     0.000 A 
ATOM     31  C   UNL d   1      53.500  31.912  53.313  0.00  0.00     0.002 A 
ATOM     32  C   UNL d   1      52.850  32.353  53.100  0.00  0.00     0.018 A 
ENDBRANCH  24  27
ENDBRANCH  20  21
ENDBRANCH  19  20
ENDBRANCH  18  19
ENDBRANCH  10  18
TORSDOF 5
ENDMDL
MODEL 4
REMARK VINA RESULT:      -5.3      2.112      5.716
REMARK  5 active torsions:
REMARK  status: ('A' for Active; 'I' for Inactive)
REMARK    1  A    between atoms: C_22  and  N_10 
REMARK    2  A    between atoms: C_19  and  N_13 
REMARK    3  A    between atoms: N_14  and  C_26 
REMARK    4  A    between atoms: C_25  and  C_22 
REMARK    5  A    between atoms: C_26  and  C_25 
ROOT
ATOM      1  C   UNL d   1      49.752  35.260  52.990  0.00  0.00     0.173 A 
ATOM      2  C   UNL d   1      50.098  34.697  52.534  0.00  0.00     0.191 A 
ATOM      3  C   UNL d   1      51.302  34.804  53.282  0.00  0.00     0.722 A 
ATOM      4  N   UNL d   1      50.956  35.383  53.756  0.00  0.00    -0.131 N 
ATOM      5  N   UNL d   1      50.873  34.461  52.672  0.00  0.00    -0.042 NA
ATOM      6  N   UNL d   1      49.683  34.347  51.923  0.00  0.00    -0.240 N 
ATOM      7  N   UNL d   1      48.548  35.188  52.280  0.00  0.00    -0.223 N 
ATOM      8  C   UNL d   1      48.903  34.592  51.793  0.00  0.00     0.343 A 
ATOM      9  C   UNL d   1      48.982  35.523  52.886  0.00  0.00     0.288 A 
ATOM     10  N   UNL d   1      52.083  34.568  53.423  0.00  0.00    -0.139 N 
ATOM     11  C   UNL d   1      52.169  35.490  54.510  0.00  0.00     0.116 A 
ATOM     12  C   UNL d   1      52.515  34.911  54.035  0.00  0.00     0.100 A 
ATOM     13  O   UNL d   1      48.484  34.216  51.150  0.00  0.00    -0.245 OA
ATOM     14  O   UNL d   1      48.636  36.102  53.359  0.00  0.00    -0.265 OA
ATOM     15  C   UNL d   1      50.029  33.768  51.449  0.00  0.00     0.105 C 
ATOM     16  C   UNL d   1      47.780  35.425  52.149  0.00  0.00     0.107 C 
ATOM     17  C   UNL d   1      53.296  34.658  54.157  0.00  0.00     0.021 C 
ENDROOT
BRANCH  10  18
ATOM     18  C   UNL d   1      52.432  33.989  52.951  0.00  0.00     0.100 C 
BRANCH  18  19
ATOM     19  C   UNL d   1      52.722  33.288  53.290  0.00  0.00     0.039 C 
BRANCH  19  20
ATOM     20  C   UNL d   1      52.919  32.657  52.817  0.00  0.00     0.082 C 
BRANCH  20  21
ATOM     21  N   UNL d   1      53.021  31.910  53.146  0.00  0.00    -0.300 N 
ATOM     22  C   UNL d   1      52.506  31.300  52.939  0.00  0.00     0.100 A 
ATOM     23  C   UNL d   1      52.610  30.557  53.268  0.00  0.00     0.100 A 
ATOM     24  N   UNL d   1      53.221  30.424  53.799  0.00  0.00    -0.301 N 
ATOM     25  C   UNL d   1      53.727  31.034  54.000  0.00  0.00     0.100 A 
ATOM     26  C   UNL d   1      53.630  31.786  53.673  0.00  0.00     0.100 A 
BRANCH  24  27
ATOM     27  C   UNL d   1      53.323  29.678  54.129  0.00  0.00     0.064 A 
ATOM     28  C   UNL d   1      53.557  29.050  53.661  0.00  0.00     0.018 A 
ATOM     29  C   UNL d   1      53.661  28.306  53.983  0.00  0.00     0.002 A 
ATOM     30  C   UNL d   1      53.526  28.191  54.790  0.00  0.00     0.000 A 
ATOM     31  C   UNL d   1      53.288  28.826  55.266  0.00  0.00     0.002 A 
ATOM     32  C   UNL d   1      53.188  29.563  54.935  0.00  0.00     0.018 A 
ENDBRANCH  24  27
ENDBRANCH  20  21
ENDBRANCH  19  20
ENDBRANCH  18  19
ENDBRANCH  10  18
TORSDOF 5
ENDMDL
MODEL 5
REMARK VINA RESULT:      -4.9      2.642      4.593
REMARK  5 active torsions:
REMARK  status: ('A' for Active; 'I' for Inactive)
REMARK    1  A    between atoms: C_22  and  N_10 
REMARK    2  A    between atoms: C_19  and  N_13 
REMARK    3  A    between atoms: N_14  and  C_26 
REMARK    4  A    between atoms: C_25  and  C_22 
REMARK    5  A    between atoms: C_26  and  C_25 
ROOT
ATOM      1  C   UNL d   1      52.458  33.621  53.377  0.00  0.00     0.173 A 
ATOM      2  C   UNL d   1      52.157  34.298  53.685  0.00  0.00     0.191 A 
ATOM      3  C   UNL d   1      51.043  34.226  52.807  0.00  0.00     0.722 A 
ATOM      4  N   UNL d   1      51.343  33.529  52.483  0.00  0.00    -0.131 N 
ATOM      5  N   UNL d   1      51.449  34.610  53.408  0.00  0.00    -0.042 NA
ATOM      6  N   UNL d   1      52.551  34.691  54.284  0.00  0.00    -0.240 N 
ATOM      7  N   UNL d   1      53.572  33.654  54.224  0.00  0.00    -0.223 N 
ATOM      8  C   UNL d   1      53.263  34.370  54.557  0.00  0.00     0.343 A 
ATOM      9  C   UNL d   1      53.161  33.278  53.626  0.00  0.00     0.288 A 
ATOM     10  N   UNL d   1      50.329  34.537  52.525  0.00  0.00    -0.139 N 
ATOM     11  C   UNL d   1      50.220  33.456  51.598  0.00  0.00     0.116 A 
ATOM     12  C   UNL d   1      49.919  34.153  51.922  0.00  0.00     0.100 A 
ATOM     13  O   UNL d   1      53.662  34.793  55.183  0.00  0.00    -0.245 OA
ATOM     14  O   UNL d   1      53.461  32.582  53.303  0.00  0.00    -0.265 OA
ATOM     15  C   UNL d   1      52.250  35.388  54.608  0.00  0.00     0.105 C 
ATOM     16  C   UNL d   1      54.273  33.341  54.495  0.00  0.00     0.107 C 
ATOM     17  C   UNL d   1      49.206  34.484  51.656  0.00  0.00     0.021 C 
ENDROOT
BRANCH  10  18
ATOM     18  C   UNL d   1      50.025  35.233  52.847  0.00  0.00     0.100 C 
BRANCH  18  19
ATOM     19  C   UNL d   1      49.219  35.293  53.035  0.00  0.00     0.039 C 
BRANCH  19  20
ATOM     20  C   UNL d   1      48.910  36.000  53.291  0.00  0.00     0.082 C 
BRANCH  20  21
ATOM     21  N   UNL d   1      48.154  36.029  53.612  0.00  0.00    -0.300 N 
ATOM     22  C   UNL d   1      47.503  36.119  53.115  0.00  0.00     0.100 A 
ATOM     23  C   UNL d   1      46.750  36.147  53.438  0.00  0.00     0.100 A 
ATOM     24  N   UNL d   1      46.648  36.086  54.249  0.00  0.00    -0.301 N 
ATOM     25  C   UNL d   1      47.299  35.996  54.737  0.00  0.00     0.100 A 
ATOM     26  C   UNL d   1      48.061  35.967  54.419  0.00  0.00     0.100 A 
BRANCH  24  27
ATOM     27  C   UNL d   1      45.893  36.114  54.572  0.00  0.00     0.064 A 
ATOM     28  C   UNL d   1      45.320  35.587  54.325  0.00  0.00     0.018 A 
ATOM     29  C   UNL d   1      44.567  35.610  54.642  0.00  0.00     0.002 A 
ATOM     30  C   UNL d   1      44.387  36.174  55.218  0.00  0.00     0.000 A 
ATOM     31  C   UNL d   1      44.966  36.709  55.470  0.00  0.00     0.002 A 
ATOM     32  C   UNL d   1      45.713  36.678  55.148  0.00  0.00     0.018 A 
ENDBRANCH  24  27
ENDBRANCH  20  21
ENDBRANCH  19  20
ENDBRANCH  18  19
ENDBRANCH  10  18
TORSDOF 5
ENDMDL
MODEL 6
REMARK VINA RESULT:      -4.3      1.963      3.619
REMARK  5 active torsions:
REMARK  status: ('A' for Active; 'I' for Inactive)
REMARK    1  A    between atoms: C_22  and  N_10 
REMARK    2  A    between atoms: C_19  and  N_13 
REMARK    3  A    between atoms: N_14  and  C_26 
REMARK    4  A    between atoms: C_25  and  C_22 
REMARK    5  A    between atoms: C_26  and  C_25 
ROOT
ATOM      1  C   UNL d   1      53.638  33.277  54.200  0.00  0.00     0.173 A 
ATOM      2  C   UNL d   1      53.137  33.894  54.307  0.00  0.00     0.191 A 
ATOM      3  C   UNL d   1      52.094  33.189  53.648  0.00  0.00     0.722 A 
ATOM      4  N   UNL d   1      52.601  32.548  53.533  0.00  0.00    -0.131 N 
ATOM      5  N   UNL d   1      52.363  33.862  54.035  0.00  0.00    -0.042 NA
ATOM      6  N   UNL d   1      53.390  34.571  54.691  0.00  0.00    -0.240 N 
ATOM      7  N   UNL d   1      54.693  33.935  54.842  0.00  0.00    -0.223 N 
ATOM      8  C   UNL d   1      54.172  34.594  54.961  0.00  0.00     0.343 A 
ATOM      9  C   UNL d   1      54.418  33.270  54.456  0.00  0.00     0.288 A 
ATOM     10  N   UNL d   1      51.314  33.153  53.373  0.00  0.00    -0.139 N 
ATOM     11  C   UNL d   1      51.550  31.838  52.868  0.00  0.00     0.116 A 
ATOM     12  C   UNL d   1      51.043  32.479  52.984  0.00  0.00     0.100 A 
ATOM     13  O   UNL d   1      54.420  35.307  55.360  0.00  0.00    -0.245 OA
ATOM     14  O   UNL d   1      54.923  32.630  54.341  0.00  0.00    -0.265 OA
ATOM     15  C   UNL d   1      52.884  35.212  54.807  0.00  0.00     0.105 C 
ATOM     16  C   UNL d   1      55.461  33.962  55.110  0.00  0.00     0.107 C 
ATOM     17  C   UNL d   1      50.257  32.466  52.717  0.00  0.00     0.021 C 
ENDROOT
BRANCH  10  18
ATOM     18  C   UNL d   1      50.805  33.792  53.487  0.00  0.00     0.100 C 
BRANCH  18  19
ATOM     19  C   UNL d   1      50.300  34.041  52.877  0.00  0.00     0.039 C 
BRANCH  19  20
ATOM     20  C   UNL d   1      50.142  34.832  52.774  0.00  0.00     0.082 C 
BRANCH  20  21
ATOM     21  N   UNL d   1      49.377  35.082  52.606  0.00  0.00    -0.300 N 
ATOM     22  C   UNL d   1      49.062  34.954  51.855  0.00  0.00     0.100 A 
ATOM     23  C   UNL d   1      48.300  35.204  51.690  0.00  0.00     0.100 A 
ATOM     24  N   UNL d   1      47.855  35.579  52.269  0.00  0.00    -0.301 N 
ATOM     25  C   UNL d   1      48.174  35.702  53.012  0.00  0.00     0.100 A 
ATOM     26  C   UNL d   1      48.941  35.453  53.186  0.00  0.00     0.100 A 
BRANCH  24  27
ATOM     27  C   UNL d   1      47.090  35.829  52.102  0.00  0.00     0.064 A 
ATOM     28  C   UNL d   1      46.712  36.356  52.598  0.00  0.00     0.018 A 
ATOM     29  C   UNL d   1      45.952  36.608  52.437  0.00  0.00     0.002 A 
ATOM     30  C   UNL d   1      45.564  36.326  51.765  0.00  0.00     0.000 A 
ATOM     31  C   UNL d   1      45.946  35.792  51.260  0.00  0.00     0.002 A 
ATOM     32  C   UNL d   1      46.703  35.546  51.429  0.00  0.00     0.018 A 
ENDBRANCH  24  27
ENDBRANCH  20  21
ENDBRANCH  19  20
ENDBRANCH  18  19
ENDBRANCH  10  18
TORSDOF 5
ENDMDL
