MODEL 1
REMARK VINA RESULT:      -8.4      0.000      0.000
REMARK  4 active torsions:
REMARK  status: ('A' for Active; 'I' for Inactive)
REMARK    1  A    between atoms: C_2  and  S_1 
REMARK    2  A    between atoms: N_5  and  S_1 
REMARK    3  A    between atoms: C_11  and  C_4 
REMARK    4  A    between atoms: C_9  and  N_5 
ROOT
ATOM      1  S   UNL d   1      53.504  31.769  53.839  0.00  0.00     0.287 S 
ATOM      2  O   UNL d   1      54.232  31.753  53.440  0.00  0.00    -0.198 OA
ATOM      3  O   UNL d   1      52.771  31.796  54.249  0.00  0.00    -0.198 OA
ENDROOT
BRANCH   1   4
ATOM      4  C   UNL d   1      53.263  31.060  53.482  0.00  0.00     0.125 A 
ATOM      5  C   UNL d   1      53.286  30.359  53.921  0.00  0.00     0.121 A 
ATOM      6  N   UNL d   1      53.513  30.189  54.692  0.00  0.00    -0.190 NA
ATOM      7  C   UNL d   1      53.045  29.647  53.564  0.00  0.00     0.110 A 
ATOM      8  S   UNL d   1      53.417  29.388  54.821  0.00  0.00     0.117 SA
ATOM      9  N   UNL d   1      53.128  29.054  54.124  0.00  0.00    -0.190 NA
ATOM     10  C   UNL d   1      52.787  29.642  52.788  0.00  0.00     0.021 A 
ATOM     11  C   UNL d   1      52.765  30.349  52.353  0.00  0.00     0.002 A 
ATOM     12  C   UNL d   1      53.004  31.055  52.706  0.00  0.00     0.015 A 
ENDBRANCH   1   4
BRANCH   1  13
ATOM     13  N   UNL d   1      53.747  32.476  54.194  0.00  0.00    -0.158 NA
BRANCH  13  14
ATOM     14  C   UNL d   1      53.619  33.044  54.227  0.00  0.00     0.100 A 
ATOM     15  C   UNL d   1      54.054  33.614  54.726  0.00  0.00     0.083 A 
ATOM     16  C   UNL d   1      53.764  34.377  54.673  0.00  0.00     0.014 A 
ATOM     17  C   UNL d   1      53.115  34.608  54.192  0.00  0.00     0.035 A 
ATOM     18  C   UNL d   1      52.732  34.039  53.737  0.00  0.00     0.008 A 
ATOM     19 BR   UNL d   1      52.864  35.408  54.181  0.00  0.00    -0.049 Br
ATOM     20  C   UNL d   1      53.004  33.229  53.764  0.00  0.00     0.021 A 
BRANCH  15  21
ATOM     21  C   UNL d   1      54.687  33.399  55.197  0.00  0.00     0.212 C 
ATOM     22  O   UNL d   1      55.482  33.499  54.916  0.00  0.00    -0.644 OA
ATOM     23  O   UNL d   1      54.551  33.085  55.945  0.00  0.00    -0.644 OA
ENDBRANCH  15  21
ENDBRANCH  13  14
ENDBRANCH   1  13
TORSDOF 4
ENDMDL
MODEL 2
REMARK VINA RESULT:      -8.0      1.957      4.160
REMARK  4 active torsions:
REMARK  status: ('A' for Active; 'I' for Inactive)
REMARK    1  A    between atoms: C_2  and  S_1 
REMARK    2  A    between atoms: N_5  and  S_1 
REMARK    3  A    between atoms: C_11  and  C_4 
REMARK    4  A    between atoms: C_9  and  N_5 
ROOT
ATOM      1  S   UNL d   1      53.707  32.828  54.004  0.00  0.00     0.287 S 
ATOM      2  O   UNL d   1      54.166  33.030  53.341  0.00  0.00    -0.198 OA
ATOM      3  O   UNL d   1      53.238  32.616  54.667  0.00  0.00    -0.198 OA
ENDROOT
BRANCH   1   4
ATOM      4  C   UNL d   1      54.081  33.404  54.470  0.00  0.00     0.125 A 
ATOM      5  C   UNL d   1      53.739  34.154  54.536  0.00  0.00     0.121 A 
ATOM      6  N   UNL d   1      53.058  34.488  54.220  0.00  0.00    -0.190 NA
ATOM      7  C   UNL d   1      54.113  34.733  55.003  0.00  0.00     0.110 A 
ATOM      8  S   UNL d   1      53.002  35.260  54.481  0.00  0.00     0.117 SA
ATOM      9  N   UNL d   1      53.654  35.410  54.965  0.00  0.00    -0.190 NA
ATOM     10  C   UNL d   1      54.811  34.560  55.392  0.00  0.00     0.021 A 
ATOM     11  C   UNL d   1      55.150  33.805  55.322  0.00  0.00     0.002 A 
ATOM     12  C   UNL d   1      54.779  33.231  54.859  0.00  0.00     0.015 A 
ENDBRANCH   1   4
BRANCH   1  13
ATOM     13  N   UNL d   1      53.336  32.255  53.537  0.00  0.00    -0.158 NA
BRANCH  13  14
ATOM     14  C   UNL d   1      53.248  31.680  53.493  0.00  0.00     0.100 A 
ATOM     15  C   UNL d   1      52.549  31.320  53.113  0.00  0.00     0.083 A 
ATOM     16  C   UNL d   1      52.561  30.502  53.126  0.00  0.00     0.014 A 
ATOM     17  C   UNL d   1      53.173  30.038  53.466  0.00  0.00     0.035 A 
ATOM     18  C   UNL d   1      53.815  30.417  53.815  0.00  0.00     0.008 A 
ATOM     19 BR   UNL d   1      53.126  29.202  53.447  0.00  0.00    -0.049 Br
ATOM     20  C   UNL d   1      53.842  31.272  53.823  0.00  0.00     0.021 A 
BRANCH  15  21
ATOM     21  C   UNL d   1      51.949  31.762  52.779  0.00  0.00     0.212 C 
ATOM     22  O   UNL d   1      51.213  31.863  53.191  0.00  0.00    -0.644 OA
ATOM     23  O   UNL d   1      52.060  32.111  52.042  0.00  0.00    -0.644 OA
ENDBRANCH  15  21
ENDBRANCH  13  14
ENDBRANCH   1  13
TORSDOF 4
ENDMDL
MODEL 3
REMARK VINA RESULT:      -8.0      1.477      2.201
REMARK  4 active torsions:
REMARK  status: ('A' for Active; 'I' for Inactive)
REMARK    1  A    between atoms: C_2  and  S_1 
REMARK    2  A    between atoms: N_5  and  S_1 
REMARK    3  A    between atoms: C_11  and  C_4 
REMARK    4  A    between atoms: C_9  and  N_5 
ROOT
ATOM      1  S   UNL d   1      52.845  32.219  53.280  0.00  0.00     0.287 S 
ATOM      2  O   UNL d   1      52.969  32.267  52.460  0.00  0.00    -0.198 OA
ATOM      3  O   UNL d   1      52.716  32.182  54.108  0.00  0.00    -0.198 OA
ENDROOT
BRANCH   1   4
ATOM      4  C   UNL d   1      53.195  31.467  53.315  0.00  0.00     0.125 A 
ATOM      5  C   UNL d   1      52.710  30.797  53.335  0.00  0.00     0.121 A 
ATOM      6  N   UNL d   1      51.894  30.696  53.329  0.00  0.00    -0.190 NA
ATOM      7  C   UNL d   1      53.060  30.042  53.370  0.00  0.00     0.110 A 
ATOM      8  S   UNL d   1      51.731  29.897  53.359  0.00  0.00     0.117 SA
ATOM      9  N   UNL d   1      52.451  29.494  53.384  0.00  0.00    -0.190 NA
ATOM     10  C   UNL d   1      53.874  29.966  53.384  0.00  0.00     0.021 A 
ATOM     11  C   UNL d   1      54.355  30.642  53.363  0.00  0.00     0.002 A 
ATOM     12  C   UNL d   1      54.009  31.390  53.329  0.00  0.00     0.015 A 
ENDBRANCH   1   4
BRANCH   1  13
ATOM     13  N   UNL d   1      52.497  32.969  53.242  0.00  0.00    -0.158 NA
BRANCH  13  14
ATOM     14  C   UNL d   1      52.560  33.517  53.429  0.00  0.00     0.100 A 
ATOM     15  C   UNL d   1      52.008  34.166  53.236  0.00  0.00     0.083 A 
ATOM     16  C   UNL d   1      52.223  34.882  53.568  0.00  0.00     0.014 A 
ATOM     17  C   UNL d   1      52.901  35.001  54.050  0.00  0.00     0.035 A 
ATOM     18  C   UNL d   1      53.395  34.363  54.208  0.00  0.00     0.008 A 
ATOM     19 BR   UNL d   1      53.066  35.761  54.361  0.00  0.00    -0.049 Br
ATOM     20  C   UNL d   1      53.207  33.595  53.880  0.00  0.00     0.021 A 
BRANCH  15  21
ATOM     21  C   UNL d   1      51.346  34.060  52.768  0.00  0.00     0.212 C 
ATOM     22  O   UNL d   1      50.608  33.831  53.119  0.00  0.00    -0.644 OA
ATOM     23  O   UNL d   1      51.398  34.176  51.955  0.00  0.00    -0.644 OA
ENDBRANCH  15  21
ENDBRANCH  13  14
ENDBRANCH   1  13
TORSDOF 4
ENDMDL
MODEL 4
REMARK VINA RESULT:      -7.3      2.235      3.844
REMARK  4 active torsions:
REMARK  status: ('A' for Active; 'I' for Inactive)
REMARK    1  A    between atoms: C_2  and  S_1 
REMARK    2  A    between atoms: N_5  and  S_1 
REMARK    3  A    between atoms: C_11  and  C_4 
REMARK    4  A    between atoms: C_9  and  N_5 
ROOT
ATOM      1  S   UNL d   1      52.334  32.947  53.085  0.00  0.00     0.287 S 
ATOM      2  O   UNL d   1      52.558  33.102  52.300  0.00  0.00    -0.198 OA
ATOM      3  O   UNL d   1      52.116  32.782  53.879  0.00  0.00    -0.198 OA
ENDROOT
BRANCH   1   4
ATOM      4  C   UNL d   1      51.717  33.501  53.046  0.00  0.00     0.125 A 
ATOM      5  C   UNL d   1      51.828  34.253  53.371  0.00  0.00     0.121 A 
ATOM      6  N   UNL d   1      52.462  34.607  53.757  0.00  0.00    -0.190 NA
ATOM      7  C   UNL d   1      51.211  34.809  53.332  0.00  0.00     0.110 A 
ATOM      8  S   UNL d   1      52.251  35.370  53.957  0.00  0.00     0.117 SA
ATOM      9  N   UNL d   1      51.478  35.494  53.695  0.00  0.00    -0.190 NA
ATOM     10  C   UNL d   1      50.501  34.613  52.976  0.00  0.00     0.021 A 
ATOM     11  C   UNL d   1      50.396  33.856  52.651  0.00  0.00     0.002 A 
ATOM     12  C   UNL d   1      51.008  33.304  52.689  0.00  0.00     0.015 A 
ENDBRANCH   1   4
BRANCH   1  13
ATOM     13  N   UNL d   1      52.950  32.395  53.122  0.00  0.00    -0.158 NA
BRANCH  13  14
ATOM     14  C   UNL d   1      53.061  31.833  53.228  0.00  0.00     0.100 A 
ATOM     15  C   UNL d   1      53.779  31.544  53.632  0.00  0.00     0.083 A 
ATOM     16  C   UNL d   1      53.799  30.730  53.712  0.00  0.00     0.014 A 
ATOM     17  C   UNL d   1      53.200  30.208  53.439  0.00  0.00     0.035 A 
ATOM     18  C   UNL d   1      52.538  30.521  53.063  0.00  0.00     0.008 A 
ATOM     19 BR   UNL d   1      53.279  29.382  53.551  0.00  0.00    -0.049 Br
ATOM     20  C   UNL d   1      52.477  31.369  52.959  0.00  0.00     0.021 A 
BRANCH  15  21
ATOM     21  C   UNL d   1      54.368  32.043  53.900  0.00  0.00     0.212 C 
ATOM     22  O   UNL d   1      54.402  32.261  54.721  0.00  0.00    -0.644 OA
ATOM     23  O   UNL d   1      54.928  32.335  53.372  0.00  0.00    -0.644 OA
ENDBRANCH  15  21
ENDBRANCH  13  14
ENDBRANCH   1  13
TORSDOF 4
ENDMDL
MODEL 5
REMARK VINA RESULT:      -7.0      2.937      4.377
REMARK  4 active torsions:
REMARK  status: ('A' for Active; 'I' for Inactive)
REMARK    1  A    between atoms: C_2  and  S_1 
REMARK    2  A    between atoms: N_5  and  S_1 
REMARK    3  A    between atoms: C_11  and  C_4 
REMARK    4  A    between atoms: C_9  and  N_5 
ROOT
ATOM      1  S   UNL d   1      51.156  33.857  53.022  0.00  0.00     0.287 S 
ATOM      2  O   UNL d   1      51.601  34.406  52.585  0.00  0.00    -0.198 OA
ATOM      3  O   UNL d   1      50.717  33.295  53.465  0.00  0.00    -0.198 OA
ENDROOT
BRANCH   1   4
ATOM      4  C   UNL d   1      50.467  34.314  52.945  0.00  0.00     0.125 A 
ATOM      5  C   UNL d   1      50.067  34.321  52.221  0.00  0.00     0.121 A 
ATOM      6  N   UNL d   1      50.206  33.950  51.501  0.00  0.00    -0.190 NA
ATOM      7  C   UNL d   1      49.377  34.779  52.142  0.00  0.00     0.110 A 
ATOM      8  S   UNL d   1      49.618  34.167  50.978  0.00  0.00     0.117 SA
ATOM      9  N   UNL d   1      49.106  34.679  51.375  0.00  0.00    -0.190 NA
ATOM     10  C   UNL d   1      49.098  35.217  52.775  0.00  0.00     0.021 A 
ATOM     11  C   UNL d   1      49.504  35.205  53.499  0.00  0.00     0.002 A 
ATOM     12  C   UNL d   1      50.189  34.751  53.577  0.00  0.00     0.015 A 
ENDBRANCH   1   4
BRANCH   1  13
ATOM     13  N   UNL d   1      51.844  33.403  53.098  0.00  0.00    -0.158 NA
BRANCH  13  14
ATOM     14  C   UNL d   1      52.319  33.336  53.429  0.00  0.00     0.100 A 
ATOM     15  C   UNL d   1      52.812  32.614  53.436  0.00  0.00     0.083 A 
ATOM     16  C   UNL d   1      53.446  32.662  53.950  0.00  0.00     0.014 A 
ATOM     17  C   UNL d   1      53.622  33.328  54.431  0.00  0.00     0.035 A 
ATOM     18  C   UNL d   1      53.132  33.988  54.395  0.00  0.00     0.008 A 
ATOM     19 BR   UNL d   1      54.288  33.315  54.939  0.00  0.00    -0.049 Br
ATOM     20  C   UNL d   1      52.456  33.980  53.870  0.00  0.00     0.021 A 
BRANCH  15  21
ATOM     21  C   UNL d   1      52.649  31.962  52.971  0.00  0.00     0.212 C 
ATOM     22  O   UNL d   1      52.179  31.325  53.279  0.00  0.00    -0.644 OA
ATOM     23  O   UNL d   1      52.942  31.924  52.203  0.00  0.00    -0.644 OA
ENDBRANCH  15  21
ENDBRANCH  13  14
ENDBRANCH   1  13
TORSDOF 4
ENDMDL
MODEL 6
REMARK VINA RESULT:      -6.9      3.119      4.218
REMARK  4 active torsions:
REMARK  status: ('A' for Active; 'I' for Inactive)
REMARK    1  A    between atoms: C_2  and  S_1 
REMARK    2  A    between atoms: N_5  and  S_1 
REMARK    3  A    between atoms: C_11  and  C_4 
REMARK    4  A    between atoms: C_9  and  N_5 
ROOT
ATOM      1  S   UNL d   1      51.352  34.281  53.060  0.00  0.00     0.287 S 
ATOM      2  O   UNL d   1      50.971  33.728  53.550  0.00  0.00    -0.198 OA
ATOM      3  O   UNL d   1      51.747  34.838  52.572  0.00  0.00    -0.198 OA
ENDROOT
BRANCH   1   4
ATOM      4  C   UNL d   1      50.687  34.339  52.566  0.00  0.00     0.125 A 
ATOM      5  C   UNL d   1      50.022  34.753  52.832  0.00  0.00     0.121 A 
ATOM      6  N   UNL d   1      49.854  35.152  53.531  0.00  0.00    -0.190 NA
ATOM      7  C   UNL d   1      49.355  34.813  52.338  0.00  0.00     0.110 A 
ATOM      8  S   UNL d   1      49.099  35.458  53.481  0.00  0.00     0.117 SA
ATOM      9  N   UNL d   1      48.791  35.248  52.744  0.00  0.00    -0.190 NA
ATOM     10  C   UNL d   1      49.359  34.466  51.598  0.00  0.00     0.021 A 
ATOM     11  C   UNL d   1      50.029  34.052  51.336  0.00  0.00     0.002 A 
ATOM     12  C   UNL d   1      50.691  33.992  51.826  0.00  0.00     0.015 A 
ENDBRANCH   1   4
BRANCH   1  13
ATOM     13  N   UNL d   1      52.013  34.220  53.554  0.00  0.00    -0.158 NA
BRANCH  13  14
ATOM     14  C   UNL d   1      52.509  33.923  53.627  0.00  0.00     0.100 A 
ATOM     15  C   UNL d   1      53.170  34.191  54.132  0.00  0.00     0.083 A 
ATOM     16  C   UNL d   1      53.802  33.672  54.139  0.00  0.00     0.014 A 
ATOM     17  C   UNL d   1      53.831  32.950  53.711  0.00  0.00     0.035 A 
ATOM     18  C   UNL d   1      53.187  32.733  53.247  0.00  0.00     0.008 A 
ATOM     19 BR   UNL d   1      54.510  32.460  53.760  0.00  0.00    -0.049 Br
ATOM     20  C   UNL d   1      52.505  33.248  53.212  0.00  0.00     0.021 A 
BRANCH  15  21
ATOM     21  C   UNL d   1      53.151  34.893  54.551  0.00  0.00     0.212 C 
ATOM     22  O   UNL d   1      53.387  35.619  54.180  0.00  0.00    -0.644 OA
ATOM     23  O   UNL d   1      52.900  34.892  55.335  0.00  0.00    -0.644 OA
ENDBRANCH  15  21
ENDBRANCH  13  14
ENDBRANCH   1  13
TORSDOF 4
ENDMDL
MODEL 7
REMARK VINA RESULT:      -6.5      1.938      2.439
REMARK  4 active torsions:
REMARK  status: ('A' for Active; 'I' for Inactive)
REMARK    1  A    between atoms: C_2  and  S_1 
REMARK    2  A    between atoms: N_5  and  S_1 
REMARK    3  A    between atoms: C_11  and  C_4 
REMARK    4  A    between atoms: C_9  and  N_5 
ROOT
ATOM      1  S   UNL d   1      52.360  32.435  53.181  0.00  0.00     0.287 S 
ATOM      2  O   UNL d   1      52.281  32.471  54.007  0.00  0.00    -0.198 OA
ATOM      3  O   UNL d   1      52.437  32.411  52.346  0.00  0.00    -0.198 OA
ENDROOT
BRANCH   1   4
ATOM      4  C   UNL d   1      52.573  31.634  53.210  0.00  0.00     0.125 A 
ATOM      5  C   UNL d   1      53.364  31.430  53.338  0.00  0.00     0.121 A 
ATOM      6  N   UNL d   1      54.045  31.877  53.452  0.00  0.00    -0.190 NA
ATOM      7  C   UNL d   1      53.579  30.627  53.367  0.00  0.00     0.110 A 
ATOM      8  S   UNL d   1      54.676  31.368  53.551  0.00  0.00     0.117 SA
ATOM      9  N   UNL d   1      54.387  30.596  53.499  0.00  0.00    -0.190 NA
ATOM     10  C   UNL d   1      53.012  30.045  53.271  0.00  0.00     0.021 A 
ATOM     11  C   UNL d   1      52.219  30.255  53.144  0.00  0.00     0.002 A 
ATOM     12  C   UNL d   1      52.006  31.052  53.114  0.00  0.00     0.015 A 
ENDBRANCH   1   4
BRANCH   1  13
ATOM     13  N   UNL d   1      52.148  33.235  53.155  0.00  0.00    -0.158 NA
BRANCH  13  14
ATOM     14  C   UNL d   1      51.691  33.589  53.081  0.00  0.00     0.100 A 
ATOM     15  C   UNL d   1      51.742  34.461  53.094  0.00  0.00     0.083 A 
ATOM     16  C   UNL d   1      51.020  34.828  52.976  0.00  0.00     0.014 A 
ATOM     17  C   UNL d   1      50.293  34.424  52.854  0.00  0.00     0.035 A 
ATOM     18  C   UNL d   1      50.289  33.601  52.850  0.00  0.00     0.008 A 
ATOM     19 BR   UNL d   1      49.586  34.859  52.740  0.00  0.00    -0.049 Br
ATOM     20  C   UNL d   1      51.023  33.178  52.969  0.00  0.00     0.021 A 
BRANCH  15  21
ATOM     21  C   UNL d   1      52.444  34.863  53.211  0.00  0.00     0.212 C 
ATOM     22  O   UNL d   1      52.676  35.096  53.994  0.00  0.00    -0.644 OA
ATOM     23  O   UNL d   1      52.926  35.040  52.568  0.00  0.00    -0.644 OA
ENDBRANCH  15  21
ENDBRANCH  13  14
ENDBRANCH   1  13
TORSDOF 4
ENDMDL
