MODEL 1
REMARK VINA RESULT:      -7.9      0.000      0.000
REMARK  6 active torsions:
REMARK  status: ('A' for Active; 'I' for Inactive)
REMARK    1  A    between atoms: C_4  and  C_1 
REMARK       I    between atoms: N_6  and  C_1 
REMARK    2  A    between atoms: C_7  and  C_4 
REMARK    3  A    between atoms: O_20  and  C_5 
REMARK    4  A    between atoms: C_8  and  N_6 
REMARK    5  A    between atoms: C_13  and  C_7 
REMARK    6  A    between atoms: O_21  and  C_10 
ROOT
ATOM      1  C   UNL d   1      50.686  34.297  52.699  0.00  0.00     0.076 C 
ENDROOT
BRANCH   1   2
ATOM      2  C   UNL d   1      50.084  34.424  52.182  0.00  0.00     0.328 C 
ATOM      3  N   UNL d   1      49.427  34.878  52.394  0.00  0.00    -0.365 NA
ATOM      4  O   UNL d   1      50.116  34.098  51.422  0.00  0.00    -0.251 OA
BRANCH   3   5
ATOM      5  C   UNL d   1      48.765  35.341  52.621  0.00  0.00     0.136 A 
ATOM      6  C   UNL d   1      48.181  35.524  52.073  0.00  0.00     0.044 A 
ATOM      7  C   UNL d   1      47.508  35.992  52.295  0.00  0.00     0.071 A 
ATOM      8 CL   UNL d   1      46.933  36.172  51.756  0.00  0.00    -0.081 Cl
ATOM      9  C   UNL d   1      47.465  36.254  53.082  0.00  0.00     0.069 A 
ATOM     10  C   UNL d   1      48.049  36.071  53.629  0.00  0.00     0.015 A 
ATOM     11 CL   UNL d   1      46.804  36.709  53.286  0.00  0.00    -0.082 Cl
ATOM     12  C   UNL d   1      48.702  35.617  53.415  0.00  0.00     0.033 A 
ENDBRANCH   3   5
ENDBRANCH   1   2
BRANCH   1  13
ATOM     13  C   UNL d   1      51.440  34.087  52.422  0.00  0.00     0.006 C 
BRANCH  13  14
ATOM     14  C   UNL d   1      52.021  33.858  52.961  0.00  0.00     0.002 A 
ATOM     15  C   UNL d   1      52.288  33.081  53.002  0.00  0.00     0.026 A 
ATOM     16  C   UNL d   1      52.870  32.865  53.546  0.00  0.00     0.116 A 
ATOM     17  C   UNL d   1      53.190  33.424  54.054  0.00  0.00     0.116 A 
ATOM     18  C   UNL d   1      52.927  34.220  54.023  0.00  0.00     0.026 A 
ATOM     19  C   UNL d   1      52.345  34.436  53.479  0.00  0.00     0.002 A 
BRANCH  16  20
ATOM     20  O   UNL d   1      53.134  32.074  53.579  0.00  0.00    -0.326 OA
ATOM     21  C   UNL d   1      52.848  31.526  53.039  0.00  0.00     0.181 C 
ENDBRANCH  16  20
BRANCH  17  22
ATOM     22  O   UNL d   1      53.769  33.209  54.596  0.00  0.00    -0.326 OA
ATOM     23  C   UNL d   1      54.075  33.787  55.115  0.00  0.00     0.181 C 
ENDBRANCH  17  22
ENDBRANCH  13  14
ENDBRANCH   1  13
TORSDOF 6
ENDMDL
MODEL 2
REMARK VINA RESULT:      -7.6      1.061      2.037
REMARK  6 active torsions:
REMARK  status: ('A' for Active; 'I' for Inactive)
REMARK    1  A    between atoms: C_4  and  C_1 
REMARK       I    between atoms: N_6  and  C_1 
REMARK    2  A    between atoms: C_7  and  C_4 
REMARK    3  A    between atoms: O_20  and  C_5 
REMARK    4  A    between atoms: C_8  and  N_6 
REMARK    5  A    between atoms: C_13  and  C_7 
REMARK    6  A    between atoms: O_21  and  C_10 
ROOT
ATOM      1  C   UNL d   1      51.421  33.756  53.022  0.00  0.00     0.076 C 
ENDROOT
BRANCH   1   2
ATOM      2  C   UNL d   1      51.095  34.491  53.055  0.00  0.00     0.328 C 
ATOM      3  N   UNL d   1      50.362  34.648  52.707  0.00  0.00    -0.365 NA
ATOM      4  O   UNL d   1      51.494  35.104  53.441  0.00  0.00    -0.251 OA
BRANCH   3   5
ATOM      5  C   UNL d   1      49.617  34.796  52.351  0.00  0.00     0.136 A 
ATOM      6  C   UNL d   1      49.051  35.242  52.744  0.00  0.00     0.044 A 
ATOM      7  C   UNL d   1      48.295  35.396  52.390  0.00  0.00     0.071 A 
ATOM      8 CL   UNL d   1      47.737  35.836  52.778  0.00  0.00    -0.081 Cl
ATOM      9  C   UNL d   1      48.152  35.081  51.636  0.00  0.00     0.069 A 
ATOM     10  C   UNL d   1      48.718  34.635  51.242  0.00  0.00     0.015 A 
ATOM     11 CL   UNL d   1      47.412  35.237  51.301  0.00  0.00    -0.082 Cl
ATOM     12  C   UNL d   1      49.452  34.485  51.585  0.00  0.00     0.033 A 
ENDBRANCH   3   5
ENDBRANCH   1   2
BRANCH   1  13
ATOM     13  C   UNL d   1      52.244  33.666  52.963  0.00  0.00     0.006 C 
BRANCH  13  14
ATOM     14  C   UNL d   1      52.589  32.946  53.172  0.00  0.00     0.002 A 
ATOM     15  C   UNL d   1      53.151  32.896  53.771  0.00  0.00     0.026 A 
ATOM     16  C   UNL d   1      53.488  32.171  53.971  0.00  0.00     0.116 A 
ATOM     17  C   UNL d   1      53.267  31.487  53.575  0.00  0.00     0.116 A 
ATOM     18  C   UNL d   1      52.695  31.523  52.963  0.00  0.00     0.026 A 
ATOM     19  C   UNL d   1      52.357  32.249  52.763  0.00  0.00     0.002 A 
BRANCH  16  20
ATOM     20  O   UNL d   1      54.058  32.132  54.580  0.00  0.00    -0.326 OA
ATOM     21  C   UNL d   1      54.201  32.791  55.048  0.00  0.00     0.181 C 
ENDBRANCH  16  20
BRANCH  17  22
ATOM     22  O   UNL d   1      53.603  30.765  53.775  0.00  0.00    -0.326 OA
ATOM     23  C   UNL d   1      53.299  30.067  53.432  0.00  0.00     0.181 C 
ENDBRANCH  17  22
ENDBRANCH  13  14
ENDBRANCH   1  13
TORSDOF 6
ENDMDL
MODEL 3
REMARK VINA RESULT:      -7.6      2.874      5.455
REMARK  6 active torsions:
REMARK  status: ('A' for Active; 'I' for Inactive)
REMARK    1  A    between atoms: C_4  and  C_1 
REMARK       I    between atoms: N_6  and  C_1 
REMARK    2  A    between atoms: C_7  and  C_4 
REMARK    3  A    between atoms: O_20  and  C_5 
REMARK    4  A    between atoms: C_8  and  N_6 
REMARK    5  A    between atoms: C_13  and  C_7 
REMARK    6  A    between atoms: O_21  and  C_10 
ROOT
ATOM      1  C   UNL d   1      50.917  34.400  52.829  0.00  0.00     0.076 C 
ENDROOT
BRANCH   1   2
ATOM      2  C   UNL d   1      51.606  34.048  52.610  0.00  0.00     0.328 C 
ATOM      3  N   UNL d   1      52.206  33.906  53.160  0.00  0.00    -0.365 NA
ATOM      4  O   UNL d   1      51.723  33.820  51.823  0.00  0.00    -0.251 OA
BRANCH   3   5
ATOM      5  C   UNL d   1      52.809  33.767  53.727  0.00  0.00     0.136 A 
ATOM      6  C   UNL d   1      53.096  33.008  53.848  0.00  0.00     0.044 A 
ATOM      7  C   UNL d   1      53.706  32.859  54.420  0.00  0.00     0.071 A 
ATOM      8 CL   UNL d   1      53.989  32.111  54.540  0.00  0.00    -0.081 Cl
ATOM      9  C   UNL d   1      53.997  33.508  54.848  0.00  0.00     0.069 A 
ATOM     10  C   UNL d   1      53.710  34.268  54.727  0.00  0.00     0.015 A 
ATOM     11 CL   UNL d   1      54.591  33.351  55.403  0.00  0.00    -0.082 Cl
ATOM     12  C   UNL d   1      53.119  34.413  54.172  0.00  0.00     0.033 A 
ENDBRANCH   3   5
ENDBRANCH   1   2
BRANCH   1  13
ATOM     13  C   UNL d   1      50.214  34.238  52.417  0.00  0.00     0.006 C 
BRANCH  13  14
ATOM     14  C   UNL d   1      49.557  34.724  52.531  0.00  0.00     0.002 A 
ATOM     15  C   UNL d   1      48.995  34.831  51.940  0.00  0.00     0.026 A 
ATOM     16  C   UNL d   1      48.342  35.320  52.065  0.00  0.00     0.116 A 
ATOM     17  C   UNL d   1      48.245  35.707  52.782  0.00  0.00     0.116 A 
ATOM     18  C   UNL d   1      48.811  35.607  53.393  0.00  0.00     0.026 A 
ATOM     19  C   UNL d   1      49.464  35.118  53.268  0.00  0.00     0.002 A 
BRANCH  16  20
ATOM     20  O   UNL d   1      47.777  35.421  51.459  0.00  0.00    -0.326 OA
ATOM     21  C   UNL d   1      47.846  34.994  50.762  0.00  0.00     0.181 C 
ENDBRANCH  16  20
BRANCH  17  22
ATOM     22  O   UNL d   1      47.595  36.194  52.907  0.00  0.00    -0.326 OA
ATOM     23  C   UNL d   1      47.489  36.546  53.656  0.00  0.00     0.181 C 
ENDBRANCH  17  22
ENDBRANCH  13  14
ENDBRANCH   1  13
TORSDOF 6
ENDMDL
MODEL 4
REMARK VINA RESULT:      -7.2      2.927      5.643
REMARK  6 active torsions:
REMARK  status: ('A' for Active; 'I' for Inactive)
REMARK    1  A    between atoms: C_4  and  C_1 
REMARK       I    between atoms: N_6  and  C_1 
REMARK    2  A    between atoms: C_7  and  C_4 
REMARK    3  A    between atoms: O_20  and  C_5 
REMARK    4  A    between atoms: C_8  and  N_6 
REMARK    5  A    between atoms: C_13  and  C_7 
REMARK    6  A    between atoms: O_21  and  C_10 
ROOT
ATOM      1  C   UNL d   1      51.418  33.969  52.645  0.00  0.00     0.076 C 
ENDROOT
BRANCH   1   2
ATOM      2  C   UNL d   1      52.177  33.926  52.907  0.00  0.00     0.328 C 
ATOM      3  N   UNL d   1      52.538  33.198  53.052  0.00  0.00    -0.365 NA
ATOM      4  O   UNL d   1      52.609  34.620  53.037  0.00  0.00    -0.251 OA
BRANCH   3   5
ATOM      5  C   UNL d   1      52.895  32.452  53.196  0.00  0.00     0.136 A 
ATOM      6  C   UNL d   1      52.508  31.760  52.982  0.00  0.00     0.044 A 
ATOM      7  C   UNL d   1      52.862  31.002  53.124  0.00  0.00     0.071 A 
ATOM      8 CL   UNL d   1      52.481  30.320  52.913  0.00  0.00    -0.081 Cl
ATOM      9  C   UNL d   1      53.610  30.988  53.485  0.00  0.00     0.069 A 
ATOM     10  C   UNL d   1      53.997  31.680  53.699  0.00  0.00     0.015 A 
ATOM     11 CL   UNL d   1      53.945  30.243  53.618  0.00  0.00    -0.082 Cl
ATOM     12  C   UNL d   1      53.654  32.416  53.561  0.00  0.00     0.033 A 
ENDBRANCH   3   5
ENDBRANCH   1   2
BRANCH   1  13
ATOM     13  C   UNL d   1      50.890  34.517  52.977  0.00  0.00     0.006 C 
BRANCH  13  14
ATOM     14  C   UNL d   1      50.168  34.661  52.604  0.00  0.00     0.002 A 
ATOM     15  C   UNL d   1      49.572  35.092  52.973  0.00  0.00     0.026 A 
ATOM     16  C   UNL d   1      48.855  35.230  52.590  0.00  0.00     0.116 A 
ATOM     17  C   UNL d   1      48.725  34.938  51.833  0.00  0.00     0.116 A 
ATOM     18  C   UNL d   1      49.325  34.497  51.446  0.00  0.00     0.026 A 
ATOM     19  C   UNL d   1      50.042  34.360  51.829  0.00  0.00     0.002 A 
BRANCH  16  20
ATOM     20  O   UNL d   1      48.257  35.668  52.973  0.00  0.00    -0.326 OA
ATOM     21  C   UNL d   1      48.407  36.011  53.704  0.00  0.00     0.181 C 
ENDBRANCH  16  20
BRANCH  17  22
ATOM     22  O   UNL d   1      48.011  35.075  51.452  0.00  0.00    -0.326 OA
ATOM     23  C   UNL d   1      47.908  34.798  50.672  0.00  0.00     0.181 C 
ENDBRANCH  17  22
ENDBRANCH  13  14
ENDBRANCH   1  13
TORSDOF 6
ENDMDL
MODEL 5
REMARK VINA RESULT:      -6.5      4.171      5.769
REMARK  6 active torsions:
REMARK  status: ('A' for Active; 'I' for Inactive)
REMARK    1  A    between atoms: C_4  and  C_1 
REMARK       I    between atoms: N_6  and  C_1 
REMARK    2  A    between atoms: C_7  and  C_4 
REMARK    3  A    between atoms: O_20  and  C_5 
REMARK    4  A    between atoms: C_8  and  N_6 
REMARK    5  A    between atoms: C_13  and  C_7 
REMARK    6  A    between atoms: O_21  and  C_10 
ROOT
ATOM      1  C   UNL d   1      52.645  32.290  53.354  0.00  0.00     0.076 C 
ENDROOT
BRANCH   1   2
ATOM      2  C   UNL d   1      52.685  31.598  52.947  0.00  0.00     0.328 C 
ATOM      3  N   UNL d   1      52.868  30.888  53.329  0.00  0.00    -0.365 NA
ATOM      4  O   UNL d   1      52.540  31.587  52.132  0.00  0.00    -0.251 OA
BRANCH   3   5
ATOM      5  C   UNL d   1      53.056  30.174  53.727  0.00  0.00     0.136 A 
ATOM      6  C   UNL d   1      53.035  30.140  54.547  0.00  0.00     0.044 A 
ATOM      7  C   UNL d   1      53.223  29.421  54.958  0.00  0.00     0.071 A 
ATOM      8 CL   UNL d   1      53.202  29.388  55.766  0.00  0.00    -0.081 Cl
ATOM      9  C   UNL d   1      53.427  28.760  54.500  0.00  0.00     0.069 A 
ATOM     10  C   UNL d   1      53.448  28.794  53.680  0.00  0.00     0.015 A 
ATOM     11 CL   UNL d   1      53.609  28.065  54.912  0.00  0.00    -0.082 Cl
ATOM     12  C   UNL d   1      53.266  29.491  53.281  0.00  0.00     0.033 A 
ENDBRANCH   3   5
ENDBRANCH   1   2
BRANCH   1  13
ATOM     13  C   UNL d   1      52.963  32.985  53.029  0.00  0.00     0.006 C 
BRANCH  13  14
ATOM     14  C   UNL d   1      53.064  33.648  53.511  0.00  0.00     0.002 A 
ATOM     15  C   UNL d   1      53.664  33.684  54.073  0.00  0.00     0.026 A 
ATOM     16  C   UNL d   1      53.754  34.352  54.548  0.00  0.00     0.116 A 
ATOM     17  C   UNL d   1      53.246  34.992  54.466  0.00  0.00     0.116 A 
ATOM     18  C   UNL d   1      52.630  34.968  53.897  0.00  0.00     0.026 A 
ATOM     19  C   UNL d   1      52.540  34.299  53.422  0.00  0.00     0.002 A 
BRANCH  16  20
ATOM     20  O   UNL d   1      54.366  34.378  55.115  0.00  0.00    -0.326 OA
ATOM     21  C   UNL d   1      54.898  33.756  55.170  0.00  0.00     0.181 C 
ENDBRANCH  16  20
BRANCH  17  22
ATOM     22  O   UNL d   1      53.336  35.656  54.940  0.00  0.00    -0.326 OA
ATOM     23  C   UNL d   1      52.835  36.312  54.818  0.00  0.00     0.181 C 
ENDBRANCH  17  22
ENDBRANCH  13  14
ENDBRANCH   1  13
TORSDOF 6
ENDMDL
MODEL 6
REMARK VINA RESULT:      -5.9      1.987      3.327
REMARK  6 active torsions:
REMARK  status: ('A' for Active; 'I' for Inactive)
REMARK    1  A    between atoms: C_4  and  C_1 
REMARK       I    between atoms: N_6  and  C_1 
REMARK    2  A    between atoms: C_7  and  C_4 
REMARK    3  A    between atoms: O_20  and  C_5 
REMARK    4  A    between atoms: C_8  and  N_6 
REMARK    5  A    between atoms: C_13  and  C_7 
REMARK    6  A    between atoms: O_21  and  C_10 
ROOT
ATOM      1  C   UNL d   1      52.859  32.721  53.676  0.00  0.00     0.076 C 
ENDROOT
BRANCH   1   2
ATOM      2  C   UNL d   1      52.812  33.450  53.338  0.00  0.00     0.328 C 
ATOM      3  N   UNL d   1      52.102  33.729  53.023  0.00  0.00    -0.365 NA
ATOM      4  O   UNL d   1      53.484  33.933  53.302  0.00  0.00    -0.251 OA
BRANCH   3   5
ATOM      5  C   UNL d   1      51.375  34.003  52.705  0.00  0.00     0.136 A 
ATOM      6  C   UNL d   1      50.810  34.341  53.197  0.00  0.00     0.044 A 
ATOM      7  C   UNL d   1      50.072  34.620  52.884  0.00  0.00     0.071 A 
ATOM      8 CL   UNL d   1      49.516  34.953  53.368  0.00  0.00    -0.081 Cl
ATOM      9  C   UNL d   1      49.946  34.538  52.067  0.00  0.00     0.069 A 
ATOM     10  C   UNL d   1      50.510  34.200  51.576  0.00  0.00     0.015 A 
ATOM     11 CL   UNL d   1      49.223  34.814  51.774  0.00  0.00    -0.082 Cl
ATOM     12  C   UNL d   1      51.227  33.929  51.879  0.00  0.00     0.033 A 
ENDBRANCH   3   5
ENDBRANCH   1   2
BRANCH   1  13
ATOM     13  C   UNL d   1      53.432  32.177  53.420  0.00  0.00     0.006 C 
BRANCH  13  14
ATOM     14  C   UNL d   1      53.375  31.389  53.657  0.00  0.00     0.002 A 
ATOM     15  C   UNL d   1      53.055  30.813  53.165  0.00  0.00     0.026 A 
ATOM     16  C   UNL d   1      53.004  30.028  53.413  0.00  0.00     0.116 A 
ATOM     17  C   UNL d   1      53.273  29.810  54.157  0.00  0.00     0.116 A 
ATOM     18  C   UNL d   1      53.602  30.387  54.670  0.00  0.00     0.026 A 
ATOM     19  C   UNL d   1      53.653  31.172  54.421  0.00  0.00     0.002 A 
BRANCH  16  20
ATOM     20  O   UNL d   1      52.677  29.452  52.906  0.00  0.00    -0.326 OA
ATOM     21  C   UNL d   1      52.754  29.534  52.092  0.00  0.00     0.181 C 
ENDBRANCH  16  20
BRANCH  17  22
ATOM     22  O   UNL d   1      53.222  29.029  54.405  0.00  0.00    -0.326 OA
ATOM     23  C   UNL d   1      53.349  28.849  55.210  0.00  0.00     0.181 C 
ENDBRANCH  17  22
ENDBRANCH  13  14
ENDBRANCH   1  13
TORSDOF 6
ENDMDL
