MODEL 1
REMARK VINA RESULT:      -5.1      0.000      0.000
REMARK  5 active torsions:
REMARK  status: ('A' for Active; 'I' for Inactive)
REMARK    1  A    between atoms: N_3  and  S_1 
REMARK    2  A    between atoms: C_5  and  S_1 
REMARK    3  A    between atoms: C_2  and  C_6 
REMARK       I    between atoms: N_4  and  C_2 
REMARK    4  A    between atoms: C_11  and  N_3 
REMARK    5  A    between atoms: O_18  and  C_14 
ROOT
ATOM      1  C   UNL d   1      59.315  -0.535  29.136  0.00  0.00     0.058 A 
ATOM      2  C   UNL d   1      59.128  -0.209  29.866  0.00  0.00     0.025 A 
ATOM      3  C   UNL d   1      58.531   0.357  29.935  0.00  0.00     0.094 A 
ATOM      4  C   UNL d   1      58.898  -0.291  28.455  0.00  0.00     0.005 A 
ATOM      5  C   UNL d   1      58.301   0.275  28.524  0.00  0.00     0.002 A 
ATOM      6  C   UNL d   1      58.114   0.601  29.258  0.00  0.00     0.020 A 
ENDROOT
BRANCH   3   7
ATOM      7  N   UNL d   1      58.345   0.682  30.665  0.00  0.00    -0.158 NA
BRANCH   7   8
ATOM      8  S   UNL d   1      57.809   0.311  31.165  0.00  0.00     0.285 S 
ATOM      9  O   UNL d   1      58.424   0.121  31.681  0.00  0.00    -0.198 OA
ATOM     10  O   UNL d   1      57.193   0.494  30.659  0.00  0.00    -0.198 OA
BRANCH   8  11
ATOM     11  C   UNL d   1      57.275  -0.063  31.669  0.00  0.00     0.107 A 
ATOM     12  C   UNL d   1      56.944   0.354  32.308  0.00  0.00     0.037 A 
ATOM     13  C   UNL d   1      56.415  -0.023  32.805  0.00  0.00     0.095 A 
ATOM     14  C   UNL d   1      56.211  -0.810  32.674  0.00  0.00     0.024 A 
ATOM     15  C   UNL d   1      56.532  -1.224  32.048  0.00  0.00     0.003 A 
ATOM     16  C   UNL d   1      57.066  -0.851  31.544  0.00  0.00     0.013 A 
BRANCH  13  17
ATOM     17  O   UNL d   1      56.081   0.392  33.448  0.00  0.00    -0.328 OA
ATOM     18  C   UNL d   1      55.249   0.498  33.496  0.00  0.00     0.181 C 
ENDBRANCH  13  17
ENDBRANCH   8  11
ENDBRANCH   7   8
ENDBRANCH   3   7
BRANCH   1  19
ATOM     19  C   UNL d   1      59.912  -1.099  29.076  0.00  0.00     0.265 C 
ATOM     20  N   UNL d   1      59.716  -1.904  29.065  0.00  0.00    -0.268 N 
ATOM     21  C   UNL d   1      60.314  -2.471  29.005  0.00  0.00     0.110 A 
ATOM     22  C   UNL d   1      58.930  -2.135  29.115  0.00  0.00     0.110 A 
ATOM     23  C   UNL d   1      60.116  -3.270  28.995  0.00  0.00     0.142 A 
ATOM     24  O   UNL d   1      59.330  -3.500  29.044  0.00  0.00    -0.300 OA
ATOM     25  C   UNL d   1      58.731  -2.943  29.105  0.00  0.00     0.142 A 
ATOM     26  O   UNL d   1      60.698  -0.867  29.026  0.00  0.00    -0.267 OA
ENDBRANCH   1  19
TORSDOF 5
ENDMDL
MODEL 2
REMARK VINA RESULT:      -4.9      1.245      5.149
REMARK  5 active torsions:
REMARK  status: ('A' for Active; 'I' for Inactive)
REMARK    1  A    between atoms: N_3  and  S_1 
REMARK    2  A    between atoms: C_5  and  S_1 
REMARK    3  A    between atoms: C_2  and  C_6 
REMARK       I    between atoms: N_4  and  C_2 
REMARK    4  A    between atoms: C_11  and  N_3 
REMARK    5  A    between atoms: O_18  and  C_14 
ROOT
ATOM      1  C   UNL d   1      56.756  -0.087  32.824  0.00  0.00     0.058 A 
ATOM      2  C   UNL d   1      57.062   0.416  32.252  0.00  0.00     0.025 A 
ATOM      3  C   UNL d   1      57.150   0.162  31.471  0.00  0.00     0.094 A 
ATOM      4  C   UNL d   1      56.532  -0.864  32.616  0.00  0.00     0.005 A 
ATOM      5  C   UNL d   1      56.620  -1.118  31.835  0.00  0.00     0.002 A 
ATOM      6  C   UNL d   1      56.927  -0.611  31.261  0.00  0.00     0.020 A 
ENDROOT
BRANCH   3   7
ATOM      7  N   UNL d   1      57.456   0.665  30.899  0.00  0.00    -0.158 NA
BRANCH   7   8
ATOM      8  S   UNL d   1      58.119   0.451  30.464  0.00  0.00     0.285 S 
ATOM      9  O   UNL d   1      57.638   0.291  29.813  0.00  0.00    -0.198 OA
ATOM     10  O   UNL d   1      58.603   0.607  31.103  0.00  0.00    -0.198 OA
BRANCH   8  11
ATOM     11  C   UNL d   1      58.781   0.235  30.023  0.00  0.00     0.107 A 
ATOM     12  C   UNL d   1      58.754  -0.435  29.531  0.00  0.00     0.037 A 
ATOM     13  C   UNL d   1      59.414  -0.643  29.096  0.00  0.00     0.095 A 
ATOM     14  C   UNL d   1      60.102  -0.192  29.145  0.00  0.00     0.024 A 
ATOM     15  C   UNL d   1      60.135   0.466  29.626  0.00  0.00     0.003 A 
ATOM     16  C   UNL d   1      59.473   0.682  30.067  0.00  0.00     0.013 A 
BRANCH  13  17
ATOM     17  O   UNL d   1      59.391  -1.315  28.601  0.00  0.00    -0.328 OA
ATOM     18  C   UNL d   1      60.056  -1.826  28.551  0.00  0.00     0.181 C 
ENDBRANCH  13  17
ENDBRANCH   8  11
ENDBRANCH   7   8
ENDBRANCH   3   7
BRANCH   1  19
ATOM     19  C   UNL d   1      56.671   0.174  33.600  0.00  0.00     0.265 C 
ATOM     20  N   UNL d   1      55.913   0.298  33.912  0.00  0.00    -0.268 N 
ATOM     21  C   UNL d   1      55.827   0.560  34.691  0.00  0.00     0.110 A 
ATOM     22  C   UNL d   1      55.252   0.160  33.445  0.00  0.00     0.110 A 
ATOM     23  C   UNL d   1      55.073   0.682  34.996  0.00  0.00     0.142 A 
ATOM     24  O   UNL d   1      54.412   0.544  34.529  0.00  0.00    -0.300 OA
ATOM     25  C   UNL d   1      54.490   0.284  33.755  0.00  0.00     0.142 A 
ATOM     26  O   UNL d   1      57.333   0.311  34.066  0.00  0.00    -0.267 OA
ENDBRANCH   1  19
TORSDOF 5
ENDMDL
MODEL 3
REMARK VINA RESULT:      -2.4      1.548      2.323
REMARK  5 active torsions:
REMARK  status: ('A' for Active; 'I' for Inactive)
REMARK    1  A    between atoms: N_3  and  S_1 
REMARK    2  A    between atoms: C_5  and  S_1 
REMARK    3  A    between atoms: C_2  and  C_6 
REMARK       I    between atoms: N_4  and  C_2 
REMARK    4  A    between atoms: C_11  and  N_3 
REMARK    5  A    between atoms: O_18  and  C_14 
ROOT
ATOM      1  C   UNL d   1      58.218  -0.427  29.870  0.00  0.00     0.058 A 
ATOM      2  C   UNL d   1      57.844   0.186  30.270  0.00  0.00     0.025 A 
ATOM      3  C   UNL d   1      57.350   0.031  30.912  0.00  0.00     0.094 A 
ATOM      4  C   UNL d   1      58.097  -1.215  30.117  0.00  0.00     0.005 A 
ATOM      5  C   UNL d   1      57.603  -1.370  30.760  0.00  0.00     0.002 A 
ATOM      6  C   UNL d   1      57.228  -0.754  31.160  0.00  0.00     0.020 A 
ENDROOT
BRANCH   3   7
ATOM      7  N   UNL d   1      56.977   0.644  31.311  0.00  0.00    -0.158 NA
BRANCH   7   8
ATOM      8  S   UNL d   1      56.911   0.633  32.130  0.00  0.00     0.285 S 
ATOM      9  O   UNL d   1      56.090   0.583  32.061  0.00  0.00    -0.198 OA
ATOM     10  O   UNL d   1      57.723   0.682  32.207  0.00  0.00    -0.198 OA
BRANCH   8  11
ATOM     11  C   UNL d   1      56.839   0.621  32.950  0.00  0.00     0.107 A 
ATOM     12  C   UNL d   1      56.086   0.602  33.303  0.00  0.00     0.037 A 
ATOM     13  C   UNL d   1      56.023   0.591  34.118  0.00  0.00     0.095 A 
ATOM     14  C   UNL d   1      56.699   0.599  34.587  0.00  0.00     0.024 A 
ATOM     15  C   UNL d   1      57.441   0.618  34.247  0.00  0.00     0.003 A 
ATOM     16  C   UNL d   1      57.513   0.629  33.427  0.00  0.00     0.013 A 
BRANCH  13  17
ATOM     17  O   UNL d   1      55.268   0.572  34.476  0.00  0.00    -0.328 OA
ATOM     18  C   UNL d   1      55.191   0.680  35.305  0.00  0.00     0.181 C 
ENDBRANCH  13  17
ENDBRANCH   8  11
ENDBRANCH   7   8
ENDBRANCH   3   7
BRANCH   1  19
ATOM     19  C   UNL d   1      58.709  -0.264  29.231  0.00  0.00     0.265 C 
ATOM     20  N   UNL d   1      59.502  -0.060  29.363  0.00  0.00    -0.268 N 
ATOM     21  C   UNL d   1      59.996   0.103  28.721  0.00  0.00     0.110 A 
ATOM     22  C   UNL d   1      59.792  -0.022  30.129  0.00  0.00     0.110 A 
ATOM     23  C   UNL d   1      60.782   0.305  28.856  0.00  0.00     0.142 A 
ATOM     24  O   UNL d   1      61.072   0.343  29.623  0.00  0.00    -0.300 OA
ATOM     25  C   UNL d   1      60.587   0.182  30.265  0.00  0.00     0.142 A 
ATOM     26  O   UNL d   1      58.418  -0.302  28.464  0.00  0.00    -0.267 OA
ENDBRANCH   1  19
TORSDOF 5
ENDMDL
