MODEL 1
REMARK VINA RESULT:      68.0      0.000      0.000
REMARK  4 active torsions:
REMARK  status: ('A' for Active; 'I' for Inactive)
REMARK    1  A    between atoms: C_4  and  S_1 
REMARK    2  A    between atoms: N_8  and  S_1 
REMARK    3  A    between atoms: C_5  and  C_11 
REMARK    4  A    between atoms: C_16  and  N_8 
ROOT
ATOM      1  C   UNL d   1     -51.022  26.515  33.627  0.00  0.00     0.021 A 
ATOM      2  C   UNL d   1     -50.265  27.637  34.112  0.00  0.00     0.094 A 
ATOM      3  C   UNL d   1     -50.359  26.823  34.034  0.00  0.00     0.021 A 
ATOM      4  C   UNL d   1     -51.578  27.026  33.307  0.00  0.00     0.002 A 
ATOM      5  C   UNL d   1     -51.492  27.850  33.381  0.00  0.00     0.002 A 
ATOM      6  C   UNL d   1     -50.829  28.159  33.788  0.00  0.00     0.020 A 
ENDROOT
BRANCH   2   7
ATOM      7  N   UNL d   1     -49.618  27.938  34.509  0.00  0.00    -0.158 NA
BRANCH   7   8
ATOM      8  S   UNL d   1     -48.864  27.655  34.343  0.00  0.00     0.287 S 
ATOM      9  O   UNL d   1     -49.185  27.042  33.911  0.00  0.00    -0.198 OA
ATOM     10  O   UNL d   1     -48.109  27.360  34.168  0.00  0.00    -0.198 OA
BRANCH   8  11
ATOM     11  C   UNL d   1     -48.531  28.271  34.776  0.00  0.00     0.133 A 
ATOM     12  C   UNL d   1     -48.367  28.164  35.576  0.00  0.00     0.155 A 
ATOM     13  C   UNL d   1     -48.035  28.773  36.015  0.00  0.00     0.060 A 
ATOM     14  F   UNL d   1     -48.536  27.444  35.941  0.00  0.00    -0.203 F 
ATOM     15  C   UNL d   1     -47.863  29.502  35.650  0.00  0.00     0.142 A 
ATOM     16  C   UNL d   1     -48.028  29.605  34.849  0.00  0.00     0.030 A 
ATOM     17  F   UNL d   1     -47.529  30.117  36.090  0.00  0.00    -0.204 F 
ATOM     18  C   UNL d   1     -48.359  28.997  34.415  0.00  0.00     0.018 A 
ENDBRANCH   8  11
ENDBRANCH   7   8
ENDBRANCH   2   7
BRANCH   1  19
ATOM     19  C   UNL d   1     -51.115  25.701  33.548  0.00  0.00     0.101 A 
ATOM     20  N   UNL d   1     -50.508  25.146  33.548  0.00  0.00    -0.221 NA
ATOM     21  C   UNL d   1     -50.844  24.392  33.455  0.00  0.00     0.179 A 
ATOM     22  S   UNL d   1     -50.687  23.595  33.398  0.00  0.00    -0.048 SA
ATOM     23  N   UNL d   1     -51.672  24.499  33.399  0.00  0.00    -0.282 N 
ATOM     24  C   UNL d   1     -51.403  23.193  33.306  0.00  0.00     0.057 A 
ATOM     25  C   UNL d   1     -52.015  23.750  33.306  0.00  0.00     0.089 A 
ATOM     26  C   UNL d   1     -51.826  25.311  33.458  0.00  0.00     0.101 A 
ENDBRANCH   1  19
TORSDOF 4
ENDMDL
MODEL 2
REMARK VINA RESULT:      68.5      2.528      4.046
REMARK  4 active torsions:
REMARK  status: ('A' for Active; 'I' for Inactive)
REMARK    1  A    between atoms: C_4  and  S_1 
REMARK    2  A    between atoms: N_8  and  S_1 
REMARK    3  A    between atoms: C_5  and  C_11 
REMARK    4  A    between atoms: C_16  and  N_8 
ROOT
ATOM      1  C   UNL d   1     -48.386  28.730  34.965  0.00  0.00     0.021 A 
ATOM      2  C   UNL d   1     -47.763  30.023  35.044  0.00  0.00     0.094 A 
ATOM      3  C   UNL d   1     -48.234  29.485  34.637  0.00  0.00     0.021 A 
ATOM      4  C   UNL d   1     -48.065  28.529  35.693  0.00  0.00     0.002 A 
ATOM      5  C   UNL d   1     -47.587  29.066  36.111  0.00  0.00     0.002 A 
ATOM      6  C   UNL d   1     -47.435  29.821  35.783  0.00  0.00     0.020 A 
ENDROOT
BRANCH   2   7
ATOM      7  N   UNL d   1     -47.613  30.760  34.724  0.00  0.00    -0.158 NA
BRANCH   7   8
ATOM      8  S   UNL d   1     -47.256  31.343  35.181  0.00  0.00     0.287 S 
ATOM      9  O   UNL d   1     -46.909  30.770  35.647  0.00  0.00    -0.198 OA
ATOM     10  O   UNL d   1     -46.890  31.921  35.648  0.00  0.00    -0.198 OA
BRANCH   8  11
ATOM     11  C   UNL d   1     -47.602  31.928  34.715  0.00  0.00     0.133 A 
ATOM     12  C   UNL d   1     -47.159  32.296  34.127  0.00  0.00     0.155 A 
ATOM     13  C   UNL d   1     -47.497  32.880  33.659  0.00  0.00     0.060 A 
ATOM     14  F   UNL d   1     -46.372  32.080  34.005  0.00  0.00    -0.203 F 
ATOM     15  C   UNL d   1     -48.291  33.101  33.779  0.00  0.00     0.142 A 
ATOM     16  C   UNL d   1     -48.731  32.729  34.370  0.00  0.00     0.030 A 
ATOM     17  F   UNL d   1     -48.633  33.688  33.310  0.00  0.00    -0.204 F 
ATOM     18  C   UNL d   1     -48.393  32.149  34.834  0.00  0.00     0.018 A 
ENDBRANCH   8  11
ENDBRANCH   7   8
ENDBRANCH   2   7
BRANCH   1  19
ATOM     19  C   UNL d   1     -48.858  28.192  34.559  0.00  0.00     0.101 A 
ATOM     20  N   UNL d   1     -49.541  28.373  34.139  0.00  0.00    -0.221 NA
ATOM     21  C   UNL d   1     -49.843  27.670  33.815  0.00  0.00     0.179 A 
ATOM     22  S   UNL d   1     -50.439  27.346  33.364  0.00  0.00    -0.048 SA
ATOM     23  N   UNL d   1     -49.327  27.054  34.047  0.00  0.00    -0.282 N 
ATOM     24  C   UNL d   1     -50.310  26.532  33.306  0.00  0.00     0.057 A 
ATOM     25  C   UNL d   1     -49.622  26.348  33.727  0.00  0.00     0.089 A 
ATOM     26  C   UNL d   1     -48.724  27.389  34.505  0.00  0.00     0.101 A 
ENDBRANCH   1  19
TORSDOF 4
ENDMDL
