MODEL 1
REMARK VINA RESULT:      60.0      0.000      0.000
REMARK  2 active torsions:
REMARK  status: ('A' for Active; 'I' for Inactive)
REMARK    1  A    between atoms: C_10  and  N_1 
REMARK    2  A    between atoms: C_13  and  C_10 
ROOT
ATOM      1  N   UNL d   1     -56.373 -99.406 -44.324  0.00  0.00    -0.260 N 
ATOM      2  C   UNL d   1     -56.664 -99.420 -45.087  0.00  0.00     0.174 A 
ATOM      3  C   UNL d   1     -56.700 -99.279 -43.584  0.00  0.00     0.348 A 
ATOM      4  N   UNL d   1     -57.442 -99.116 -43.308  0.00  0.00    -0.216 NA
ATOM      5  C   UNL d   1     -58.182 -99.009 -43.653  0.00  0.00     0.137 A 
ATOM      6  O   UNL d   1     -57.394 -99.316 -45.433  0.00  0.00    -0.316 OA
ATOM      7  C   UNL d   1     -57.210 -99.228 -44.075  0.00  0.00     0.079 A 
ATOM      8  C   UNL d   1     -58.465 -99.025 -44.413  0.00  0.00     0.022 A 
ATOM      9  C   UNL d   1     -58.141 -99.151 -45.145  0.00  0.00     0.094 A 
ATOM     10  O   UNL d   1     -56.149 -99.328 -42.995  0.00  0.00    -0.245 OA
ATOM     11  C   UNL d   1     -56.200 -99.566 -45.750  0.00  0.00     0.055 C 
ATOM     12  C   UNL d   1     -59.263 -98.869 -44.329  0.00  0.00    -0.001 A 
ATOM     13  C   UNL d   1     -58.627 -99.120 -45.811  0.00  0.00     0.024 A 
ATOM     14  C   UNL d   1     -59.740 -98.840 -44.992  0.00  0.00    -0.000 A 
ATOM     15  C   UNL d   1     -59.422 -98.966 -45.735  0.00  0.00     0.002 A 
ENDROOT
BRANCH   1  16
ATOM     16  C   UNL d   1     -55.581 -99.532 -44.093  0.00  0.00     0.082 C 
BRANCH  16  17
ATOM     17  C   UNL d   1     -55.290-100.328 -44.012  0.00  0.00     0.017 A 
ATOM     18  C   UNL d   1     -55.190-100.665 -43.245  0.00  0.00     0.002 A 
ATOM     19  C   UNL d   1     -54.899-101.460 -43.162  0.00  0.00     0.000 A 
ATOM     20  C   UNL d   1     -54.711-101.914 -43.849  0.00  0.00     0.000 A 
ATOM     21  C   UNL d   1     -54.813-101.573 -44.629  0.00  0.00     0.000 A 
ATOM     22  C   UNL d   1     -55.102-100.782 -44.699  0.00  0.00     0.002 A 
ENDBRANCH  16  17
ENDBRANCH   1  16
TORSDOF 2
ENDMDL
