MODEL 1
REMARK VINA RESULT:      -4.6      0.000      0.000
REMARK  5 active torsions:
REMARK  status: ('A' for Active; 'I' for Inactive)
REMARK    1  A    between atoms: C_2  and  S_1 
REMARK    2  A    between atoms: N_3  and  S_1 
REMARK    3  A    between atoms: C_5  and  C_6 
REMARK       I    between atoms: N_10  and  C_5 
REMARK    4  A    between atoms: C_22  and  N_10 
REMARK    5  A    between atoms: C_21  and  C_22 
ROOT
ATOM      1  C   UNL d   1      59.401  -1.041  29.535  0.00  0.00     0.104 A 
ATOM      2  C   UNL d   1      58.674  -0.750  29.796  0.00  0.00     0.018 A 
ATOM      3  C   UNL d   1      58.612   0.032  30.055  0.00  0.00     0.059 A 
ATOM      4  C   UNL d   1      60.065  -0.548  29.531  0.00  0.00     0.012 A 
ATOM      5  C   UNL d   1      59.274   0.522  30.051  0.00  0.00     0.005 A 
ATOM      6  C   UNL d   1      60.008   0.229  29.787  0.00  0.00     0.001 A 
ATOM      7  C   UNL d   1      60.796  -0.831  29.272  0.00  0.00     0.001 C 
ENDROOT
BRANCH   3   8
ATOM      8  C   UNL d   1      57.882   0.323  30.317  0.00  0.00     0.279 C 
ATOM      9  N   UNL d   1      57.728   0.386  31.124  0.00  0.00    -0.206 NA
ATOM     10  O   UNL d   1      57.306   0.553  29.764  0.00  0.00    -0.265 OA
BRANCH   9  11
ATOM     11  C   UNL d   1      56.992   0.680  31.380  0.00  0.00     0.102 C 
BRANCH  11  12
ATOM     12  C   UNL d   1      56.784   0.616  32.188  0.00  0.00     0.021 A 
ATOM     13  C   UNL d   1      55.990   0.486  32.403  0.00  0.00     0.028 A 
ATOM     14  C   UNL d   1      55.782   0.423  33.197  0.00  0.00     0.119 A 
ATOM     15  O   UNL d   1      55.061   0.298  33.574  0.00  0.00    -0.300 OA
ATOM     16  C   UNL d   1      56.362   0.489  33.778  0.00  0.00     0.119 A 
ATOM     17  C   UNL d   1      55.197   0.287  34.388  0.00  0.00     0.304 A 
ATOM     18  O   UNL d   1      55.996   0.404  34.520  0.00  0.00    -0.300 OA
ATOM     19  C   UNL d   1      57.156   0.619  33.563  0.00  0.00     0.026 A 
ATOM     20  C   UNL d   1      57.363   0.682  32.768  0.00  0.00     0.004 A 
ENDBRANCH  11  12
ENDBRANCH   9  11
ENDBRANCH   3   8
BRANCH   1  21
ATOM     21  S   UNL d   1      59.473  -1.832  29.272  0.00  0.00     0.271 S 
ATOM     22  O   UNL d   1      59.088  -1.621  28.560  0.00  0.00    -0.200 OA
ATOM     23  O   UNL d   1      59.853  -2.032  29.980  0.00  0.00    -0.200 OA
BRANCH  21  24
ATOM     24  N   UNL d   1      59.544  -2.618  29.009  0.00  0.00    -0.229 N 
ATOM     25  C   UNL d   1      58.874  -3.020  28.716  0.00  0.00     0.092 A 
ATOM     26  C   UNL d   1      58.943  -3.800  28.455  0.00  0.00     0.020 A 
ATOM     27  C   UNL d   1      59.674  -4.182  28.484  0.00  0.00     0.003 A 
ATOM     28  C   UNL d   1      60.338  -3.781  28.776  0.00  0.00     0.020 A 
ATOM     29  C   UNL d   1      60.272  -3.003  29.037  0.00  0.00     0.092 A 
ENDBRANCH  21  24
ENDBRANCH   1  21
TORSDOF 5
ENDMDL
