MODEL 1
REMARK VINA RESULT:      13.9      0.000      0.000
REMARK  2 active torsions:
REMARK  status: ('A' for Active; 'I' for Inactive)
REMARK    1  A    between atoms: C_5  and  CA_2 
REMARK    2  A    between atoms: C_4  and  CA_3 
ROOT
ATOM      1  N   UNL d   1      59.353  49.615  51.270  0.00  0.00    -0.233 NA
ATOM      2  CA  UNL d   1      60.176  49.599  51.221  0.00  0.00     0.146 A 
ATOM      3  CA  UNL d   1      58.896  49.669  50.590  0.00  0.00     0.146 A 
ATOM      4  C   UNL d   1      59.265  49.708  49.846  0.00  0.00     0.025 A 
ATOM      5  C   UNL d   1      60.545  49.637  50.477  0.00  0.00     0.025 A 
ATOM      6  C   UNL d   1      60.088  49.692  49.787  0.00  0.00     0.004 A 
ENDROOT
BRANCH   2   7
ATOM      7  C   UNL d   1      60.637  49.545  51.903  0.00  0.00     0.229 C 
ATOM      8  O   UNL d   1      61.433  49.343  51.853  0.00  0.00    -0.643 OA
ATOM      9  OXT UNL d   1      60.333  49.686  52.656  0.00  0.00    -0.643 OA
ENDBRANCH   2   7
BRANCH   3  10
ATOM     10  C   UNL d   1      58.077  49.686  50.641  0.00  0.00     0.229 C 
ATOM     11  O   UNL d   1      57.597  49.681  49.977  0.00  0.00    -0.643 OA
ATOM     12  OXT UNL d   1      57.685  49.708  51.382  0.00  0.00    -0.643 OA
ENDBRANCH   3  10
TORSDOF 2
ENDMDL
