MODEL 1
REMARK VINA RESULT:      55.5      0.000      0.000
REMARK  3 active torsions:
REMARK  status: ('A' for Active; 'I' for Inactive)
REMARK    1  A    between atoms: C_5  and  C_1 
REMARK    2  A    between atoms: C_4  and  C_6 
REMARK    3  A    between atoms: C_6  and  C_5 
ROOT
ATOM      1  C   UNL d   1     -49.653  27.040  33.558  0.00  0.00     0.068 C 
ENDROOT
BRANCH   1   2
ATOM      2  C   UNL d   1     -50.271  26.490  33.499  0.00  0.00     0.114 A 
ATOM      3  N   UNL d   1     -51.077  26.667  33.460  0.00  0.00    -0.238 NA
ATOM      4  C   UNL d   1     -51.490  25.952  33.406  0.00  0.00     0.088 A 
ATOM      5  C   UNL d   1     -52.296  25.785  33.353  0.00  0.00     0.020 A 
ATOM      6  C   UNL d   1     -50.943  25.334  33.413  0.00  0.00     0.049 A 
ATOM      7  C   UNL d   1     -52.555  25.002  33.306  0.00  0.00     0.002 A 
ATOM      8  C   UNL d   1     -52.002  24.392  33.312  0.00  0.00     0.001 A 
ATOM      9  C   UNL d   1     -51.199  24.559  33.366  0.00  0.00     0.008 A 
ATOM     10  S   UNL d   1     -50.185  25.671  33.470  0.00  0.00    -0.066 SA
ENDBRANCH   1   2
BRANCH   1  11
ATOM     11  C   UNL d   1     -49.830  27.839  33.692  0.00  0.00     0.201 C 
ATOM     12  O   UNL d   1     -50.522  28.174  33.388  0.00  0.00    -0.286 OA
BRANCH  11  13
ATOM     13  C   UNL d   1     -49.305  28.307  34.139  0.00  0.00     0.078 A 
ATOM     14  C   UNL d   1     -49.369  29.139  34.117  0.00  0.00     0.202 A 
ATOM     15  C   UNL d   1     -48.851  29.605  34.558  0.00  0.00     0.084 A 
ATOM     16  O   UNL d   1     -49.951  29.497  33.654  0.00  0.00    -0.286 OA
ATOM     17  C   UNL d   1     -48.268  29.238  35.021  0.00  0.00     0.199 A 
ATOM     18  C   UNL d   1     -48.205  28.415  35.042  0.00  0.00     0.042 A 
ATOM     19  O   UNL d   1     -47.750  29.705  35.462  0.00  0.00    -0.286 OA
ATOM     20  C   UNL d   1     -48.723  27.948  34.601  0.00  0.00     0.010 A 
ENDBRANCH  11  13
ENDBRANCH   1  11
TORSDOF 3
ENDMDL
MODEL 2
REMARK VINA RESULT:      56.1      1.729      4.642
REMARK  3 active torsions:
REMARK  status: ('A' for Active; 'I' for Inactive)
REMARK    1  A    between atoms: C_5  and  C_1 
REMARK    2  A    between atoms: C_4  and  C_6 
REMARK    3  A    between atoms: C_6  and  C_5 
ROOT
ATOM      1  C   UNL d   1     -50.886  26.729  34.104  0.00  0.00     0.068 C 
ENDROOT
BRANCH   1   2
ATOM      2  C   UNL d   1     -50.225  27.182  34.318  0.00  0.00     0.114 A 
ATOM      3  N   UNL d   1     -49.892  27.228  35.073  0.00  0.00    -0.238 NA
ATOM      4  C   UNL d   1     -49.244  27.741  35.031  0.00  0.00     0.088 A 
ATOM      5  C   UNL d   1     -48.707  27.997  35.604  0.00  0.00     0.020 A 
ATOM      6  C   UNL d   1     -49.175  28.011  34.254  0.00  0.00     0.049 A 
ATOM      7  C   UNL d   1     -48.103  28.521  35.400  0.00  0.00     0.002 A 
ATOM      8  C   UNL d   1     -48.041  28.786  34.621  0.00  0.00     0.001 A 
ATOM      9  C   UNL d   1     -48.576  28.531  34.053  0.00  0.00     0.008 A 
ATOM     10  S   UNL d   1     -49.786  27.662  33.812  0.00  0.00    -0.066 SA
ENDBRANCH   1   2
BRANCH   1  11
ATOM     11  C   UNL d   1     -50.781  26.036  33.661  0.00  0.00     0.201 C 
ATOM     12  O   UNL d   1     -50.052  25.870  33.307  0.00  0.00    -0.286 OA
BRANCH  11  13
ATOM     13  C   UNL d   1     -51.416  25.505  33.572  0.00  0.00     0.078 A 
ATOM     14  C   UNL d   1     -51.268  24.684  33.541  0.00  0.00     0.202 A 
ATOM     15  C   UNL d   1     -51.895  24.155  33.453  0.00  0.00     0.084 A 
ATOM     16  O   UNL d   1     -50.496  24.400  33.599  0.00  0.00    -0.286 OA
ATOM     17  C   UNL d   1     -52.669  24.447  33.396  0.00  0.00     0.199 A 
ATOM     18  C   UNL d   1     -52.815  25.260  33.426  0.00  0.00     0.042 A 
ATOM     19  O   UNL d   1     -53.296  23.917  33.308  0.00  0.00    -0.286 OA
ATOM     20  C   UNL d   1     -52.188  25.789  33.514  0.00  0.00     0.010 A 
ENDBRANCH  11  13
ENDBRANCH   1  11
TORSDOF 3
ENDMDL
