MODEL 1
REMARK VINA RESULT:       8.7      0.000      0.000
REMARK  0 active torsions:
REMARK  status: ('A' for Active; 'I' for Inactive)
ROOT
ATOM      1  N   UNL d   1     -59.713 -98.765 -44.315  0.00  0.00    -0.152 NA
ATOM      2  C   UNL d   1     -59.183 -98.762 -44.940  0.00  0.00     0.284 A 
ATOM      3  C   UNL d   1     -59.428 -98.764 -43.530  0.00  0.00     0.371 A 
ATOM      4  C   UNL d   1     -58.369 -98.760 -44.797  0.00  0.00     0.076 A 
ATOM      5  N   UNL d   1     -58.614 -98.762 -43.386  0.00  0.00    -0.191 NA
ATOM      6  C   UNL d   1     -58.083 -98.760 -44.023  0.00  0.00     0.091 A 
ATOM      7  O   UNL d   1     -59.464 -98.762 -45.717  0.00  0.00    -0.265 OA
ATOM      8  O   UNL d   1     -59.960 -98.767 -42.899  0.00  0.00    -0.242 OA
ATOM      9  C   UNL d   1     -57.842 -98.758 -45.432  0.00  0.00     0.006 A 
ATOM     10  C   UNL d   1     -57.270 -98.757 -43.883  0.00  0.00     0.019 A 
ATOM     11  C   UNL d   1     -57.029 -98.755 -45.292  0.00  0.00     0.000 A 
ATOM     12  C   UNL d   1     -56.743 -98.755 -44.518  0.00  0.00     0.002 A 
ENDROOT
TORSDOF 0
ENDMDL
MODEL 2
REMARK VINA RESULT:      10.8      1.276      2.474
REMARK  0 active torsions:
REMARK  status: ('A' for Active; 'I' for Inactive)
ROOT
ATOM      1  N   UNL d   1     -57.986 -98.756 -45.188  0.00  0.00    -0.152 NA
ATOM      2  C   UNL d   1     -57.863 -98.756 -44.378  0.00  0.00     0.284 A 
ATOM      3  C   UNL d   1     -58.765 -98.756 -45.490  0.00  0.00     0.371 A 
ATOM      4  C   UNL d   1     -58.507 -98.756 -43.858  0.00  0.00     0.076 A 
ATOM      5  N   UNL d   1     -59.408 -98.756 -44.970  0.00  0.00    -0.191 NA
ATOM      6  C   UNL d   1     -59.278 -98.756 -44.152  0.00  0.00     0.091 A 
ATOM      7  O   UNL d   1     -57.093 -98.756 -44.079  0.00  0.00    -0.265 OA
ATOM      8  O   UNL d   1     -58.891 -98.756 -46.306  0.00  0.00    -0.242 OA
ATOM      9  C   UNL d   1     -58.374 -98.755 -43.044  0.00  0.00     0.006 A 
ATOM     10  C   UNL d   1     -59.918 -98.755 -43.631  0.00  0.00     0.019 A 
ATOM     11  C   UNL d   1     -59.014 -98.755 -42.524  0.00  0.00     0.000 A 
ATOM     12  C   UNL d   1     -59.785 -98.755 -42.817  0.00  0.00     0.002 A 
ENDROOT
TORSDOF 0
ENDMDL
