MODEL 1
REMARK VINA RESULT:     114.3      0.000      0.000
REMARK  3 active torsions:
REMARK  status: ('A' for Active; 'I' for Inactive)
REMARK    1  A    between atoms: N_11  and  C_4 
REMARK    2  A    between atoms: C_18  and  N_15 
REMARK    3  A    between atoms: C_22  and  C_18 
ROOT
ATOM      1  N   UNL d   1      59.901  48.636  50.668  0.00  0.00    -0.195 N 
ATOM      2  C   UNL d   1      59.351  48.995  51.141  0.00  0.00     0.168 A 
ATOM      3  C   UNL d   1      58.624  49.168  50.861  0.00  0.00     0.073 A 
ATOM      4  C   UNL d   1      60.622  48.471  50.964  0.00  0.00     0.153 A 
ATOM      5  N   UNL d   1      58.999  48.621  49.632  0.00  0.00    -0.143 NA
ATOM      6  C   UNL d   1      58.449  48.980  50.105  0.00  0.00     0.185 A 
ATOM      7  N   UNL d   1      59.536  49.180  51.899  0.00  0.00    -0.227 NA
ATOM      8  C   UNL d   1      58.079  49.523  51.330  0.00  0.00     0.007 A 
ATOM      9  N   UNL d   1      57.716  49.149  49.807  0.00  0.00    -0.225 NA
ATOM     10  C   UNL d   1      60.810  48.652  51.714  0.00  0.00     0.057 A 
ATOM     11  C   UNL d   1      57.351  49.696  51.049  0.00  0.00     0.019 A 
ATOM     12  C   UNL d   1      60.261  49.010  52.187  0.00  0.00     0.086 A 
ATOM     13  C   UNL d   1      57.166  49.508  50.280  0.00  0.00     0.083 A 
ATOM     14  C   UNL d   1      58.267  49.707  52.090  0.00  0.00     0.000 C 
ATOM     15  C   UNL d   1      60.457  49.201  52.974  0.00  0.00     0.021 C 
ATOM     16  C   UNL d   1      56.444  49.677  49.995  0.00  0.00     0.021 C 
ENDROOT
BRANCH   4  17
ATOM     17  N   UNL d   1      61.185  48.101  50.470  0.00  0.00    -0.286 N 
ATOM     18  C   UNL d   1      61.009  47.302  50.569  0.00  0.00     0.101 A 
ATOM     19  C   UNL d   1      61.461  46.729  50.155  0.00  0.00     0.100 A 
ATOM     20  N   UNL d   1      62.083  46.957  49.646  0.00  0.00    -0.300 N 
ATOM     21  C   UNL d   1      62.254  47.772  49.553  0.00  0.00     0.100 A 
ATOM     22  C   UNL d   1      61.806  48.348  49.963  0.00  0.00     0.101 A 
BRANCH  20  23
ATOM     23  C   UNL d   1      62.525  46.386  49.241  0.00  0.00     0.080 C 
BRANCH  23  24
ATOM     24  C   UNL d   1      62.301  45.580  49.271  0.00  0.00     0.018 A 
ATOM     25  C   UNL d   1      61.644  45.325  48.841  0.00  0.00     0.002 A 
ATOM     26  C   UNL d   1      61.410  44.525  48.863  0.00  0.00     0.000 A 
ATOM     27  C   UNL d   1      61.843  43.979  49.323  0.00  0.00     0.000 A 
ATOM     28  C   UNL d   1      62.509  44.240  49.758  0.00  0.00     0.000 A 
ATOM     29  C   UNL d   1      62.732  45.041  49.728  0.00  0.00     0.002 A 
ENDBRANCH  23  24
ENDBRANCH  20  23
ENDBRANCH   4  17
TORSDOF 3
ENDMDL
