MODEL 1
REMARK VINA RESULT:      40.7      0.000      0.000
REMARK  5 active torsions:
REMARK  status: ('A' for Active; 'I' for Inactive)
REMARK    1  A    between atoms: C_2  and  C_1 
REMARK       I    between atoms: N_3  and  C_2 
REMARK    2  A    between atoms: C_6  and  N_3 
REMARK    3  A    between atoms: O_15  and  C_5 
REMARK    4  A    between atoms: O_17  and  C_11 
REMARK    5  A    between atoms: O_18  and  C_14 
ROOT
ATOM      1  C   UNL d   1      14.063  13.372  -2.129  0.00  0.00     0.281 C 
ATOM      2  N   UNL d   1      14.884  13.316  -1.965  0.00  0.00    -0.206 NA
ATOM      3  O   UNL d   1      13.583  13.810  -1.648  0.00  0.00    -0.265 OA
ENDROOT
BRANCH   1   4
ATOM      4  C   UNL d   1      13.745  12.973  -2.789  0.00  0.00     0.080 A 
ATOM      5  C   UNL d   1      13.711  13.336  -3.519  0.00  0.00     0.007 A 
ATOM      6  C   UNL d   1      13.400  12.961  -4.188  0.00  0.00     0.000 A 
ATOM      7  C   UNL d   1      13.370  13.324  -4.899  0.00  0.00     0.000 A 
ATOM      8  C   UNL d   1      13.108  12.172  -4.109  0.00  0.00     0.002 A 
ATOM      9  C   UNL d   1      13.061  12.949  -5.561  0.00  0.00     0.000 A 
ATOM     10  C   UNL d   1      12.769  12.160  -5.483  0.00  0.00     0.000 A 
ATOM     11  C   UNL d   1      12.799  11.779  -4.745  0.00  0.00     0.000 A 
ATOM     12  C   UNL d   1      13.140  11.791  -3.364  0.00  0.00     0.024 A 
ATOM     13  C   UNL d   1      13.454  12.184  -2.710  0.00  0.00     0.099 A 
BRANCH  13  14
ATOM     14  O   UNL d   1      13.484  11.804  -1.972  0.00  0.00    -0.328 OA
ATOM     15  C   UNL d   1      12.796  11.781  -1.482  0.00  0.00     0.181 C 
ENDBRANCH  13  14
ENDBRANCH   1   4
BRANCH   2  16
ATOM     16  C   UNL d   1      15.202  13.714  -1.305  0.00  0.00     0.109 A 
ATOM     17  C   UNL d   1      15.038  14.501  -1.214  0.00  0.00     0.045 A 
ATOM     18  C   UNL d   1      15.357  14.874  -0.563  0.00  0.00     0.096 A 
ATOM     19  C   UNL d   1      15.826  14.480  -0.016  0.00  0.00     0.026 A 
ATOM     20  C   UNL d   1      15.975  13.694  -0.127  0.00  0.00     0.028 A 
ATOM     21  C   UNL d   1      15.678  13.295  -0.756  0.00  0.00     0.112 A 
BRANCH  18  22
ATOM     22  O   UNL d   1      15.201  15.691  -0.446  0.00  0.00    -0.328 OA
ATOM     23  C   UNL d   1      15.531  16.229  -0.937  0.00  0.00     0.181 C 
ENDBRANCH  18  22
BRANCH  21  24
ATOM     24  O   UNL d   1      15.849  12.473  -0.852  0.00  0.00    -0.327 OA
ATOM     25  C   UNL d   1      16.082  12.024  -0.202  0.00  0.00     0.181 C 
ENDBRANCH  21  24
ENDBRANCH   2  16
TORSDOF 5
ENDMDL
