MODEL 1
REMARK VINA RESULT:     130.1      0.000      0.000
REMARK  2 active torsions:
REMARK  status: ('A' for Active; 'I' for Inactive)
REMARK    1  A    between atoms: N_10  and  C_3 
REMARK    2  A    between atoms: C_11  and  C_5 
ROOT
ATOM      1  N   UNL d   1     -57.682 -98.928 -43.638  0.00  0.00    -0.196 N 
ATOM      2  C   UNL d   1     -56.956 -98.897 -43.237  0.00  0.00     0.167 A 
ATOM      3  C   UNL d   1     -57.686 -98.907 -44.459  0.00  0.00     0.152 A 
ATOM      4  N   UNL d   1     -58.356 -98.997 -42.403  0.00  0.00    -0.163 NA
ATOM      5  C   UNL d   1     -56.931 -98.916 -42.429  0.00  0.00     0.055 A 
ATOM      6  N   UNL d   1     -56.250 -98.846 -43.666  0.00  0.00    -0.227 NA
ATOM      7  C   UNL d   1     -56.991 -98.857 -44.885  0.00  0.00     0.052 A 
ATOM      8  C   UNL d   1     -57.635 -98.967 -42.004  0.00  0.00     0.104 A 
ATOM      9  C   UNL d   1     -56.269 -98.826 -44.486  0.00  0.00     0.086 A 
ATOM     10  C   UNL d   1     -57.017 -98.837 -45.713  0.00  0.00     0.004 A 
ATOM     11  C   UNL d   1     -57.623 -98.987 -41.198  0.00  0.00     0.023 C 
ATOM     12  C   UNL d   1     -55.566 -98.776 -44.911  0.00  0.00     0.019 A 
ATOM     13  C   UNL d   1     -56.300 -98.786 -46.140  0.00  0.00     0.000 A 
ATOM     14  C   UNL d   1     -55.579 -98.755 -45.742  0.00  0.00     0.002 A 
ENDROOT
BRANCH   3  15
ATOM     15  N   UNL d   1     -58.421 -98.938 -44.870  0.00  0.00    -0.285 N 
ATOM     16  C   UNL d   1     -59.150 -99.006 -44.440  0.00  0.00     0.108 A 
ATOM     17  C   UNL d   1     -59.879 -99.036 -44.852  0.00  0.00     0.142 A 
ATOM     18  O   UNL d   1     -59.898 -98.999 -45.704  0.00  0.00    -0.300 OA
ATOM     19  C   UNL d   1     -59.166 -98.932 -46.123  0.00  0.00     0.142 A 
ATOM     20  C   UNL d   1     -58.436 -98.901 -45.711  0.00  0.00     0.108 A 
ENDBRANCH   3  15
BRANCH   5  21
ATOM     21  C   UNL d   1     -56.209 -98.886 -42.030  0.00  0.00     0.004 A 
ATOM     22  C   UNL d   1     -55.518 -98.839 -42.458  0.00  0.00     0.000 A 
ATOM     23  C   UNL d   1     -54.796 -98.809 -42.059  0.00  0.00     0.000 A 
ATOM     24  C   UNL d   1     -54.777 -98.825 -41.239  0.00  0.00     0.000 A 
ATOM     25  C   UNL d   1     -55.479 -98.872 -40.818  0.00  0.00     0.000 A 
ATOM     26  C   UNL d   1     -56.201 -98.903 -41.217  0.00  0.00     0.000 A 
ENDBRANCH   5  21
TORSDOF 2
ENDMDL
