MODEL 1
REMARK VINA RESULT:      11.4      0.000      0.000
REMARK  3 active torsions:
REMARK  status: ('A' for Active; 'I' for Inactive)
REMARK    1  A    between atoms: C_6  and  N_1 
REMARK    2  A    between atoms: C_11  and  C_6 
REMARK    3  A    between atoms: C_9  and  C_11 
ROOT
ATOM      1  N   UNL d   1      46.317 -17.751  43.766  0.00  0.00    -0.240 N 
ATOM      2  C   UNL d   1      46.401 -17.875  42.960  0.00  0.00     0.267 A 
ATOM      3  C   UNL d   1      46.314 -18.489  44.132  0.00  0.00     0.267 A 
ATOM      4  C   UNL d   1      46.450 -18.684  42.825  0.00  0.00     0.061 A 
ATOM      5  C   UNL d   1      46.396 -19.066  43.554  0.00  0.00     0.061 A 
ATOM      6  O   UNL d   1      46.431 -17.250  42.382  0.00  0.00    -0.267 OA
ATOM      7  O   UNL d   1      46.238 -18.598  44.955  0.00  0.00    -0.267 OA
ATOM      8  C   UNL d   1      46.428 -19.866  43.586  0.00  0.00     0.005 A 
ATOM      9  C   UNL d   1      46.536 -19.108  42.139  0.00  0.00     0.005 A 
ATOM     10  C   UNL d   1      46.569 -19.942  42.175  0.00  0.00     0.000 A 
ATOM     11  C   UNL d   1      46.515 -20.323  42.904  0.00  0.00     0.000 A 
ENDROOT
BRANCH   1  12
ATOM     12  C   UNL d   1      46.248 -17.021  44.143  0.00  0.00     0.086 C 
BRANCH  12  13
ATOM     13  C   UNL d   1      45.552 -16.575  44.073  0.00  0.00     0.019 C 
BRANCH  13  14
ATOM     14  C   UNL d   1      45.539 -15.803  44.364  0.00  0.00     0.002 A 
ATOM     15  C   UNL d   1      46.214 -15.361  44.390  0.00  0.00     0.000 A 
ATOM     16  C   UNL d   1      46.198 -14.577  44.685  0.00  0.00     0.000 A 
ATOM     17  C   UNL d   1      45.483 -14.251  44.955  0.00  0.00     0.000 A 
ATOM     18  C   UNL d   1      44.811 -14.699  44.926  0.00  0.00     0.000 A 
ATOM     19  C   UNL d   1      44.821 -15.480  44.632  0.00  0.00     0.000 A 
ENDBRANCH  13  14
ENDBRANCH  12  13
ENDBRANCH   1  12
TORSDOF 3
ENDMDL
