MODEL 1
REMARK VINA RESULT:      18.8      0.000      0.000
REMARK  2 active torsions:
REMARK  status: ('A' for Active; 'I' for Inactive)
REMARK    1  A    between atoms: O_3  and  C_1 
REMARK       I    between atoms: N_6  and  C_1 
REMARK    2  A    between atoms: C_5  and  O_3 
ROOT
ATOM      1  C   UNL d   1      14.363  12.407  -1.965  0.00  0.00     0.105 A 
ATOM      2  C   UNL d   1      14.179  12.267  -1.176  0.00  0.00     0.030 A 
ATOM      3  C   UNL d   1      13.804  12.233  -2.564  0.00  0.00     0.122 A 
ATOM      4  N   UNL d   1      15.104  12.721  -2.171  0.00  0.00    -0.242 NA
ATOM      5  C   UNL d   1      13.441  11.954  -0.972  0.00  0.00     0.059 A 
ATOM      6  C   UNL d   1      13.072  11.923  -2.361  0.00  0.00     0.027 A 
ATOM      7  C   UNL d   1      12.881  11.780  -1.572  0.00  0.00     0.013 A 
ATOM      8 CL   UNL d   1      13.250  11.811  -0.177  0.00  0.00    -0.082 Cl
ATOM      9  C   UNL d   1      14.729  12.438  -0.585  0.00  0.00     0.004 A 
ATOM     10  C   UNL d   1      15.655  12.892  -1.581  0.00  0.00     0.099 A 
ATOM     11  C   UNL d   1      15.465  12.749  -0.785  0.00  0.00     0.021 A 
ENDROOT
BRANCH   3  12
ATOM     12  O   UNL d   1      13.989  12.375  -3.365  0.00  0.00    -0.257 OA
BRANCH  12  13
ATOM     13  C   UNL d   1      13.426  12.720  -3.877  0.00  0.00     0.378 C 
ATOM     14  N   UNL d   1      13.340  12.455  -4.645  0.00  0.00    -0.249 N 
ATOM     15  C   UNL d   1      12.782  12.800  -5.145  0.00  0.00     0.104 C 
ATOM     16  C   UNL d   1      13.813  11.838  -4.924  0.00  0.00     0.104 C 
ATOM     17  O   UNL d   1      12.947  13.345  -3.594  0.00  0.00    -0.237 OA
ENDBRANCH  12  13
ENDBRANCH   3  12
TORSDOF 2
ENDMDL
