MODEL 1
REMARK VINA RESULT:      -3.9      0.000      0.000
REMARK  6 active torsions:
REMARK  status: ('A' for Active; 'I' for Inactive)
REMARK    1  A    between atoms: C_2  and  S_1 
REMARK    2  A    between atoms: N_4  and  S_1 
REMARK    3  A    between atoms: C_12  and  N_4 
REMARK    4  A    between atoms: O_14  and  C_6 
REMARK    5  A    between atoms: C_13  and  C_12 
REMARK    6  A    between atoms: C_18  and  O_14 
ROOT
ATOM      1  C   UNL d   1      58.637  -0.534  30.080  0.00  0.00     0.107 A 
ATOM      2  C   UNL d   1      58.582  -1.246  29.662  0.00  0.00     0.038 A 
ATOM      3  C   UNL d   1      59.279  -0.034  29.957  0.00  0.00     0.012 A 
ATOM      4  C   UNL d   1      59.177  -1.455  29.117  0.00  0.00     0.101 A 
ATOM      5  C   UNL d   1      59.874  -0.243  29.412  0.00  0.00     0.003 A 
ATOM      6  C   UNL d   1      59.821  -0.951  28.995  0.00  0.00     0.023 A 
ATOM      7  C   UNL d   1      59.336   0.681  30.376  0.00  0.00     0.001 C 
ATOM      8  C   UNL d   1      60.410  -1.158  28.455  0.00  0.00     0.002 C 
ENDROOT
BRANCH   1   9
ATOM      9  S   UNL d   1      58.048  -0.327  30.619  0.00  0.00     0.285 S 
ATOM     10  O   UNL d   1      57.594  -0.019  30.005  0.00  0.00    -0.198 OA
ATOM     11  O   UNL d   1      58.506  -0.638  31.238  0.00  0.00    -0.198 OA
BRANCH   9  12
ATOM     12  N   UNL d   1      57.460  -0.120  31.159  0.00  0.00    -0.155 NA
BRANCH  12  13
ATOM     13  C   UNL d   1      56.933  -0.695  31.435  0.00  0.00     0.131 C 
BRANCH  13  14
ATOM     14  C   UNL d   1      56.434  -0.524  32.069  0.00  0.00     0.101 A 
ATOM     15  N   UNL d   1      56.231   0.256  32.237  0.00  0.00    -0.242 NA
ATOM     16  C   UNL d   1      55.732   0.427  32.871  0.00  0.00     0.099 A 
ATOM     17  C   UNL d   1      55.435  -0.183  33.337  0.00  0.00     0.021 A 
ATOM     18  C   UNL d   1      55.637  -0.968  33.171  0.00  0.00     0.003 A 
ATOM     19  C   UNL d   1      56.136  -1.138  32.537  0.00  0.00     0.021 A 
ENDBRANCH  13  14
ENDBRANCH  12  13
ENDBRANCH   9  12
ENDBRANCH   1   9
BRANCH   4  20
ATOM     20  O   UNL d   1      59.124  -2.164  28.700  0.00  0.00    -0.305 OA
BRANCH  20  21
ATOM     21  C   UNL d   1      58.841  -2.839  29.075  0.00  0.00     0.123 C 
ATOM     22  C   UNL d   1      58.686  -3.518  28.634  0.00  0.00     0.029 C 
ENDBRANCH  20  21
ENDBRANCH   4  20
TORSDOF 6
ENDMDL
