MODEL 1
REMARK VINA RESULT:      31.0      0.000      0.000
REMARK  3 active torsions:
REMARK  status: ('A' for Active; 'I' for Inactive)
REMARK    1  A    between atoms: N_2  and  S_1 
REMARK    2  A    between atoms: C_5  and  S_1 
REMARK    3  A    between atoms: C_4  and  C_3 
ROOT
ATOM      1  C   UNL d   1      14.045  13.012  -3.509  0.00  0.00     0.083 A 
ATOM      2  C   UNL d   1      14.602  12.281  -2.407  0.00  0.00     0.104 A 
ATOM      3  C   UNL d   1      14.651  12.899  -2.966  0.00  0.00     0.018 A 
ATOM      4  C   UNL d   1      13.379  12.509  -3.504  0.00  0.00     0.062 A 
ATOM      5  C   UNL d   1      13.942  11.787  -2.407  0.00  0.00     0.014 A 
ATOM      6  C   UNL d   1      13.336  11.900  -2.949  0.00  0.00     0.012 A 
ATOM      7 CL   UNL d   1      12.773  12.622  -4.047  0.00  0.00    -0.082 Cl
ENDROOT
BRANCH   2   8
ATOM      8  S   UNL d   1      15.212  12.167  -1.861  0.00  0.00     0.272 S 
ATOM      9  O   UNL d   1      15.694  11.889  -2.457  0.00  0.00    -0.200 OA
ATOM     10  O   UNL d   1      15.834  12.051  -1.304  0.00  0.00    -0.200 OA
BRANCH   8  11
ATOM     11  N   UNL d   1      14.707  12.459  -1.237  0.00  0.00    -0.225 N 
ATOM     12  C   UNL d   1      14.831  13.239  -0.928  0.00  0.00     0.116 A 
ATOM     13  C   UNL d   1      14.346  13.519  -0.328  0.00  0.00     0.118 A 
ATOM     14  C   UNL d   1      14.459  14.281  -0.019  0.00  0.00     0.028 C 
ATOM     15  O   UNL d   1      13.726  13.025  -0.025  0.00  0.00    -0.304 OA
ATOM     16  C   UNL d   1      13.613  12.263  -0.334  0.00  0.00     0.118 A 
ATOM     17  C   UNL d   1      14.098  11.983  -0.934  0.00  0.00     0.116 A 
ATOM     18  C   UNL d   1      13.007  11.792  -0.031  0.00  0.00     0.028 C 
ENDBRANCH   8  11
ENDBRANCH   2   8
BRANCH   1  19
ATOM     19  C   UNL d   1      14.098  13.639  -4.072  0.00  0.00     0.420 C 
ATOM     20  F   UNL d   1      14.150  14.267  -4.623  0.00  0.00    -0.166 F 
ATOM     21  F   UNL d   1      14.255  13.101  -4.686  0.00  0.00    -0.166 F 
ATOM     22  F   UNL d   1      13.942  14.190  -3.465  0.00  0.00    -0.166 F 
ENDBRANCH   1  19
TORSDOF 3
ENDMDL
MODEL 2
REMARK VINA RESULT:      31.8      1.605      2.564
REMARK  3 active torsions:
REMARK  status: ('A' for Active; 'I' for Inactive)
REMARK    1  A    between atoms: N_2  and  S_1 
REMARK    2  A    between atoms: C_5  and  S_1 
REMARK    3  A    between atoms: C_4  and  C_3 
ROOT
ATOM      1  C   UNL d   1      14.939  14.676  -1.360  0.00  0.00     0.083 A 
ATOM      2  C   UNL d   1      15.215  13.333  -0.937  0.00  0.00     0.104 A 
ATOM      3  C   UNL d   1      15.216  13.921  -1.529  0.00  0.00     0.018 A 
ATOM      4  C   UNL d   1      14.656  14.857  -0.596  0.00  0.00     0.062 A 
ATOM      5  C   UNL d   1      14.934  13.518  -0.183  0.00  0.00     0.014 A 
ATOM      6  C   UNL d   1      14.657  14.272  -0.015  0.00  0.00     0.012 A 
ATOM      7 CL   UNL d   1      14.379  15.612  -0.428  0.00  0.00    -0.082 Cl
ENDROOT
BRANCH   2   8
ATOM      8  S   UNL d   1      15.493  12.574  -1.106  0.00  0.00     0.272 S 
ATOM      9  O   UNL d   1      16.259  12.831  -1.001  0.00  0.00    -0.200 OA
ATOM     10  O   UNL d   1      15.777  11.799  -1.279  0.00  0.00    -0.200 OA
BRANCH   8  11
ATOM     11  N   UNL d   1      14.690  12.304  -1.216  0.00  0.00    -0.225 N 
ATOM     12  C   UNL d   1      14.397  12.172  -2.002  0.00  0.00     0.116 A 
ATOM     13  C   UNL d   1      13.625  11.913  -2.108  0.00  0.00     0.118 A 
ATOM     14  C   UNL d   1      13.328  11.781  -2.872  0.00  0.00     0.028 C 
ATOM     15  O   UNL d   1      13.131  11.780  -1.431  0.00  0.00    -0.304 OA
ATOM     16  C   UNL d   1      13.428  11.912  -0.667  0.00  0.00     0.118 A 
ATOM     17  C   UNL d   1      14.199  12.171  -0.561  0.00  0.00     0.116 A 
ATOM     18  C   UNL d   1      12.937  11.779  -0.017  0.00  0.00     0.028 C 
ENDBRANCH   8  11
ENDBRANCH   2   8
BRANCH   1  19
ATOM     19  C   UNL d   1      14.942  15.267  -1.963  0.00  0.00     0.420 C 
ATOM     20  F   UNL d   1      14.948  15.860  -2.554  0.00  0.00    -0.166 F 
ATOM     21  F   UNL d   1      14.649  14.728  -2.523  0.00  0.00    -0.166 F 
ATOM     22  F   UNL d   1      15.236  15.820  -1.411  0.00  0.00    -0.166 F 
ENDBRANCH   1  19
TORSDOF 3
ENDMDL
MODEL 3
REMARK VINA RESULT:      33.9      0.553      1.241
REMARK  3 active torsions:
REMARK  status: ('A' for Active; 'I' for Inactive)
REMARK    1  A    between atoms: N_2  and  S_1 
REMARK    2  A    between atoms: C_5  and  S_1 
REMARK    3  A    between atoms: C_4  and  C_3 
ROOT
ATOM      1  C   UNL d   1      14.021  13.693  -3.296  0.00  0.00     0.083 A 
ATOM      2  C   UNL d   1      14.450  12.557  -2.531  0.00  0.00     0.104 A 
ATOM      3  C   UNL d   1      14.576  13.334  -2.808  0.00  0.00     0.018 A 
ATOM      4  C   UNL d   1      13.329  13.282  -3.516  0.00  0.00     0.062 A 
ATOM      5  C   UNL d   1      13.763  12.155  -2.751  0.00  0.00     0.014 A 
ATOM      6  C   UNL d   1      13.209  12.514  -3.239  0.00  0.00     0.012 A 
ATOM      7 CL   UNL d   1      12.774  13.641  -4.004  0.00  0.00    -0.082 Cl
ENDROOT
BRANCH   2   8
ATOM      8  S   UNL d   1      15.007  12.196  -2.040  0.00  0.00     0.272 S 
ATOM      9  O   UNL d   1      15.414  11.934  -2.696  0.00  0.00    -0.200 OA
ATOM     10  O   UNL d   1      15.577  11.828  -1.539  0.00  0.00    -0.200 OA
BRANCH   8  11
ATOM     11  N   UNL d   1      14.581  12.472  -1.353  0.00  0.00    -0.225 N 
ATOM     12  C   UNL d   1      13.971  11.987  -1.017  0.00  0.00     0.116 A 
ATOM     13  C   UNL d   1      13.561  12.252  -0.356  0.00  0.00     0.118 A 
ATOM     14  C   UNL d   1      12.962  11.785  -0.020  0.00  0.00     0.028 C 
ATOM     15  O   UNL d   1      13.753  13.006  -0.018  0.00  0.00    -0.304 OA
ATOM     16  C   UNL d   1      14.352  13.472  -0.355  0.00  0.00     0.118 A 
ATOM     17  C   UNL d   1      14.762  13.207  -1.015  0.00  0.00     0.116 A 
ATOM     18  C   UNL d   1      14.530  14.204  -0.017  0.00  0.00     0.028 C 
ENDBRANCH   8  11
ENDBRANCH   2   8
BRANCH   1  19
ATOM     19  C   UNL d   1      14.154  14.479  -3.574  0.00  0.00     0.420 C 
ATOM     20  F   UNL d   1      14.289  15.261  -3.841  0.00  0.00    -0.166 F 
ATOM     21  F   UNL d   1      13.898  14.274  -4.338  0.00  0.00    -0.166 F 
ATOM     22  F   UNL d   1      14.413  14.699  -2.812  0.00  0.00    -0.166 F 
ENDBRANCH   1  19
TORSDOF 3
ENDMDL
