MODEL 1
REMARK VINA RESULT:      23.6      0.000      0.000
REMARK  3 active torsions:
REMARK  status: ('A' for Active; 'I' for Inactive)
REMARK    1  A    between atoms: N_4  and  C_2 
REMARK    2  A    between atoms: C_12  and  C_10 
REMARK    3  A    between atoms: C_19  and  C_11 
ROOT
ATOM      1  C   UNL d   1      46.114 -17.587  43.711  0.00  0.00     0.152 A 
ATOM      2  C   UNL d   1      46.336 -18.250  43.309  0.00  0.00     0.174 A 
ATOM      3  C   UNL d   1      46.060 -17.605  44.537  0.00  0.00     0.111 A 
ATOM      4  O   UNL d   1      45.937 -16.884  43.299  0.00  0.00    -0.302 OA
ATOM      5  N   UNL d   1      46.510 -18.941  43.708  0.00  0.00    -0.207 NA
ATOM      6  C   UNL d   1      45.657 -16.227  44.540  0.00  0.00     0.043 A 
ATOM      7  N   UNL d   1      46.230 -18.284  44.949  0.00  0.00    -0.225 NA
ATOM      8  C   UNL d   1      45.710 -16.209  43.722  0.00  0.00     0.102 A 
ATOM      9  C   UNL d   1      46.456 -18.958  44.534  0.00  0.00     0.164 A 
ATOM     10  C   UNL d   1      45.430 -15.553  44.954  0.00  0.00     0.004 A 
ATOM     11  C   UNL d   1      45.535 -15.514  43.315  0.00  0.00     0.025 A 
ATOM     12  C   UNL d   1      45.255 -14.857  44.551  0.00  0.00     0.000 A 
ATOM     13  C   UNL d   1      45.306 -14.831  43.725  0.00  0.00     0.002 A 
ENDROOT
BRANCH   2  14
ATOM     14  N   UNL d   1      46.389 -18.233  42.492  0.00  0.00    -0.284 N 
ATOM     15  C   UNL d   1      46.200 -18.839  41.979  0.00  0.00     0.130 A 
ATOM     16  C   UNL d   1      46.336 -18.584  41.216  0.00  0.00     0.025 A 
ATOM     17  C   UNL d   1      46.612 -17.812  41.250  0.00  0.00     0.021 A 
ATOM     18  C   UNL d   1      46.646 -17.590  42.042  0.00  0.00     0.082 A 
BRANCH  15  19
ATOM     19  C   UNL d   1      45.910 -19.611  42.203  0.00  0.00     0.228 C 
ATOM     20  O   UNL d   1      46.448 -20.262  42.272  0.00  0.00    -0.643 OA
ATOM     21  O   UNL d   1      45.084 -19.724  42.355  0.00  0.00    -0.643 OA
ENDBRANCH  15  19
ENDBRANCH   2  14
BRANCH   9  22
ATOM     22  C   UNL d   1      46.639 -19.683  44.955  0.00  0.00     0.039 C 
ATOM     23  C   UNL d   1      46.095 -20.329  44.935  0.00  0.00     0.003 C 
ENDBRANCH   9  22
TORSDOF 3
ENDMDL
MODEL 2
REMARK VINA RESULT:      25.1      0.764      2.393
REMARK  3 active torsions:
REMARK  status: ('A' for Active; 'I' for Inactive)
REMARK    1  A    between atoms: N_4  and  C_2 
REMARK    2  A    between atoms: C_12  and  C_10 
REMARK    3  A    between atoms: C_19  and  C_11 
ROOT
ATOM      1  C   UNL d   1      46.096 -17.966  43.141  0.00  0.00     0.152 A 
ATOM      2  C   UNL d   1      46.233 -18.748  43.001  0.00  0.00     0.174 A 
ATOM      3  C   UNL d   1      46.137 -17.422  42.518  0.00  0.00     0.111 A 
ATOM      4  O   UNL d   1      45.912 -17.702  43.910  0.00  0.00    -0.302 OA
ATOM      5  N   UNL d   1      46.413 -19.011  42.249  0.00  0.00    -0.207 NA
ATOM      6  C   UNL d   1      45.814 -16.358  43.426  0.00  0.00     0.043 A 
ATOM      7  N   UNL d   1      46.315 -17.668  41.765  0.00  0.00    -0.225 NA
ATOM      8  C   UNL d   1      45.773 -16.896  44.042  0.00  0.00     0.102 A 
ATOM      9  C   UNL d   1      46.455 -18.467  41.626  0.00  0.00     0.164 A 
ATOM     10  C   UNL d   1      45.674 -15.559  43.565  0.00  0.00     0.004 A 
ATOM     11  C   UNL d   1      45.591 -16.635  44.804  0.00  0.00     0.025 A 
ATOM     12  C   UNL d   1      45.493 -15.295  44.322  0.00  0.00     0.000 A 
ATOM     13  C   UNL d   1      45.450 -15.832  44.951  0.00  0.00     0.002 A 
ENDROOT
BRANCH   2  14
ATOM     14  N   UNL d   1      46.193 -19.286  43.617  0.00  0.00    -0.284 N 
ATOM     15  C   UNL d   1      45.704 -19.938  43.662  0.00  0.00     0.130 A 
ATOM     16  C   UNL d   1      45.845 -20.319  44.370  0.00  0.00     0.025 A 
ATOM     17  C   UNL d   1      46.427 -19.903  44.772  0.00  0.00     0.021 A 
ATOM     18  C   UNL d   1      46.646 -19.259  44.307  0.00  0.00     0.082 A 
BRANCH  15  19
ATOM     19  C   UNL d   1      45.139 -20.182  43.069  0.00  0.00     0.228 C 
ATOM     20  O   UNL d   1      45.397 -20.329  42.274  0.00  0.00    -0.643 OA
ATOM     21  O   UNL d   1      44.323 -20.277  43.276  0.00  0.00    -0.643 OA
ENDBRANCH  15  19
ENDBRANCH   2  14
BRANCH   9  22
ATOM     22  C   UNL d   1      46.644 -18.742  40.836  0.00  0.00     0.039 C 
ATOM     23  C   UNL d   1      46.534 -18.229  40.174  0.00  0.00     0.003 C 
ENDBRANCH   9  22
TORSDOF 3
ENDMDL
