MODEL 1
REMARK VINA RESULT:      -6.2      0.000      0.000
REMARK  4 active torsions:
REMARK  status: ('A' for Active; 'I' for Inactive)
REMARK    1  A    between atoms: C_2  and  C_1 
REMARK    2  A    between atoms: C_3  and  C_2 
REMARK    3  A    between atoms: C_5  and  C_3 
REMARK    4  A    between atoms: O_12  and  C_7 
ROOT
ATOM      1  C   UNL d   1     -48.050  14.138  22.714  0.00  0.00     0.000 A 
ATOM      2  C   UNL d   1     -49.400  15.072  22.895  0.00  0.00     0.094 A 
ATOM      3  C   UNL d   1     -48.750  13.806  23.005  0.00  0.00     0.002 A 
ATOM      4  C   UNL d   1     -48.029  14.941  22.514  0.00  0.00     0.002 A 
ATOM      5  C   UNL d   1     -49.421  14.269  23.095  0.00  0.00     0.024 A 
ATOM      6  C   UNL d   1     -48.708  15.405  22.606  0.00  0.00     0.024 A 
ENDROOT
BRANCH   1   7
ATOM      7  C   UNL d   1     -47.379  13.666  22.626  0.00  0.00     0.006 C 
BRANCH   7   8
ATOM      8  C   UNL d   1     -46.713  13.816  23.090  0.00  0.00     0.070 C 
BRANCH   8   9
ATOM      9  C   UNL d   1     -46.069  13.308  23.057  0.00  0.00     0.211 C 
ATOM     10  O   UNL d   1     -45.476  13.433  22.502  0.00  0.00    -0.644 OA
ATOM     11  O   UNL d   1     -46.017  12.677  23.578  0.00  0.00    -0.644 OA
ENDBRANCH   8   9
ENDBRANCH   7   8
ENDBRANCH   1   7
BRANCH   2  12
ATOM     12  O   UNL d   1     -50.071  15.535  22.985  0.00  0.00    -0.328 OA
ATOM     13  C   UNL d   1     -50.212  15.922  23.698  0.00  0.00     0.181 C 
ENDBRANCH   2  12
TORSDOF 4
ENDMDL
MODEL 2
REMARK VINA RESULT:      -6.2      0.740      3.620
REMARK  4 active torsions:
REMARK  status: ('A' for Active; 'I' for Inactive)
REMARK    1  A    between atoms: C_2  and  C_1 
REMARK    2  A    between atoms: C_3  and  C_2 
REMARK    3  A    between atoms: C_5  and  C_3 
REMARK    4  A    between atoms: O_12  and  C_7 
ROOT
ATOM      1  C   UNL d   1     -47.797  14.189  22.828  0.00  0.00     0.000 A 
ATOM      2  C   UNL d   1     -46.624  13.090  23.207  0.00  0.00     0.094 A 
ATOM      3  C   UNL d   1     -47.004  14.423  22.864  0.00  0.00     0.002 A 
ATOM      4  C   UNL d   1     -48.000  13.402  22.983  0.00  0.00     0.002 A 
ATOM      5  C   UNL d   1     -46.421  13.877  23.052  0.00  0.00     0.024 A 
ATOM      6  C   UNL d   1     -47.410  12.855  23.173  0.00  0.00     0.024 A 
ENDROOT
BRANCH   1   7
ATOM      7  C   UNL d   1     -48.379  14.743  22.639  0.00  0.00     0.006 C 
BRANCH   7   8
ATOM      8  C   UNL d   1     -49.045  14.814  23.120  0.00  0.00     0.070 C 
BRANCH   8   9
ATOM      9  C   UNL d   1     -49.574  15.430  23.000  0.00  0.00     0.211 C 
ATOM     10  O   UNL d   1     -49.778  15.922  23.626  0.00  0.00    -0.644 OA
ATOM     11  O   UNL d   1     -49.897  15.555  22.257  0.00  0.00    -0.644 OA
ENDBRANCH   8   9
ENDBRANCH   7   8
ENDBRANCH   1   7
BRANCH   2  12
ATOM     12  O   UNL d   1     -46.041  12.544  23.395  0.00  0.00    -0.328 OA
ATOM     13  C   UNL d   1     -46.246  11.767  23.571  0.00  0.00     0.181 C 
ENDBRANCH   2  12
TORSDOF 4
ENDMDL
MODEL 3
REMARK VINA RESULT:      -6.0      2.190      2.665
REMARK  4 active torsions:
REMARK  status: ('A' for Active; 'I' for Inactive)
REMARK    1  A    between atoms: C_2  and  C_1 
REMARK    2  A    between atoms: C_3  and  C_2 
REMARK    3  A    between atoms: C_5  and  C_3 
REMARK    4  A    between atoms: O_12  and  C_7 
ROOT
ATOM      1  C   UNL d   1     -47.519  12.524  23.324  0.00  0.00     0.000 A 
ATOM      2  C   UNL d   1     -48.941  11.689  23.402  0.00  0.00     0.094 A 
ATOM      3  C   UNL d   1     -48.215  12.860  23.028  0.00  0.00     0.002 A 
ATOM      4  C   UNL d   1     -47.538  11.769  23.660  0.00  0.00     0.002 A 
ATOM      5  C   UNL d   1     -48.922  12.445  23.067  0.00  0.00     0.024 A 
ATOM      6  C   UNL d   1     -48.252  11.353  23.697  0.00  0.00     0.024 A 
ENDROOT
BRANCH   1   7
ATOM      7  C   UNL d   1     -46.811  12.948  23.282  0.00  0.00     0.006 C 
BRANCH   7   8
ATOM      8  C   UNL d   1     -46.476  13.106  22.544  0.00  0.00     0.070 C 
BRANCH   8   9
ATOM      9  C   UNL d   1     -45.761  13.506  22.497  0.00  0.00     0.211 C 
ATOM     10  O   UNL d   1     -45.108  13.138  22.159  0.00  0.00    -0.644 OA
ATOM     11  O   UNL d   1     -45.698  14.270  22.785  0.00  0.00    -0.644 OA
ENDBRANCH   8   9
ENDBRANCH   7   8
ENDBRANCH   1   7
BRANCH   2  12
ATOM     12  O   UNL d   1     -49.648  11.274  23.441  0.00  0.00    -0.328 OA
ATOM     13  C   UNL d   1     -50.334  11.651  23.695  0.00  0.00     0.181 C 
ENDBRANCH   2  12
TORSDOF 4
ENDMDL
MODEL 4
REMARK VINA RESULT:      -6.0      1.932      3.683
REMARK  4 active torsions:
REMARK  status: ('A' for Active; 'I' for Inactive)
REMARK    1  A    between atoms: C_2  and  C_1 
REMARK    2  A    between atoms: C_3  and  C_2 
REMARK    3  A    between atoms: C_5  and  C_3 
REMARK    4  A    between atoms: O_12  and  C_7 
ROOT
ATOM      1  C   UNL d   1     -47.834  12.659  23.309  0.00  0.00     0.000 A 
ATOM      2  C   UNL d   1     -46.339  13.242  22.922  0.00  0.00     0.094 A 
ATOM      3  C   UNL d   1     -47.160  12.202  23.453  0.00  0.00     0.002 A 
ATOM      4  C   UNL d   1     -47.757  13.410  22.971  0.00  0.00     0.002 A 
ATOM      5  C   UNL d   1     -46.416  12.492  23.260  0.00  0.00     0.024 A 
ATOM      6  C   UNL d   1     -47.006  13.699  22.778  0.00  0.00     0.024 A 
ENDROOT
BRANCH   1   7
ATOM      7  C   UNL d   1     -48.579  12.362  23.506  0.00  0.00     0.006 C 
BRANCH   7   8
ATOM      8  C   UNL d   1     -49.026  11.975  22.930  0.00  0.00     0.070 C 
BRANCH   8   9
ATOM      9  C   UNL d   1     -49.788  11.723  23.104  0.00  0.00     0.211 C 
ATOM     10  O   UNL d   1     -49.906  11.135  23.666  0.00  0.00    -0.644 OA
ATOM     11  O   UNL d   1     -50.429  12.057  22.719  0.00  0.00    -0.644 OA
ENDBRANCH   8   9
ENDBRANCH   7   8
ENDBRANCH   1   7
BRANCH   2  12
ATOM     12  O   UNL d   1     -45.596  13.532  22.729  0.00  0.00    -0.328 OA
ATOM     13  C   UNL d   1     -45.191  13.230  22.080  0.00  0.00     0.181 C 
ENDBRANCH   2  12
TORSDOF 4
ENDMDL
