MODEL 1
REMARK VINA RESULT:       1.9      0.000      0.000
REMARK  13 active torsions:
REMARK  status: ('A' for Active; 'I' for Inactive)
REMARK    1  A    between atoms: C_21  and  N_1 
REMARK    2  A    between atoms: C_7  and  N_3 
REMARK    3  A    between atoms: C_8  and  C_7 
REMARK       I    between atoms: N_12  and  C_8 
REMARK    4  A    between atoms: C_11  and  C_22 
REMARK    5  A    between atoms: C_26  and  N_12 
REMARK    6  A    between atoms: C_27  and  N_12 
REMARK    7  A    between atoms: C_13  and  C_25 
REMARK       I    between atoms: N_15  and  C_13 
REMARK    8  A    between atoms: C_22  and  N_15 
REMARK    9  A    between atoms: C_28  and  C_21 
REMARK   10  A    between atoms: C_25  and  C_31 
REMARK   11  A    between atoms: C_29  and  C_26 
REMARK   12  A    between atoms: C_30  and  C_27 
REMARK   13  A    between atoms: C_31  and  C_28 
ROOT
ATOM      1  N   UNL d   1      58.477   0.680  32.090  0.00  0.00    -0.226 N 
ATOM      2  C   UNL d   1      57.660   0.680  32.206  0.00  0.00     0.342 A 
ATOM      3  N   UNL d   1      57.352   0.680  32.978  0.00  0.00    -0.254 N 
ATOM      4  C   UNL d   1      58.986   0.681  32.746  0.00  0.00     0.270 A 
ATOM      5  C   UNL d   1      58.678   0.681  33.509  0.00  0.00     0.073 A 
ATOM      6  C   UNL d   1      57.861   0.680  33.625  0.00  0.00     0.073 A 
ATOM      7  O   UNL d   1      57.146   0.679  31.555  0.00  0.00    -0.245 OA
ATOM      8  O   UNL d   1      59.803   0.681  32.630  0.00  0.00    -0.266 OA
ATOM      9  C   UNL d   1      59.186   0.681  34.157  0.00  0.00     0.006 A 
ATOM     10  C   UNL d   1      57.553   0.681  34.389  0.00  0.00     0.018 A 
ATOM     11  C   UNL d   1      58.879   0.681  34.920  0.00  0.00     0.000 A 
ATOM     12  C   UNL d   1      58.062   0.681  35.036  0.00  0.00     0.002 A 
ENDROOT
BRANCH   1  13
ATOM     13  C   UNL d   1      58.784   0.680  31.322  0.00  0.00     0.087 C 
BRANCH  13  14
ATOM     14  C   UNL d   1      59.347   0.121  31.098  0.00  0.00     0.019 C 
BRANCH  14  15
ATOM     15  C   UNL d   1      59.537   0.012  30.303  0.00  0.00     0.006 C 
BRANCH  15  16
ATOM     16  C   UNL d   1      60.198  -0.448  30.091  0.00  0.00     0.063 C 
BRANCH  16  17
ATOM     17  C   UNL d   1      60.187  -0.892  29.398  0.00  0.00     0.279 C 
ATOM     18  N   UNL d   1      60.087  -1.710  29.431  0.00  0.00    -0.204 NA
ATOM     19  O   UNL d   1      60.278  -0.517  28.666  0.00  0.00    -0.265 OA
BRANCH  18  20
ATOM     20  C   UNL d   1      60.076  -2.153  28.738  0.00  0.00     0.127 C 
BRANCH  20  21
ATOM     21  C   UNL d   1      59.742  -2.912  28.735  0.00  0.00     0.119 A 
ATOM     22  O   UNL d   1      58.930  -3.083  28.769  0.00  0.00    -0.304 OA
ATOM     23  C   UNL d   1      58.848  -3.912  28.752  0.00  0.00     0.123 A 
ATOM     24  C   UNL d   1      59.606  -4.245  28.708  0.00  0.00     0.029 A 
ATOM     25  C   UNL d   1      60.159  -3.628  28.697  0.00  0.00     0.028 A 
ENDBRANCH  20  21
ENDBRANCH  18  20
ENDBRANCH  16  17
ENDBRANCH  15  16
ENDBRANCH  14  15
ENDBRANCH  13  14
ENDBRANCH   1  13
BRANCH   3  26
ATOM     26  C   UNL d   1      56.536   0.680  33.094  0.00  0.00     0.146 C 
BRANCH  26  27
ATOM     27  C   UNL d   1      56.105  -0.014  32.989  0.00  0.00     0.283 C 
ATOM     28  N   UNL d   1      55.488  -0.202  33.509  0.00  0.00    -0.271 N 
ATOM     29  O   UNL d   1      56.288  -0.520  32.367  0.00  0.00    -0.265 OA
BRANCH  28  30
ATOM     30  C   UNL d   1      55.056  -0.896  33.405  0.00  0.00     0.083 C 
BRANCH  30  31
ATOM     31  C   UNL d   1      55.331  -1.481  32.894  0.00  0.00     0.019 C 
ATOM     32  C   UNL d   1      55.712  -2.146  33.196  0.00  0.00     0.002 C 
ENDBRANCH  30  31
ENDBRANCH  28  30
BRANCH  28  33
ATOM     33  C   UNL d   1      55.304   0.305  34.133  0.00  0.00     0.083 C 
BRANCH  33  34
ATOM     34  C   UNL d   1      54.523   0.530  34.260  0.00  0.00     0.019 C 
ATOM     35  C   UNL d   1      54.156   0.358  34.982  0.00  0.00     0.002 C 
ENDBRANCH  33  34
ENDBRANCH  28  33
ENDBRANCH  26  27
ENDBRANCH   3  26
TORSDOF 13
ENDMDL
