MODEL 1
REMARK VINA RESULT:       3.7      0.000      0.000
REMARK  5 active torsions:
REMARK  status: ('A' for Active; 'I' for Inactive)
REMARK    1  A    between atoms: C_10  and  N_1 
REMARK    2  A    between atoms: S_7  and  C_2 
REMARK    3  A    between atoms: C_12  and  S_7 
REMARK    4  A    between atoms: C_9  and  C_12 
REMARK    5  A    between atoms: O_16  and  C_9 
ROOT
ATOM      1  N   UNL d   1     -41.531-122.069 -52.792  0.00  0.00    -0.254 N 
ATOM      2  C   UNL d   1     -41.619-122.397 -52.034  0.00  0.00     0.182 A 
ATOM      3  C   UNL d   1     -41.367-121.261 -52.876  0.00  0.00     0.274 A 
ATOM      4  C   UNL d   1     -41.291-120.783 -52.208  0.00  0.00     0.104 A 
ATOM      5  N   UNL d   1     -41.542-121.916 -51.360  0.00  0.00    -0.222 NA
ATOM      6  C   UNL d   1     -41.378-121.110 -51.450  0.00  0.00     0.095 A 
ATOM      7  S   UNL d   1     -41.134-119.983 -52.119  0.00  0.00    -0.080 SA
ATOM      8  O   UNL d   1     -41.280-120.935 -53.629  0.00  0.00    -0.266 OA
ATOM      9  C   UNL d   1     -41.274-120.511 -50.899  0.00  0.00     0.027 A 
ATOM     10  C   UNL d   1     -41.124-119.818 -51.301  0.00  0.00     0.037 A 
ENDROOT
BRANCH   2  11
ATOM     11  S   UNL d   1     -41.784-123.209 -51.947  0.00  0.00    -0.044 SA
BRANCH  11  12
ATOM     12  C   UNL d   1     -41.817-123.525 -51.180  0.00  0.00     0.095 C 
ATOM     13  C   UNL d   1     -41.123-123.705 -50.781  0.00  0.00     0.013 C 
BRANCH  12  14
ATOM     14  C   UNL d   1     -42.366-123.624 -50.913  0.00  0.00     0.302 C 
ATOM     15  O   UNL d   1     -43.023-123.806 -51.373  0.00  0.00    -0.259 OA
BRANCH  14  16
ATOM     16  O   UNL d   1     -42.437-123.571 -50.087  0.00  0.00    -0.295 OA
ATOM     17  C   UNL d   1     -43.169-123.689 -49.722  0.00  0.00     0.185 C 
ENDBRANCH  14  16
ENDBRANCH  12  14
ENDBRANCH  11  12
ENDBRANCH   2  11
BRANCH   1  18
ATOM     18  C   UNL d   1     -41.607-122.544 -53.458  0.00  0.00     0.069 A 
ATOM     19  C   UNL d   1     -41.133-123.219 -53.541  0.00  0.00     0.018 A 
ATOM     20  C   UNL d   1     -41.207-123.696 -54.209  0.00  0.00     0.002 A 
ATOM     21  C   UNL d   1     -41.754-123.503 -54.796  0.00  0.00     0.000 A 
ATOM     22  C   UNL d   1     -42.228-122.828 -54.713  0.00  0.00     0.002 A 
ATOM     23  C   UNL d   1     -42.153-122.350 -54.045  0.00  0.00     0.018 A 
ENDBRANCH   1  18
TORSDOF 5
ENDMDL
MODEL 2
REMARK VINA RESULT:       6.1      1.157      3.015
REMARK  5 active torsions:
REMARK  status: ('A' for Active; 'I' for Inactive)
REMARK    1  A    between atoms: C_10  and  N_1 
REMARK    2  A    between atoms: S_7  and  C_2 
REMARK    3  A    between atoms: C_12  and  S_7 
REMARK    4  A    between atoms: C_9  and  C_12 
REMARK    5  A    between atoms: O_16  and  C_9 
ROOT
ATOM      1  N   UNL d   1     -42.004-122.606 -51.668  0.00  0.00    -0.254 N 
ATOM      2  C   UNL d   1     -41.681-121.926 -51.319  0.00  0.00     0.182 A 
ATOM      3  C   UNL d   1     -42.439-123.140 -51.206  0.00  0.00     0.274 A 
ATOM      4  C   UNL d   1     -42.550-122.996 -50.402  0.00  0.00     0.104 A 
ATOM      5  N   UNL d   1     -41.793-121.780 -50.509  0.00  0.00    -0.222 NA
ATOM      6  C   UNL d   1     -42.227-122.316 -50.053  0.00  0.00     0.095 A 
ATOM      7  S   UNL d   1     -42.945-123.414 -49.818  0.00  0.00    -0.080 SA
ATOM      8  O   UNL d   1     -42.760-123.817 -51.553  0.00  0.00    -0.266 OA
ATOM      9  C   UNL d   1     -42.425-122.318 -49.256  0.00  0.00     0.027 A 
ATOM     10  C   UNL d   1     -42.864-122.987 -49.105  0.00  0.00     0.037 A 
ENDROOT
BRANCH   2  11
ATOM     11  S   UNL d   1     -41.243-121.388 -51.782  0.00  0.00    -0.044 SA
BRANCH  11  12
ATOM     12  C   UNL d   1     -41.171-120.605 -51.514  0.00  0.00     0.095 C 
ATOM     13  C   UNL d   1     -41.123-120.452 -50.709  0.00  0.00     0.013 C 
BRANCH  12  14
ATOM     14  C   UNL d   1     -41.153-120.142 -51.923  0.00  0.00     0.302 C 
ATOM     15  O   UNL d   1     -41.129-120.302 -52.729  0.00  0.00    -0.259 OA
BRANCH  14  16
ATOM     16  O   UNL d   1     -41.154-119.356 -51.653  0.00  0.00    -0.295 OA
ATOM     17  C   UNL d   1     -41.392-118.743 -52.154  0.00  0.00     0.185 C 
ENDBRANCH  14  16
ENDBRANCH  12  14
ENDBRANCH  11  12
ENDBRANCH   2  11
BRANCH   1  18
ATOM     18  C   UNL d   1     -41.894-122.752 -52.469  0.00  0.00     0.069 A 
ATOM     19  C   UNL d   1     -42.443-122.466 -53.020  0.00  0.00     0.018 A 
ATOM     20  C   UNL d   1     -42.335-122.611 -53.825  0.00  0.00     0.002 A 
ATOM     21  C   UNL d   1     -41.680-123.041 -54.083  0.00  0.00     0.000 A 
ATOM     22  C   UNL d   1     -41.131-123.327 -53.531  0.00  0.00     0.002 A 
ATOM     23  C   UNL d   1     -41.239-123.182 -52.726  0.00  0.00     0.018 A 
ENDBRANCH   1  18
TORSDOF 5
ENDMDL
MODEL 3
REMARK VINA RESULT:       6.1      2.181      4.232
REMARK  5 active torsions:
REMARK  status: ('A' for Active; 'I' for Inactive)
REMARK    1  A    between atoms: C_10  and  N_1 
REMARK    2  A    between atoms: S_7  and  C_2 
REMARK    3  A    between atoms: C_12  and  S_7 
REMARK    4  A    between atoms: C_9  and  C_12 
REMARK    5  A    between atoms: O_16  and  C_9 
ROOT
ATOM      1  N   UNL d   1     -43.017-122.942 -49.207  0.00  0.00    -0.254 N 
ATOM      2  C   UNL d   1     -42.307-123.089 -49.612  0.00  0.00     0.182 A 
ATOM      3  C   UNL d   1     -43.057-123.060 -48.387  0.00  0.00     0.274 A 
ATOM      4  C   UNL d   1     -42.392-123.323 -47.974  0.00  0.00     0.104 A 
ATOM      5  N   UNL d   1     -41.638-123.354 -49.197  0.00  0.00    -0.222 NA
ATOM      6  C   UNL d   1     -41.683-123.470 -48.379  0.00  0.00     0.095 A 
ATOM      7  S   UNL d   1     -42.267-123.486 -47.181  0.00  0.00    -0.080 SA
ATOM      8  O   UNL d   1     -43.762-122.914 -47.985  0.00  0.00    -0.266 OA
ATOM      9  C   UNL d   1     -41.124-123.722 -47.833  0.00  0.00     0.027 A 
ATOM     10  C   UNL d   1     -41.475-123.735 -47.098  0.00  0.00     0.037 A 
ENDROOT
BRANCH   2  11
ATOM     11  S   UNL d   1     -42.265-122.971 -50.436  0.00  0.00    -0.044 SA
BRANCH  11  12
ATOM     12  C   UNL d   1     -41.551-123.143 -50.823  0.00  0.00     0.095 C 
ATOM     13  C   UNL d   1     -41.125-123.812 -50.615  0.00  0.00     0.013 C 
BRANCH  12  14
ATOM     14  C   UNL d   1     -41.345-122.765 -51.267  0.00  0.00     0.302 C 
ATOM     15  O   UNL d   1     -41.225-121.967 -51.108  0.00  0.00    -0.259 OA
BRANCH  14  16
ATOM     16  O   UNL d   1     -41.189-123.068 -52.025  0.00  0.00    -0.295 OA
ATOM     17  C   UNL d   1     -41.128-122.560 -52.674  0.00  0.00     0.185 C 
ENDBRANCH  14  16
ENDBRANCH  12  14
ENDBRANCH  11  12
ENDBRANCH   2  11
BRANCH   1  18
ATOM     18  C   UNL d   1     -43.679-122.680 -49.616  0.00  0.00     0.069 A 
ATOM     19  C   UNL d   1     -44.330-123.184 -49.715  0.00  0.00     0.018 A 
ATOM     20  C   UNL d   1     -44.996-122.923 -50.126  0.00  0.00     0.002 A 
ATOM     21  C   UNL d   1     -45.016-122.160 -50.438  0.00  0.00     0.000 A 
ATOM     22  C   UNL d   1     -44.365-121.656 -50.339  0.00  0.00     0.002 A 
ATOM     23  C   UNL d   1     -43.699-121.917 -49.929  0.00  0.00     0.018 A 
ENDBRANCH   1  18
TORSDOF 5
ENDMDL
