MODEL 1
REMARK VINA RESULT:      31.1      0.000      0.000
REMARK  4 active torsions:
REMARK  status: ('A' for Active; 'I' for Inactive)
REMARK       I    between atoms: N_3  and  C_1 
REMARK       I    between atoms: N_7  and  C_1 
REMARK    1  A    between atoms: C_2  and  N_3 
REMARK    2  A    between atoms: C_4  and  C_5 
REMARK    3  A    between atoms: O_13  and  C_4 
REMARK    4  A    between atoms: C_15  and  N_7 
ROOT
ATOM      1  C   UNL d   1      14.435  12.727  -1.508  0.00  0.00     0.097 A 
ATOM      2  C   UNL d   1      13.598  12.367  -2.606  0.00  0.00     0.065 A 
ATOM      3  C   UNL d   1      14.230  12.802  -2.302  0.00  0.00     0.025 A 
ATOM      4  C   UNL d   1      14.010  12.216  -1.017  0.00  0.00     0.075 A 
ATOM      5  C   UNL d   1      13.169  11.852  -2.111  0.00  0.00     0.006 A 
ATOM      6  C   UNL d   1      13.379  11.781  -1.321  0.00  0.00     0.013 A 
ATOM      7 CL   UNL d   1      14.218  12.142  -0.219  0.00  0.00    -0.081 Cl
ENDROOT
BRANCH   1   8
ATOM      8  N   UNL d   1      15.066  13.162  -1.203  0.00  0.00    -0.190 NA
ATOM      9  C   UNL d   1      14.998  13.978  -1.115  0.00  0.00     0.369 C 
ATOM     10  N   UNL d   1      15.632  14.411  -0.810  0.00  0.00    -0.191 NA
ATOM     11  O   UNL d   1      14.298  14.360  -1.331  0.00  0.00    -0.242 OA
BRANCH  10  12
ATOM     12  C   UNL d   1      15.565  15.231  -0.721  0.00  0.00     0.086 A 
ATOM     13  C   UNL d   1      15.108  15.664  -1.260  0.00  0.00     0.019 A 
ATOM     14  C   UNL d   1      15.048  16.481  -1.162  0.00  0.00     0.002 A 
ATOM     15  C   UNL d   1      15.435  16.861  -0.539  0.00  0.00     0.000 A 
ATOM     16  C   UNL d   1      15.882  16.424  -0.014  0.00  0.00     0.002 A 
ATOM     17  C   UNL d   1      15.952  15.611  -0.097  0.00  0.00     0.019 A 
ENDBRANCH  10  12
ENDBRANCH   1   8
BRANCH   2  18
ATOM     18  C   UNL d   1      13.388  12.441  -3.408  0.00  0.00     0.296 C 
ATOM     19  O   UNL d   1      13.425  13.179  -3.776  0.00  0.00    -0.259 OA
BRANCH  18  20
ATOM     20  O   UNL d   1      13.142  11.780  -3.833  0.00  0.00    -0.296 OA
ATOM     21  C   UNL d   1      13.069  11.820  -4.655  0.00  0.00     0.185 C 
ENDBRANCH  18  20
ENDBRANCH   2  18
TORSDOF 4
ENDMDL
