MODEL 1
REMARK VINA RESULT:     107.0      0.000      0.000
REMARK  3 active torsions:
REMARK  status: ('A' for Active; 'I' for Inactive)
REMARK    1  A    between atoms: C_10  and  C_1 
REMARK    2  A    between atoms: C_8  and  N_5 
REMARK    3  A    between atoms: N_9  and  C_10 
ROOT
ATOM      1  C   UNL d   1     -55.287-102.871 -38.940  0.00  0.00     0.084 C 
ENDROOT
BRANCH   1   2
ATOM      2  N   UNL d   1     -55.199-102.213 -39.431  0.00  0.00    -0.300 N 
ATOM      3  C   UNL d   1     -54.997-101.483 -39.109  0.00  0.00     0.100 A 
ATOM      4  C   UNL d   1     -54.908-100.821 -39.600  0.00  0.00     0.101 A 
ATOM      5  N   UNL d   1     -55.022-100.896 -40.413  0.00  0.00    -0.286 N 
ATOM      6  C   UNL d   1     -55.226-101.635 -40.746  0.00  0.00     0.101 A 
ATOM      7  C   UNL d   1     -55.315-102.300 -40.242  0.00  0.00     0.100 A 
BRANCH   5   8
ATOM      8  C   UNL d   1     -54.938-100.251 -40.914  0.00  0.00     0.148 A 
ATOM      9  N   UNL d   1     -54.996 -99.480 -40.589  0.00  0.00    -0.227 NA
ATOM     10  C   UNL d   1     -54.911 -98.818 -41.092  0.00  0.00     0.101 A 
ATOM     11  C   UNL d   1     -54.773 -98.933 -41.896  0.00  0.00     0.021 A 
ATOM     12  C   UNL d   1     -54.718 -99.699 -42.211  0.00  0.00     0.005 A 
ATOM     13  C   UNL d   1     -54.800-100.354 -41.720  0.00  0.00     0.037 A 
ENDBRANCH   5   8
ENDBRANCH   1   2
BRANCH   1  14
ATOM     14  C   UNL d   1     -55.547-102.778 -38.158  0.00  0.00     0.059 A 
ATOM     15  C   UNL d   1     -56.363-102.658 -38.000  0.00  0.00     0.214 A 
ATOM     16  C   UNL d   1     -56.601-102.568 -37.220  0.00  0.00     0.121 A 
ATOM     17  O   UNL d   1     -56.904-102.632 -38.615  0.00  0.00    -0.285 OA
ATOM     18  N   UNL d   1     -57.400-102.450 -37.061  0.00  0.00    -0.241 NA
ATOM     19  C   UNL d   1     -56.062-102.594 -36.608  0.00  0.00     0.032 A 
ATOM     20  C   UNL d   1     -57.669-102.356 -36.270  0.00  0.00     0.099 A 
ATOM     21  C   UNL d   1     -57.124-102.381 -35.652  0.00  0.00     0.021 A 
ATOM     22  C   UNL d   1     -56.317-102.501 -35.819  0.00  0.00     0.004 A 
ATOM     23  C   UNL d   1     -55.265-102.710 -36.755  0.00  0.00     0.059 A 
ATOM     24  C   UNL d   1     -55.001-102.805 -37.552  0.00  0.00     0.016 A 
ATOM     25 CL   UNL d   1     -54.718-102.737 -36.134  0.00  0.00    -0.082 Cl
ENDBRANCH   1  14
TORSDOF 3
ENDMDL
