MODEL 1
REMARK VINA RESULT:      -5.5      0.000      0.000
REMARK  1 active torsions:
REMARK  status: ('A' for Active; 'I' for Inactive)
REMARK       I    between atoms: N_2  and  C_1 
REMARK       I    between atoms: N_4  and  C_1 
REMARK    1  A    between atoms: C_5  and  N_3 
ROOT
ATOM      1  C   UNL d   1      56.142  -1.001  32.541  0.00  0.00     0.339 C 
ATOM      2  N   UNL d   1      56.686  -0.761  31.969  0.00  0.00    -0.254 N 
ATOM      3  N   UNL d   1      57.762  -0.286  30.837  0.00  0.00    -0.301 N 
ATOM      4  N   UNL d   1      55.824  -0.456  33.071  0.00  0.00    -0.258 N 
ATOM      5  O   UNL d   1      55.917  -1.795  32.581  0.00  0.00    -0.245 OA
ATOM      6  C   UNL d   1      56.999  -1.306  31.446  0.00  0.00     0.104 A 
ATOM      7  C   UNL d   1      56.913   0.041  31.929  0.00  0.00     0.104 A 
ATOM      8  C   UNL d   1      57.450   0.278  31.364  0.00  0.00     0.100 A 
ATOM      9  C   UNL d   1      57.536  -1.069  30.881  0.00  0.00     0.100 A 
ATOM     10  C   UNL d   1      55.282  -0.618  33.663  0.00  0.00     0.085 A 
ATOM     11  C   UNL d   1      55.998   0.349  33.094  0.00  0.00     0.085 A 
ATOM     12  C   UNL d   1      55.563   0.682  33.701  0.00  0.00     0.021 A 
ATOM     13  C   UNL d   1      55.119   0.089  34.056  0.00  0.00     0.021 A 
ENDROOT
BRANCH   3  14
ATOM     14  C   UNL d   1      58.312  -0.044  30.257  0.00  0.00     0.064 A 
ATOM     15  C   UNL d   1      59.114   0.024  30.454  0.00  0.00     0.018 A 
ATOM     16  C   UNL d   1      59.668   0.267  29.878  0.00  0.00     0.001 A 
ATOM     17  C   UNL d   1      60.464   0.335  30.069  0.00  0.00     0.000 C 
ATOM     18  C   UNL d   1      59.411   0.442  29.096  0.00  0.00     0.000 A 
ATOM     19  C   UNL d   1      58.598   0.371  28.905  0.00  0.00     0.002 A 
ATOM     20  C   UNL d   1      59.953   0.682  28.525  0.00  0.00     0.000 C 
ATOM     21  C   UNL d   1      58.050   0.130  29.481  0.00  0.00     0.018 A 
ENDBRANCH   3  14
TORSDOF 1
ENDMDL
MODEL 2
REMARK VINA RESULT:      -4.1      1.369      1.843
REMARK  1 active torsions:
REMARK  status: ('A' for Active; 'I' for Inactive)
REMARK       I    between atoms: N_2  and  C_1 
REMARK       I    between atoms: N_4  and  C_1 
REMARK    1  A    between atoms: C_5  and  N_3 
ROOT
ATOM      1  C   UNL d   1      56.546   0.671  34.066  0.00  0.00     0.339 C 
ATOM      2  N   UNL d   1      56.952   0.672  33.349  0.00  0.00    -0.254 N 
ATOM      3  N   UNL d   1      57.758   0.673  31.929  0.00  0.00    -0.301 N 
ATOM      4  N   UNL d   1      55.721   0.675  34.080  0.00  0.00    -0.258 N 
ATOM      5  O   UNL d   1      56.970   0.667  34.775  0.00  0.00    -0.245 OA
ATOM      6  C   UNL d   1      57.770   0.668  33.341  0.00  0.00     0.104 A 
ATOM      7  C   UNL d   1      56.522   0.676  32.633  0.00  0.00     0.104 A 
ATOM      8  C   UNL d   1      56.924   0.676  31.924  0.00  0.00     0.100 A 
ATOM      9  C   UNL d   1      58.172   0.669  32.632  0.00  0.00     0.100 A 
ATOM     10  C   UNL d   1      55.251   0.675  34.750  0.00  0.00     0.085 A 
ATOM     11  C   UNL d   1      55.230   0.679  33.420  0.00  0.00     0.085 A 
ATOM     12  C   UNL d   1      54.455   0.681  33.683  0.00  0.00     0.021 A 
ATOM     13  C   UNL d   1      54.462   0.679  34.504  0.00  0.00     0.021 A 
ENDROOT
BRANCH   3  14
ATOM     14  C   UNL d   1      58.169   0.673  31.202  0.00  0.00     0.064 A 
ATOM     15  C   UNL d   1      57.747   0.668  30.489  0.00  0.00     0.018 A 
ATOM     16  C   UNL d   1      58.155   0.669  29.761  0.00  0.00     0.001 A 
ATOM     17  C   UNL d   1      57.740   0.664  29.052  0.00  0.00     0.000 C 
ATOM     18  C   UNL d   1      58.997   0.674  29.751  0.00  0.00     0.000 A 
ATOM     19  C   UNL d   1      59.417   0.679  30.476  0.00  0.00     0.002 A 
ATOM     20  C   UNL d   1      59.403   0.675  29.035  0.00  0.00     0.000 C 
ATOM     21  C   UNL d   1      59.007   0.679  31.199  0.00  0.00     0.018 A 
ENDBRANCH   3  14
TORSDOF 1
ENDMDL
MODEL 3
REMARK VINA RESULT:      -2.7      9.954     10.439
REMARK  1 active torsions:
REMARK  status: ('A' for Active; 'I' for Inactive)
REMARK       I    between atoms: N_2  and  C_1 
REMARK       I    between atoms: N_4  and  C_1 
REMARK    1  A    between atoms: C_5  and  N_3 
ROOT
ATOM      1  C   UNL d   1      58.451  -9.807  29.275  0.00  0.00     0.339 C 
ATOM      2  N   UNL d   1      58.779  -9.807  30.031  0.00  0.00    -0.254 N 
ATOM      3  N   UNL d   1      59.429  -9.808  31.529  0.00  0.00    -0.301 N 
ATOM      4  N   UNL d   1      57.633  -9.810  29.173  0.00  0.00    -0.258 N 
ATOM      5  O   UNL d   1      58.949  -9.803  28.616  0.00  0.00    -0.245 OA
ATOM      6  C   UNL d   1      59.591  -9.804  30.127  0.00  0.00     0.104 A 
ATOM      7  C   UNL d   1      58.275  -9.811  30.697  0.00  0.00     0.104 A 
ATOM      8  C   UNL d   1      58.600  -9.811  31.445  0.00  0.00     0.100 A 
ATOM      9  C   UNL d   1      59.915  -9.805  30.875  0.00  0.00     0.100 A 
ATOM     10  C   UNL d   1      57.236  -9.810  28.457  0.00  0.00     0.085 A 
ATOM     11  C   UNL d   1      57.074  -9.814  29.777  0.00  0.00     0.085 A 
ATOM     12  C   UNL d   1      56.332  -9.816  29.433  0.00  0.00     0.021 A 
ATOM     13  C   UNL d   1      56.426  -9.814  28.617  0.00  0.00     0.021 A 
ENDROOT
BRANCH   3  14
ATOM     14  C   UNL d   1      59.761  -9.809  32.295  0.00  0.00     0.064 A 
ATOM     15  C   UNL d   1      59.265  -9.801  32.959  0.00  0.00     0.018 A 
ATOM     16  C   UNL d   1      59.593  -9.802  33.727  0.00  0.00     0.001 A 
ATOM     17  C   UNL d   1      59.105  -9.795  34.388  0.00  0.00     0.000 C 
ATOM     18  C   UNL d   1      60.429  -9.809  33.827  0.00  0.00     0.000 A 
ATOM     19  C   UNL d   1      60.924  -9.817  33.150  0.00  0.00     0.002 A 
ATOM     20  C   UNL d   1      60.757  -9.810  34.582  0.00  0.00     0.000 C 
ATOM     21  C   UNL d   1      60.593  -9.816  32.388  0.00  0.00     0.018 A 
ENDBRANCH   3  14
TORSDOF 1
ENDMDL
