MODEL 1
REMARK VINA RESULT:      12.2      0.000      0.000
REMARK  2 active torsions:
REMARK  status: ('A' for Active; 'I' for Inactive)
REMARK    1  A    between atoms: C_6  and  N_1 
REMARK    2  A    between atoms: C_7  and  C_6 
ROOT
ATOM      1  N   UNL d   1     -52.470  24.170  33.416  0.00  0.00    -0.268 N 
ATOM      2  C   UNL d   1     -52.821  25.176  33.416  0.00  0.00     0.265 A 
ATOM      3  C   UNL d   1     -51.672  24.264  33.381  0.00  0.00     0.067 A 
ATOM      4  C   UNL d   1     -52.138  25.598  33.380  0.00  0.00     0.058 A 
ATOM      5  C   UNL d   1     -51.517  25.075  33.362  0.00  0.00     0.021 A 
ATOM      6  O   UNL d   1     -53.556  25.565  33.441  0.00  0.00    -0.267 OA
ATOM      7  C   UNL d   1     -50.739  25.347  33.325  0.00  0.00     0.002 A 
ATOM      8  C   UNL d   1     -51.047  23.727  33.362  0.00  0.00     0.018 A 
ATOM      9  C   UNL d   1     -51.984  26.414  33.362  0.00  0.00     0.005 A 
ATOM     10  C   UNL d   1     -50.269  23.998  33.325  0.00  0.00     0.002 A 
ATOM     11  C   UNL d   1     -51.206  26.686  33.324  0.00  0.00     0.000 A 
ATOM     12  C   UNL d   1     -50.575  26.143  33.306  0.00  0.00     0.000 A 
ATOM     13  C   UNL d   1     -50.109  24.809  33.306  0.00  0.00     0.000 A 
ENDROOT
BRANCH   1  14
ATOM     14  C   UNL d   1     -52.804  23.406  33.442  0.00  0.00     0.154 C 
BRANCH  14  15
ATOM     15  C   UNL d   1     -53.549  23.316  33.795  0.00  0.00     0.230 C 
ATOM     16  O   UNL d   1     -54.203  23.347  33.316  0.00  0.00    -0.643 OA
ATOM     17  O   UNL d   1     -53.626  23.199  34.587  0.00  0.00    -0.643 OA
ENDBRANCH  14  15
ENDBRANCH   1  14
TORSDOF 2
ENDMDL
MODEL 2
REMARK VINA RESULT:      13.3      1.277      2.813
REMARK  2 active torsions:
REMARK  status: ('A' for Active; 'I' for Inactive)
REMARK    1  A    between atoms: C_6  and  N_1 
REMARK    2  A    between atoms: C_7  and  C_6 
ROOT
ATOM      1  N   UNL d   1     -51.337  25.649  33.310  0.00  0.00    -0.268 N 
ATOM      2  C   UNL d   1     -52.402  25.633  33.308  0.00  0.00     0.265 A 
ATOM      3  C   UNL d   1     -51.152  24.866  33.311  0.00  0.00     0.067 A 
ATOM      4  C   UNL d   1     -52.565  24.846  33.308  0.00  0.00     0.058 A 
ATOM      5  C   UNL d   1     -51.861  24.442  33.310  0.00  0.00     0.021 A 
ATOM      6  O   UNL d   1     -53.020  26.191  33.307  0.00  0.00    -0.267 OA
ATOM      7  C   UNL d   1     -51.849  23.617  33.310  0.00  0.00     0.002 A 
ATOM      8  C   UNL d   1     -50.433  24.462  33.312  0.00  0.00     0.018 A 
ATOM      9  C   UNL d   1     -53.279  24.421  33.308  0.00  0.00     0.005 A 
ATOM     10  C   UNL d   1     -50.421  23.638  33.312  0.00  0.00     0.002 A 
ATOM     11  C   UNL d   1     -53.267  23.597  33.308  0.00  0.00     0.000 A 
ATOM     12  C   UNL d   1     -52.541  23.189  33.309  0.00  0.00     0.000 A 
ATOM     13  C   UNL d   1     -51.128  23.209  33.311  0.00  0.00     0.000 A 
ENDROOT
BRANCH   1  14
ATOM     14  C   UNL d   1     -50.735  26.224  33.310  0.00  0.00     0.154 C 
BRANCH  14  15
ATOM     15  C   UNL d   1     -50.954  27.022  33.368  0.00  0.00     0.230 C 
ATOM     16  O   UNL d   1     -50.367  27.571  33.483  0.00  0.00    -0.643 OA
ATOM     17  O   UNL d   1     -51.723  27.251  33.311  0.00  0.00    -0.643 OA
ENDBRANCH  14  15
ENDBRANCH   1  14
TORSDOF 2
ENDMDL
