MODEL 1
REMARK VINA RESULT:      -9.9      0.000      0.000
REMARK  2 active torsions:
REMARK  status: ('A' for Active; 'I' for Inactive)
REMARK    1  A    between atoms: C_7  and  C_1 
REMARK    2  A    between atoms: O_16  and  C_12 
ROOT
ATOM      1  C   UNL d   1      53.368  31.828  53.697  0.00  0.00     0.105 A 
ATOM      2  C   UNL d   1      53.664  33.453  53.949  0.00  0.00     0.064 A 
ATOM      3  O   UNL d   1      52.735  32.369  53.695  0.00  0.00    -0.307 OA
ATOM      4  C   UNL d   1      54.291  32.910  53.950  0.00  0.00     0.200 A 
ATOM      5  C   UNL d   1      52.883  33.175  53.820  0.00  0.00     0.103 A 
ATOM      6  C   UNL d   1      54.151  32.098  53.825  0.00  0.00     0.067 A 
ATOM      7  C   UNL d   1      53.805  34.252  54.072  0.00  0.00     0.029 A 
ATOM      8  O   UNL d   1      55.062  33.176  54.076  0.00  0.00    -0.286 OA
ATOM      9  C   UNL d   1      52.255  33.719  53.819  0.00  0.00     0.027 A 
ATOM     10  C   UNL d   1      53.180  34.787  54.070  0.00  0.00     0.094 A 
ATOM     11  C   UNL d   1      52.408  34.522  53.944  0.00  0.00     0.026 A 
ENDROOT
BRANCH   1  12
ATOM     12  C   UNL d   1      53.230  31.029  53.575  0.00  0.00     0.050 A 
ATOM     13  C   UNL d   1      52.939  30.772  52.852  0.00  0.00     0.142 A 
ATOM     14  F   UNL d   1      52.786  31.329  52.251  0.00  0.00    -0.204 F 
ATOM     15  C   UNL d   1      52.799  29.971  52.722  0.00  0.00     0.030 A 
ATOM     16  C   UNL d   1      52.951  29.425  53.319  0.00  0.00     0.002 A 
ATOM     17  C   UNL d   1      53.244  29.681  54.047  0.00  0.00     0.000 A 
ATOM     18  C   UNL d   1      53.385  30.481  54.178  0.00  0.00     0.004 A 
ENDBRANCH   1  12
BRANCH  10  19
ATOM     19  O   UNL d   1      53.325  35.589  54.194  0.00  0.00    -0.328 OA
ATOM     20  C   UNL d   1      52.936  35.989  54.801  0.00  0.00     0.181 C 
ENDBRANCH  10  19
TORSDOF 2
ENDMDL
MODEL 2
REMARK VINA RESULT:      -9.6      1.600      3.895
REMARK  2 active torsions:
REMARK  status: ('A' for Active; 'I' for Inactive)
REMARK    1  A    between atoms: C_7  and  C_1 
REMARK    2  A    between atoms: O_16  and  C_12 
ROOT
ATOM      1  C   UNL d   1      52.312  32.663  53.145  0.00  0.00     0.105 A 
ATOM      2  C   UNL d   1      53.217  31.381  53.719  0.00  0.00     0.064 A 
ATOM      3  O   UNL d   1      52.138  31.888  52.895  0.00  0.00    -0.307 OA
ATOM      4  C   UNL d   1      53.388  32.155  53.965  0.00  0.00     0.200 A 
ATOM      5  C   UNL d   1      52.588  31.253  53.181  0.00  0.00     0.103 A 
ATOM      6  C   UNL d   1      52.940  32.799  53.683  0.00  0.00     0.067 A 
ATOM      7  C   UNL d   1      53.659  30.748  53.999  0.00  0.00     0.029 A 
ATOM      8  O   UNL d   1      54.006  32.289  54.495  0.00  0.00    -0.286 OA
ATOM      9  C   UNL d   1      52.417  30.478  52.934  0.00  0.00     0.027 A 
ATOM     10  C   UNL d   1      53.487  29.982  53.752  0.00  0.00     0.094 A 
ATOM     11  C   UNL d   1      52.868  29.848  53.222  0.00  0.00     0.026 A 
ENDROOT
BRANCH   1  12
ATOM     12  C   UNL d   1      51.873  33.296  52.867  0.00  0.00     0.050 A 
ATOM     13  C   UNL d   1      51.143  33.465  53.204  0.00  0.00     0.142 A 
ATOM     14  F   UNL d   1      50.859  32.987  53.825  0.00  0.00    -0.204 F 
ATOM     15  C   UNL d   1      50.697  34.101  52.930  0.00  0.00     0.030 A 
ATOM     16  C   UNL d   1      50.982  34.569  52.317  0.00  0.00     0.002 A 
ATOM     17  C   UNL d   1      51.715  34.402  51.976  0.00  0.00     0.000 A 
ATOM     18  C   UNL d   1      52.162  33.767  52.249  0.00  0.00     0.004 A 
ENDBRANCH   1  12
BRANCH  10  19
ATOM     19  O   UNL d   1      53.933  29.350  54.034  0.00  0.00    -0.328 OA
ATOM     20  C   UNL d   1      53.589  28.796  54.540  0.00  0.00     0.181 C 
ENDBRANCH  10  19
TORSDOF 2
ENDMDL
MODEL 3
REMARK VINA RESULT:      -9.3      1.796      3.346
REMARK  2 active torsions:
REMARK  status: ('A' for Active; 'I' for Inactive)
REMARK    1  A    between atoms: C_7  and  C_1 
REMARK    2  A    between atoms: O_16  and  C_12 
ROOT
ATOM      1  C   UNL d   1      51.721  33.769  53.106  0.00  0.00     0.105 A 
ATOM      2  C   UNL d   1      53.081  33.242  53.920  0.00  0.00     0.064 A 
ATOM      3  O   UNL d   1      52.133  34.292  53.605  0.00  0.00    -0.307 OA
ATOM      4  C   UNL d   1      52.667  32.723  53.422  0.00  0.00     0.200 A 
ATOM      5  C   UNL d   1      52.808  34.029  54.009  0.00  0.00     0.103 A 
ATOM      6  C   UNL d   1      51.988  32.980  53.012  0.00  0.00     0.067 A 
ATOM      7  C   UNL d   1      53.750  32.987  54.323  0.00  0.00     0.029 A 
ATOM      8  O   UNL d   1      52.930  31.947  53.330  0.00  0.00    -0.286 OA
ATOM      9  C   UNL d   1      53.223  34.548  54.508  0.00  0.00     0.027 A 
ATOM     10  C   UNL d   1      54.158  33.504  54.816  0.00  0.00     0.094 A 
ATOM     11  C   UNL d   1      53.895  34.281  54.908  0.00  0.00     0.026 A 
ENDROOT
BRANCH   1  12
ATOM     12  C   UNL d   1      51.054  34.020  52.703  0.00  0.00     0.050 A 
ATOM     13  C   UNL d   1      51.104  34.205  51.904  0.00  0.00     0.142 A 
ATOM     14  F   UNL d   1      51.837  34.133  51.514  0.00  0.00    -0.204 F 
ATOM     15  C   UNL d   1      50.437  34.458  51.493  0.00  0.00     0.030 A 
ATOM     16  C   UNL d   1      49.716  34.526  51.884  0.00  0.00     0.002 A 
ATOM     17  C   UNL d   1      49.661  34.342  52.686  0.00  0.00     0.000 A 
ATOM     18  C   UNL d   1      50.328  34.089  53.098  0.00  0.00     0.004 A 
ENDBRANCH   1  12
BRANCH  10  19
ATOM     19  O   UNL d   1      54.828  33.245  55.219  0.00  0.00    -0.328 OA
ATOM     20  C   UNL d   1      55.479  33.745  55.301  0.00  0.00     0.181 C 
ENDBRANCH  10  19
TORSDOF 2
ENDMDL
MODEL 4
REMARK VINA RESULT:      -9.2      1.992      3.225
REMARK  2 active torsions:
REMARK  status: ('A' for Active; 'I' for Inactive)
REMARK    1  A    between atoms: C_7  and  C_1 
REMARK    2  A    between atoms: O_16  and  C_12 
ROOT
ATOM      1  C   UNL d   1      53.399  33.526  53.901  0.00  0.00     0.105 A 
ATOM      2  C   UNL d   1      52.053  33.462  52.914  0.00  0.00     0.064 A 
ATOM      3  O   UNL d   1      52.856  34.157  53.899  0.00  0.00    -0.307 OA
ATOM      4  C   UNL d   1      52.596  32.834  52.918  0.00  0.00     0.200 A 
ATOM      5  C   UNL d   1      52.188  34.124  53.408  0.00  0.00     0.103 A 
ATOM      6  C   UNL d   1      53.270  32.860  53.409  0.00  0.00     0.067 A 
ATOM      7  C   UNL d   1      51.390  33.434  52.429  0.00  0.00     0.029 A 
ATOM      8  O   UNL d   1      52.469  32.179  52.434  0.00  0.00    -0.286 OA
ATOM      9  C   UNL d   1      51.645  34.752  53.403  0.00  0.00     0.027 A 
ATOM     10  C   UNL d   1      50.854  34.058  52.427  0.00  0.00     0.094 A 
ATOM     11  C   UNL d   1      50.981  34.714  52.912  0.00  0.00     0.026 A 
ENDROOT
BRANCH   1  12
ATOM     12  C   UNL d   1      54.061  33.550  54.383  0.00  0.00     0.050 A 
ATOM     13  C   UNL d   1      54.030  33.225  55.136  0.00  0.00     0.142 A 
ATOM     14  F   UNL d   1      53.322  32.873  55.401  0.00  0.00    -0.204 F 
ATOM     15  C   UNL d   1      54.692  33.246  55.625  0.00  0.00     0.030 A 
ATOM     16  C   UNL d   1      55.388  33.594  55.359  0.00  0.00     0.002 A 
ATOM     17  C   UNL d   1      55.423  33.922  54.603  0.00  0.00     0.000 A 
ATOM     18  C   UNL d   1      54.762  33.902  54.113  0.00  0.00     0.004 A 
ENDBRANCH   1  12
BRANCH  10  19
ATOM     19  O   UNL d   1      50.190  34.027  51.941  0.00  0.00    -0.328 OA
ATOM     20  C   UNL d   1      49.514  34.458  52.137  0.00  0.00     0.181 C 
ENDBRANCH  10  19
TORSDOF 2
ENDMDL
MODEL 5
REMARK VINA RESULT:      -9.0      1.660      4.037
REMARK  2 active torsions:
REMARK  status: ('A' for Active; 'I' for Inactive)
REMARK    1  A    between atoms: C_7  and  C_1 
REMARK    2  A    between atoms: O_16  and  C_12 
ROOT
ATOM      1  C   UNL d   1      53.951  32.437  54.076  0.00  0.00     0.105 A 
ATOM      2  C   UNL d   1      53.056  31.284  53.265  0.00  0.00     0.064 A 
ATOM      3  O   UNL d   1      54.025  31.635  54.284  0.00  0.00    -0.307 OA
ATOM      4  C   UNL d   1      52.986  32.085  53.061  0.00  0.00     0.200 A 
ATOM      5  C   UNL d   1      53.580  31.063  53.880  0.00  0.00     0.103 A 
ATOM      6  C   UNL d   1      53.430  32.666  53.462  0.00  0.00     0.067 A 
ATOM      7  C   UNL d   1      52.618  30.713  52.868  0.00  0.00     0.029 A 
ATOM      8  O   UNL d   1      52.472  32.310  52.456  0.00  0.00    -0.286 OA
ATOM      9  C   UNL d   1      53.650  30.261  54.084  0.00  0.00     0.027 A 
ATOM     10  C   UNL d   1      52.690  29.920  53.073  0.00  0.00     0.094 A 
ATOM     11  C   UNL d   1      53.205  29.694  53.679  0.00  0.00     0.026 A 
ENDROOT
BRANCH   1  12
ATOM     12  C   UNL d   1      54.387  33.009  54.470  0.00  0.00     0.050 A 
ATOM     13  C   UNL d   1      55.101  33.265  54.157  0.00  0.00     0.142 A 
ATOM     14  F   UNL d   1      55.373  32.938  53.439  0.00  0.00    -0.204 F 
ATOM     15  C   UNL d   1      55.544  33.839  54.547  0.00  0.00     0.030 A 
ATOM     16  C   UNL d   1      55.271  34.158  55.255  0.00  0.00     0.002 A 
ATOM     17  C   UNL d   1      54.553  33.902  55.573  0.00  0.00     0.000 A 
ATOM     18  C   UNL d   1      54.110  33.329  55.183  0.00  0.00     0.004 A 
ENDBRANCH   1  12
BRANCH  10  19
ATOM     19  O   UNL d   1      52.249  29.350  52.674  0.00  0.00    -0.328 OA
ATOM     20  C   UNL d   1      52.220  28.577  52.959  0.00  0.00     0.181 C 
ENDBRANCH  10  19
TORSDOF 2
ENDMDL
