MODEL 1
REMARK VINA RESULT:      59.9      0.000      0.000
REMARK  6 active torsions:
REMARK  status: ('A' for Active; 'I' for Inactive)
REMARK    1  A    between atoms: C_7  and  C_1 
REMARK    2  A    between atoms: C_6  and  O_13 
REMARK    3  A    between atoms: C_12  and  C_6 
REMARK    4  A    between atoms: O_13  and  C_10 
REMARK    5  A    between atoms: C_28  and  C_14 
REMARK    6  A    between atoms: C_31  and  C_28 
ROOT
ATOM      1  C   UNL d   1      45.277 -17.833  40.116  0.00  0.00     0.064 A 
ATOM      2  C   UNL d   1      45.406 -16.988  38.975  0.00  0.00     0.062 A 
ATOM      3  C   UNL d   1      45.748 -17.383  39.612  0.00  0.00     0.199 A 
ATOM      4  C   UNL d   1      44.466 -17.888  39.984  0.00  0.00     0.126 A 
ATOM      5  C   UNL d   1      44.594 -17.043  38.843  0.00  0.00     0.105 A 
ATOM      6  O   UNL d   1      44.123 -17.493  39.347  0.00  0.00    -0.305 OA
ATOM      7  C   UNL d   1      45.876 -16.538  38.472  0.00  0.00     0.007 A 
ATOM      8  C   UNL d   1      44.723 -16.196  37.699  0.00  0.00     0.105 A 
ATOM      9  C   UNL d   1      44.252 -16.649  38.207  0.00  0.00     0.050 A 
ATOM     10  C   UNL d   1      45.534 -16.141  37.832  0.00  0.00     0.023 A 
ATOM     11  O   UNL d   1      46.560 -17.328  39.745  0.00  0.00    -0.286 OA
ENDROOT
BRANCH   1  12
ATOM     12  C   UNL d   1      45.620 -18.228  40.753  0.00  0.00     0.007 A 
ATOM     13  C   UNL d   1      45.381 -18.053  41.533  0.00  0.00     0.027 A 
ATOM     14  C   UNL d   1      45.718 -18.441  42.166  0.00  0.00     0.123 A 
ATOM     15  O   UNL d   1      45.479 -18.265  42.934  0.00  0.00    -0.301 OA
ATOM     16  C   UNL d   1      46.307 -19.021  42.037  0.00  0.00     0.123 A 
ATOM     17  C   UNL d   1      45.821 -18.660  43.575  0.00  0.00     0.149 A 
ATOM     18  C   UNL d   1      46.403 -19.232  43.451  0.00  0.00     0.149 A 
ATOM     19  O   UNL d   1      46.647 -19.414  42.675  0.00  0.00    -0.301 OA
ATOM     20  C   UNL d   1      46.546 -19.196  41.257  0.00  0.00     0.027 A 
ATOM     21  C   UNL d   1      46.203 -18.801  40.621  0.00  0.00     0.002 A 
ENDBRANCH   1  12
BRANCH  10  22
ATOM     22  C   UNL d   1      46.006 -15.686  37.321  0.00  0.00     0.002 C 
BRANCH  22  23
ATOM     23  C   UNL d   1      46.382 -15.009  37.600  0.00  0.00     0.000 C 
ATOM     24  C   UNL d   1      46.647 -14.437  37.075  0.00  0.00     0.000 C 
ENDBRANCH  22  23
ENDBRANCH  10  22
BRANCH   8  25
ATOM     25  O   UNL d   1      44.381 -15.797  37.056  0.00  0.00    -0.271 OA
BRANCH  25  26
ATOM     26  C   UNL d   1      43.724 -16.116  36.672  0.00  0.00     0.323 C 
ATOM     27  O   UNL d   1      43.761 -16.862  36.334  0.00  0.00    -0.257 OA
BRANCH  26  28
ATOM     28  C   UNL d   1      43.021 -15.680  36.628  0.00  0.00     0.163 A 
ATOM     29  O   UNL d   1      42.915 -14.902  36.872  0.00  0.00    -0.300 OA
ATOM     30  C   UNL d   1      42.132 -14.684  36.728  0.00  0.00     0.123 A 
ATOM     31  C   UNL d   1      41.751 -15.340  36.390  0.00  0.00     0.029 A 
ATOM     32  C   UNL d   1      42.307 -15.955  36.330  0.00  0.00     0.032 A 
ENDBRANCH  26  28
ENDBRANCH  25  26
ENDBRANCH   8  25
TORSDOF 6
ENDMDL
