MODEL 1
REMARK VINA RESULT:      44.0      0.000      0.000
REMARK  2 active torsions:
REMARK  status: ('A' for Active; 'I' for Inactive)
REMARK    1  A    between atoms: C_6  and  C_1 
REMARK    2  A    between atoms: C_7  and  C_3 
ROOT
ATOM      1  C   UNL d   1     -58.952 -98.933 -44.971  0.00  0.00     0.081 A 
ATOM      2  N   UNL d   1     -59.660 -98.942 -44.557  0.00  0.00    -0.246 NA
ATOM      3  C   UNL d   1     -58.340 -98.868 -44.427  0.00  0.00     0.019 A 
ATOM      4  C   UNL d   1     -58.669 -98.838 -43.678  0.00  0.00     0.019 A 
ATOM      5  C   UNL d   1     -59.484 -98.882 -43.751  0.00  0.00     0.081 A 
ATOM      6  C   UNL d   1     -58.315 -98.773 -42.931  0.00  0.00     0.002 A 
ATOM      7  C   UNL d   1     -59.960 -98.864 -43.077  0.00  0.00     0.019 A 
ATOM      8  C   UNL d   1     -58.800 -98.755 -42.258  0.00  0.00     0.000 A 
ATOM      9  C   UNL d   1     -59.623 -98.800 -42.332  0.00  0.00     0.002 A 
ENDROOT
BRANCH   1  10
ATOM     10  C   UNL d   1     -59.090 -98.991 -45.787  0.00  0.00     0.018 A 
ATOM     11  C   UNL d   1     -58.508 -98.756 -46.312  0.00  0.00     0.002 A 
ATOM     12  C   UNL d   1     -58.646 -98.814 -47.120  0.00  0.00     0.000 A 
ATOM     13  C   UNL d   1     -59.360 -99.104 -47.402  0.00  0.00     0.000 A 
ATOM     14  C   UNL d   1     -59.942 -99.339 -46.864  0.00  0.00     0.000 A 
ATOM     15  C   UNL d   1     -59.807 -99.282 -46.061  0.00  0.00     0.002 A 
ENDBRANCH   1  10
BRANCH   3  16
ATOM     16  C   UNL d   1     -57.532 -98.840 -44.614  0.00  0.00     0.002 A 
ATOM     17  C   UNL d   1     -56.964 -98.860 -44.015  0.00  0.00     0.000 A 
ATOM     18  C   UNL d   1     -56.167 -98.832 -44.203  0.00  0.00     0.000 A 
ATOM     19  C   UNL d   1     -55.919 -98.784 -44.996  0.00  0.00     0.000 A 
ATOM     20  C   UNL d   1     -56.491 -98.763 -45.601  0.00  0.00     0.000 A 
ATOM     21  C   UNL d   1     -57.296 -98.791 -45.408  0.00  0.00     0.000 A 
ENDBRANCH   3  16
TORSDOF 2
ENDMDL
