MODEL 1
REMARK VINA RESULT:      -7.6      0.000      0.000
REMARK  4 active torsions:
REMARK  status: ('A' for Active; 'I' for Inactive)
REMARK    1  A    between atoms: N_8  and  C_3 
REMARK    2  A    between atoms: C_9  and  C_4 
REMARK    3  A    between atoms: C_15  and  N_8 
REMARK    4  A    between atoms: C_10  and  C_15 
ROOT
ATOM      1  C   UNL d   1     -46.514  13.286  22.754  0.00  0.00     0.192 A 
ATOM      2  N   UNL d   1     -47.303  13.460  22.652  0.00  0.00    -0.208 NA
ATOM      3  C   UNL d   1     -46.442  12.518  23.017  0.00  0.00     0.212 A 
ATOM      4  C   UNL d   1     -47.744  12.766  22.861  0.00  0.00     0.185 A 
ATOM      5  O   UNL d   1     -47.193  12.182  23.088  0.00  0.00    -0.269 OA
ATOM      6  C   UNL d   1     -45.866  13.798  22.618  0.00  0.00     0.124 C 
ATOM      7  N   UNL d   1     -45.226  14.314  22.480  0.00  0.00    -0.190 NA
ENDROOT
BRANCH   3   8
ATOM      8  N   UNL d   1     -45.698  12.137  23.187  0.00  0.00    -0.217 NA
BRANCH   8   9
ATOM      9  C   UNL d   1     -45.665  11.328  23.293  0.00  0.00     0.126 C 
BRANCH   9  10
ATOM     10  C   UNL d   1     -44.925  10.959  23.349  0.00  0.00     0.119 A 
ATOM     11  O   UNL d   1     -44.166  11.179  23.127  0.00  0.00    -0.304 OA
ATOM     12  C   UNL d   1     -43.653  10.572  23.329  0.00  0.00     0.123 A 
ATOM     13  C   UNL d   1     -44.074   9.979  23.671  0.00  0.00     0.029 A 
ATOM     14  C   UNL d   1     -44.860  10.196  23.694  0.00  0.00     0.028 A 
ENDBRANCH   9  10
ENDBRANCH   8   9
ENDBRANCH   3   8
BRANCH   4  15
ATOM     15  C   UNL d   1     -48.570  12.706  22.835  0.00  0.00     0.041 A 
ATOM     16  C   UNL d   1     -49.034  13.110  23.383  0.00  0.00     0.004 A 
ATOM     17  C   UNL d   1     -49.853  13.052  23.359  0.00  0.00     0.000 A 
ATOM     18  C   UNL d   1     -50.217  12.589  22.787  0.00  0.00     0.000 A 
ATOM     19  C   UNL d   1     -49.748  12.186  22.240  0.00  0.00     0.000 A 
ATOM     20  C   UNL d   1     -51.064  12.539  22.775  0.00  0.00     0.000 C 
ATOM     21  C   UNL d   1     -48.930  12.244  22.264  0.00  0.00     0.004 A 
ENDBRANCH   4  15
TORSDOF 4
ENDMDL
MODEL 2
REMARK VINA RESULT:      -6.5      1.691      2.352
REMARK  4 active torsions:
REMARK  status: ('A' for Active; 'I' for Inactive)
REMARK    1  A    between atoms: N_8  and  C_3 
REMARK    2  A    between atoms: C_9  and  C_4 
REMARK    3  A    between atoms: C_15  and  N_8 
REMARK    4  A    between atoms: C_10  and  C_15 
ROOT
ATOM      1  C   UNL d   1     -46.907  12.223  23.224  0.00  0.00     0.192 A 
ATOM      2  N   UNL d   1     -47.628  12.591  23.317  0.00  0.00    -0.208 NA
ATOM      3  C   UNL d   1     -46.392  12.736  22.857  0.00  0.00     0.212 A 
ATOM      4  C   UNL d   1     -47.557  13.372  22.992  0.00  0.00     0.185 A 
ATOM      5  O   UNL d   1     -46.776  13.450  22.707  0.00  0.00    -0.269 OA
ATOM      6  C   UNL d   1     -46.709  11.445  23.460  0.00  0.00     0.124 C 
ATOM      7  N   UNL d   1     -46.518  10.669  23.697  0.00  0.00    -0.190 NA
ENDROOT
BRANCH   3   8
ATOM      8  N   UNL d   1     -45.582  12.546  22.666  0.00  0.00    -0.217 NA
BRANCH   8   9
ATOM      9  C   UNL d   1     -45.174  12.989  22.116  0.00  0.00     0.126 C 
BRANCH   9  10
ATOM     10  C   UNL d   1     -44.397  12.775  21.921  0.00  0.00     0.119 A 
ATOM     11  O   UNL d   1     -43.905  12.161  22.155  0.00  0.00    -0.304 OA
ATOM     12  C   UNL d   1     -43.188  12.244  21.766  0.00  0.00     0.123 A 
ATOM     13  C   UNL d   1     -43.222  12.894  21.295  0.00  0.00     0.029 A 
ATOM     14  C   UNL d   1     -43.958  13.237  21.375  0.00  0.00     0.028 A 
ENDBRANCH   9  10
ENDBRANCH   8   9
ENDBRANCH   3   8
BRANCH   4  15
ATOM     15  C   UNL d   1     -48.165  13.933  22.973  0.00  0.00     0.041 A 
ATOM     16  C   UNL d   1     -48.055  14.656  22.591  0.00  0.00     0.004 A 
ATOM     17  C   UNL d   1     -48.657  15.213  22.572  0.00  0.00     0.000 A 
ATOM     18  C   UNL d   1     -49.377  15.056  22.935  0.00  0.00     0.000 A 
ATOM     19  C   UNL d   1     -49.483  14.332  23.316  0.00  0.00     0.000 A 
ATOM     20  C   UNL d   1     -49.990  15.642  22.906  0.00  0.00     0.000 C 
ATOM     21  C   UNL d   1     -48.882  13.774  23.335  0.00  0.00     0.004 A 
ENDBRANCH   4  15
TORSDOF 4
ENDMDL
MODEL 3
REMARK VINA RESULT:      -6.4      1.673      2.542
REMARK  4 active torsions:
REMARK  status: ('A' for Active; 'I' for Inactive)
REMARK    1  A    between atoms: N_8  and  C_3 
REMARK    2  A    between atoms: C_9  and  C_4 
REMARK    3  A    between atoms: C_15  and  N_8 
REMARK    4  A    between atoms: C_10  and  C_15 
ROOT
ATOM      1  C   UNL d   1     -48.157  12.339  23.396  0.00  0.00     0.192 A 
ATOM      2  N   UNL d   1     -48.868  12.729  23.483  0.00  0.00    -0.208 NA
ATOM      3  C   UNL d   1     -47.594  12.868  23.136  0.00  0.00     0.212 A 
ATOM      4  C   UNL d   1     -48.740  13.539  23.267  0.00  0.00     0.185 A 
ATOM      5  O   UNL d   1     -47.937  13.614  23.052  0.00  0.00    -0.269 OA
ATOM      6  C   UNL d   1     -48.009  11.529  23.543  0.00  0.00     0.124 C 
ATOM      7  N   UNL d   1     -47.869  10.721  23.692  0.00  0.00    -0.190 NA
ENDROOT
BRANCH   3   8
ATOM      8  N   UNL d   1     -46.781  12.663  22.981  0.00  0.00    -0.217 NA
BRANCH   8   9
ATOM      9  C   UNL d   1     -46.272  13.214  22.659  0.00  0.00     0.126 C 
BRANCH   9  10
ATOM     10  C   UNL d   1     -45.512  12.975  22.427  0.00  0.00     0.119 A 
ATOM     11  O   UNL d   1     -45.001  12.388  22.688  0.00  0.00    -0.304 OA
ATOM     12  C   UNL d   1     -44.318  12.423  22.237  0.00  0.00     0.123 A 
ATOM     13  C   UNL d   1     -44.391  13.017  21.701  0.00  0.00     0.029 A 
ATOM     14  C   UNL d   1     -45.119  13.371  21.800  0.00  0.00     0.028 A 
ENDBRANCH   9  10
ENDBRANCH   8   9
ENDBRANCH   3   8
BRANCH   4  15
ATOM     15  C   UNL d   1     -49.322  14.128  23.278  0.00  0.00     0.041 A 
ATOM     16  C   UNL d   1     -49.117  14.919  23.170  0.00  0.00     0.004 A 
ATOM     17  C   UNL d   1     -49.692  15.504  23.180  0.00  0.00     0.000 A 
ATOM     18  C   UNL d   1     -50.480  15.306  23.298  0.00  0.00     0.000 A 
ATOM     19  C   UNL d   1     -50.682  14.513  23.405  0.00  0.00     0.000 A 
ATOM     20  C   UNL d   1     -51.064  15.922  23.306  0.00  0.00     0.000 C 
ATOM     21  C   UNL d   1     -50.107  13.928  23.395  0.00  0.00     0.004 A 
ENDBRANCH   4  15
TORSDOF 4
ENDMDL
MODEL 4
REMARK VINA RESULT:      -6.4      1.898      5.074
REMARK  4 active torsions:
REMARK  status: ('A' for Active; 'I' for Inactive)
REMARK    1  A    between atoms: N_8  and  C_3 
REMARK    2  A    between atoms: C_9  and  C_4 
REMARK    3  A    between atoms: C_15  and  N_8 
REMARK    4  A    between atoms: C_10  and  C_15 
ROOT
ATOM      1  C   UNL d   1     -48.292  12.311  23.208  0.00  0.00     0.192 A 
ATOM      2  N   UNL d   1     -47.542  12.071  22.999  0.00  0.00    -0.208 NA
ATOM      3  C   UNL d   1     -48.327  13.124  23.186  0.00  0.00     0.212 A 
ATOM      4  C   UNL d   1     -47.089  12.770  22.840  0.00  0.00     0.185 A 
ATOM      5  O   UNL d   1     -47.592  13.424  22.961  0.00  0.00    -0.269 OA
ATOM      6  C   UNL d   1     -48.936  11.818  23.415  0.00  0.00     0.124 C 
ATOM      7  N   UNL d   1     -49.573  11.320  23.619  0.00  0.00    -0.190 NA
ENDROOT
BRANCH   3   8
ATOM      8  N   UNL d   1     -49.025  13.579  23.372  0.00  0.00    -0.217 NA
BRANCH   8   9
ATOM      9  C   UNL d   1     -49.090  14.353  23.122  0.00  0.00     0.126 C 
BRANCH   9  10
ATOM     10  C   UNL d   1     -49.762  14.791  23.333  0.00  0.00     0.119 A 
ATOM     11  O   UNL d   1     -50.526  14.582  23.552  0.00  0.00    -0.304 OA
ATOM     12  C   UNL d   1     -50.948  15.269  23.698  0.00  0.00     0.123 A 
ATOM     13  C   UNL d   1     -50.467  15.901  23.575  0.00  0.00     0.029 A 
ATOM     14  C   UNL d   1     -49.731  15.629  23.350  0.00  0.00     0.028 A 
ENDBRANCH   9  10
ENDBRANCH   8   9
ENDBRANCH   3   8
BRANCH   4  15
ATOM     15  C   UNL d   1     -46.293  12.774  22.608  0.00  0.00     0.041 A 
ATOM     16  C   UNL d   1     -46.011  13.357  22.098  0.00  0.00     0.004 A 
ATOM     17  C   UNL d   1     -45.223  13.362  21.868  0.00  0.00     0.000 A 
ATOM     18  C   UNL d   1     -44.708  12.786  22.144  0.00  0.00     0.000 A 
ATOM     19  C   UNL d   1     -44.995  12.204  22.655  0.00  0.00     0.000 A 
ATOM     20  C   UNL d   1     -43.896  12.805  21.897  0.00  0.00     0.000 C 
ATOM     21  C   UNL d   1     -45.782  12.198  22.885  0.00  0.00     0.004 A 
ENDBRANCH   4  15
TORSDOF 4
ENDMDL
MODEL 5
REMARK VINA RESULT:      -6.2      1.079      4.557
REMARK  4 active torsions:
REMARK  status: ('A' for Active; 'I' for Inactive)
REMARK    1  A    between atoms: N_8  and  C_3 
REMARK    2  A    between atoms: C_9  and  C_4 
REMARK    3  A    between atoms: C_15  and  N_8 
REMARK    4  A    between atoms: C_10  and  C_15 
ROOT
ATOM      1  C   UNL d   1     -47.025  13.315  22.967  0.00  0.00     0.192 A 
ATOM      2  N   UNL d   1     -46.283  12.980  22.974  0.00  0.00    -0.208 NA
ATOM      3  C   UNL d   1     -47.574  12.751  23.177  0.00  0.00     0.212 A 
ATOM      4  C   UNL d   1     -46.375  12.167  23.199  0.00  0.00     0.185 A 
ATOM      5  O   UNL d   1     -47.189  12.036  23.324  0.00  0.00    -0.269 OA
ATOM      6  C   UNL d   1     -47.215  14.107  22.778  0.00  0.00     0.124 C 
ATOM      7  N   UNL d   1     -47.396  14.899  22.588  0.00  0.00    -0.190 NA
ENDROOT
BRANCH   3   8
ATOM      8  N   UNL d   1     -48.413  12.895  23.231  0.00  0.00    -0.217 NA
BRANCH   8   9
ATOM      9  C   UNL d   1     -48.937  12.270  23.268  0.00  0.00     0.126 C 
BRANCH   9  10
ATOM     10  C   UNL d   1     -49.742  12.425  23.398  0.00  0.00     0.119 A 
ATOM     11  O   UNL d   1     -50.190  13.113  23.404  0.00  0.00    -0.304 OA
ATOM     12  C   UNL d   1     -50.967  12.911  23.567  0.00  0.00     0.123 A 
ATOM     13  C   UNL d   1     -51.014  12.114  23.664  0.00  0.00     0.029 A 
ATOM     14  C   UNL d   1     -50.270  11.795  23.564  0.00  0.00     0.028 A 
ENDBRANCH   9  10
ENDBRANCH   8   9
ENDBRANCH   3   8
BRANCH   4  15
ATOM     15  C   UNL d   1     -45.753  11.624  23.274  0.00  0.00     0.041 A 
ATOM     16  C   UNL d   1     -45.000  11.813  22.998  0.00  0.00     0.004 A 
ATOM     17  C   UNL d   1     -44.383  11.277  23.071  0.00  0.00     0.000 A 
ATOM     18  C   UNL d   1     -44.511  10.546  23.422  0.00  0.00     0.000 A 
ATOM     19  C   UNL d   1     -45.266  10.361  23.698  0.00  0.00     0.000 A 
ATOM     20  C   UNL d   1     -43.862  10.002  23.491  0.00  0.00     0.000 C 
ATOM     21  C   UNL d   1     -45.883  10.896  23.625  0.00  0.00     0.004 A 
ENDBRANCH   4  15
TORSDOF 4
ENDMDL
MODEL 6
REMARK VINA RESULT:      -5.9      8.244      9.828
REMARK  4 active torsions:
REMARK  status: ('A' for Active; 'I' for Inactive)
REMARK    1  A    between atoms: N_8  and  C_3 
REMARK    2  A    between atoms: C_9  and  C_4 
REMARK    3  A    between atoms: C_15  and  N_8 
REMARK    4  A    between atoms: C_10  and  C_15 
ROOT
ATOM      1  C   UNL d   1     -40.565  15.367  17.771  0.00  0.00     0.192 A 
ATOM      2  N   UNL d   1     -40.702  15.446  18.571  0.00  0.00    -0.208 NA
ATOM      3  C   UNL d   1     -39.790  15.149  17.654  0.00  0.00     0.212 A 
ATOM      4  C   UNL d   1     -39.974  15.267  18.970  0.00  0.00     0.185 A 
ATOM      5  O   UNL d   1     -39.410  15.082  18.383  0.00  0.00    -0.269 OA
ATOM      6  C   UNL d   1     -41.118  15.488  17.155  0.00  0.00     0.124 C 
ATOM      7  N   UNL d   1     -41.675  15.609  16.547  0.00  0.00    -0.190 NA
ENDROOT
BRANCH   3   8
ATOM      8  N   UNL d   1     -39.441  15.014  16.887  0.00  0.00    -0.217 NA
BRANCH   8   9
ATOM      9  C   UNL d   1     -38.730  14.619  16.821  0.00  0.00     0.126 C 
BRANCH   9  10
ATOM     10  C   UNL d   1     -38.420  14.468  16.067  0.00  0.00     0.119 A 
ATOM     11  O   UNL d   1     -38.230  14.948  15.429  0.00  0.00    -0.304 OA
ATOM     12  C   UNL d   1     -37.940  14.473  14.828  0.00  0.00     0.123 A 
ATOM     13  C   UNL d   1     -37.944  13.708  15.076  0.00  0.00     0.029 A 
ATOM     14  C   UNL d   1     -38.236  13.682  15.837  0.00  0.00     0.028 A 
ENDBRANCH   9  10
ENDBRANCH   8   9
ENDBRANCH   3   8
BRANCH   4  15
ATOM     15  C   UNL d   1     -39.871  15.280  19.791  0.00  0.00     0.041 A 
ATOM     16  C   UNL d   1     -39.472  15.906  20.151  0.00  0.00     0.004 A 
ATOM     17  C   UNL d   1     -39.369  15.921  20.965  0.00  0.00     0.000 A 
ATOM     18  C   UNL d   1     -39.662  15.311  21.430  0.00  0.00     0.000 A 
ATOM     19  C   UNL d   1     -40.061  14.686  21.066  0.00  0.00     0.000 A 
ATOM     20  C   UNL d   1     -39.547  15.341  22.270  0.00  0.00     0.000 C 
ATOM     21  C   UNL d   1     -40.164  14.671  20.252  0.00  0.00     0.004 A 
ENDBRANCH   4  15
TORSDOF 4
ENDMDL
MODEL 7
REMARK VINA RESULT:      -5.3      7.585      9.029
REMARK  4 active torsions:
REMARK  status: ('A' for Active; 'I' for Inactive)
REMARK    1  A    between atoms: N_8  and  C_3 
REMARK    2  A    between atoms: C_9  and  C_4 
REMARK    3  A    between atoms: C_15  and  N_8 
REMARK    4  A    between atoms: C_10  and  C_15 
ROOT
ATOM      1  C   UNL d   1     -40.460  15.216  20.114  0.00  0.00     0.192 A 
ATOM      2  N   UNL d   1     -40.411  15.253  19.301  0.00  0.00    -0.208 NA
ATOM      3  C   UNL d   1     -39.836  14.777  20.399  0.00  0.00     0.212 A 
ATOM      4  C   UNL d   1     -39.722  14.814  19.070  0.00  0.00     0.185 A 
ATOM      5  O   UNL d   1     -39.371  14.521  19.767  0.00  0.00    -0.269 OA
ATOM      6  C   UNL d   1     -41.047  15.566  20.596  0.00  0.00     0.124 C 
ATOM      7  N   UNL d   1     -41.636  15.918  21.070  0.00  0.00    -0.190 NA
ENDROOT
BRANCH   3   8
ATOM      8  N   UNL d   1     -39.701  14.617  21.226  0.00  0.00    -0.217 NA
BRANCH   8   9
ATOM      9  C   UNL d   1     -39.070  14.154  21.458  0.00  0.00     0.126 C 
BRANCH   9  10
ATOM     10  C   UNL d   1     -38.910  14.066  22.267  0.00  0.00     0.119 A 
ATOM     11  O   UNL d   1     -38.838  14.597  22.889  0.00  0.00    -0.304 OA
ATOM     12  C   UNL d   1     -38.673  14.172  23.570  0.00  0.00     0.123 A 
ATOM     13  C   UNL d   1     -38.641  13.390  23.388  0.00  0.00     0.029 A 
ATOM     14  C   UNL d   1     -38.783  13.302  22.590  0.00  0.00     0.028 A 
ENDBRANCH   9  10
ENDBRANCH   8   9
ENDBRANCH   3   8
BRANCH   4  15
ATOM     15  C   UNL d   1     -39.469  14.712  18.288  0.00  0.00     0.041 A 
ATOM     16  C   UNL d   1     -38.983  15.273  17.930  0.00  0.00     0.004 A 
ATOM     17  C   UNL d   1     -38.731  15.174  17.156  0.00  0.00     0.000 A 
ATOM     18  C   UNL d   1     -38.961  14.511  16.729  0.00  0.00     0.000 A 
ATOM     19  C   UNL d   1     -39.447  13.951  17.091  0.00  0.00     0.000 A 
ATOM     20  C   UNL d   1     -38.692  14.422  15.929  0.00  0.00     0.000 C 
ATOM     21  C   UNL d   1     -39.700  14.050  17.865  0.00  0.00     0.004 A 
ENDBRANCH   4  15
TORSDOF 4
ENDMDL
