MODEL 1
REMARK VINA RESULT:       5.7      0.000      0.000
REMARK  9 active torsions:
REMARK  status: ('A' for Active; 'I' for Inactive)
REMARK       I    between atoms: C_2  and  N_1 
REMARK    1  A    between atoms: C_3  and  C_2 
REMARK    2  A    between atoms: C_15  and  C_4 
REMARK       I    between atoms: C_5  and  N_9 
REMARK    3  A    between atoms: C_6  and  C_5 
REMARK       I    between atoms: N_21  and  C_6 
REMARK    4  A    between atoms: N_9  and  C_15 
REMARK    5  A    between atoms: C_25  and  N_21 
REMARK    6  A    between atoms: N_23  and  C_26 
REMARK    7  A    between atoms: C_27  and  N_23 
REMARK    8  A    between atoms: C_28  and  N_23 
REMARK    9  A    between atoms: C_26  and  C_25 
ROOT
ATOM      1  N   UNL d   1     -41.512-121.767 -53.139  0.00  0.00    -0.250 N 
ATOM      2  C   UNL d   1     -41.745-122.385 -53.638  0.00  0.00     0.266 C 
ATOM      3  C   UNL d   1     -41.330-121.817 -52.333  0.00  0.00     0.190 A 
ATOM      4  O   UNL d   1     -41.816-123.151 -53.333  0.00  0.00    -0.267 OA
ATOM      5  O   UNL d   1     -41.126-121.072 -52.058  0.00  0.00    -0.285 OA
ATOM      6  C   UNL d   1     -41.415-120.974 -53.353  0.00  0.00     0.112 A 
ATOM      7  C   UNL d   1     -41.178-120.548 -52.690  0.00  0.00     0.144 A 
ENDROOT
BRANCH   3   8
ATOM      8  C   UNL d   1     -41.354-122.518 -51.883  0.00  0.00     0.146 C 
BRANCH   8   9
ATOM      9  N   UNL d   1     -41.788-122.537 -51.183  0.00  0.00    -0.199 NA
ATOM     10  C   UNL d   1     -41.687-123.160 -50.658  0.00  0.00     0.337 C 
ATOM     11  O   UNL d   1     -41.154-123.770 -50.825  0.00  0.00    -0.260 OA
BRANCH  10  12
ATOM     12  C   UNL d   1     -42.121-123.180 -49.957  0.00  0.00     0.337 C 
ATOM     13  O   UNL d   1     -42.622-123.813 -49.801  0.00  0.00    -0.260 OA
ATOM     14  N   UNL d   1     -42.051-122.567 -49.418  0.00  0.00    -0.201 NA
BRANCH  14  15
ATOM     15  C   UNL d   1     -42.383-122.389 -48.674  0.00  0.00     0.121 C 
BRANCH  15  16
ATOM     16  C   UNL d   1     -41.928-122.316 -47.993  0.00  0.00     0.101 C 
BRANCH  16  17
ATOM     17  N   UNL d   1     -41.960-122.898 -47.415  0.00  0.00    -0.301 N 
BRANCH  17  18
ATOM     18  C   UNL d   1     -41.435-123.521 -47.407  0.00  0.00     0.080 C 
ATOM     19  C   UNL d   1     -41.123-123.817 -46.693  0.00  0.00     0.021 C 
ENDBRANCH  17  18
BRANCH  17  20
ATOM     20  C   UNL d   1     -42.551-122.848 -46.815  0.00  0.00     0.080 C 
ATOM     21  C   UNL d   1     -43.154-123.424 -46.782  0.00  0.00     0.021 C 
ENDBRANCH  17  20
ENDBRANCH  16  17
ENDBRANCH  15  16
ENDBRANCH  14  15
ENDBRANCH  10  12
ENDBRANCH   8   9
ENDBRANCH   3   8
BRANCH   2  22
ATOM     22  C   UNL d   1     -41.903-122.224 -54.431  0.00  0.00     0.059 A 
ATOM     23  C   UNL d   1     -42.642-122.350 -54.753  0.00  0.00     0.031 A 
ATOM     24  C   UNL d   1     -42.800-122.189 -55.546  0.00  0.00     0.119 A 
ATOM     25  O   UNL d   1     -43.475-122.260 -56.011  0.00  0.00    -0.300 OA
ATOM     26  C   UNL d   1     -42.183-121.889 -56.026  0.00  0.00     0.119 A 
ATOM     27  C   UNL d   1     -43.276-122.004 -56.778  0.00  0.00     0.304 A 
ATOM     28  O   UNL d   1     -42.491-121.779 -56.785  0.00  0.00    -0.300 OA
ATOM     29  C   UNL d   1     -41.433-121.758 -55.710  0.00  0.00     0.026 A 
ATOM     30  C   UNL d   1     -41.290-121.924 -54.915  0.00  0.00     0.007 A 
ENDBRANCH   2  22
TORSDOF 9
ENDMDL
