MODEL 1
REMARK VINA RESULT:      -3.8      0.000      0.000
REMARK  2 active torsions:
REMARK  status: ('A' for Active; 'I' for Inactive)
REMARK    1  A    between atoms: C_6  and  N_1 
REMARK    2  A    between atoms: C_7  and  C_6 
ROOT
ATOM      1  N   UNL d   1     -41.611-122.077 -53.161  0.00  0.00    -0.268 N 
ATOM      2  C   UNL d   1     -41.523-123.126 -53.005  0.00  0.00     0.265 A 
ATOM      3  C   UNL d   1     -41.503-121.780 -52.422  0.00  0.00     0.067 A 
ATOM      4  C   UNL d   1     -41.385-123.173 -52.214  0.00  0.00     0.058 A 
ATOM      5  C   UNL d   1     -41.378-122.419 -51.913  0.00  0.00     0.021 A 
ATOM      6  O   UNL d   1     -41.561-123.817 -53.468  0.00  0.00    -0.267 OA
ATOM      7  C   UNL d   1     -41.249-122.288 -51.109  0.00  0.00     0.002 A 
ATOM      8  C   UNL d   1     -41.497-121.012 -52.123  0.00  0.00     0.018 A 
ATOM      9  C   UNL d   1     -41.260-123.817 -51.704  0.00  0.00     0.005 A 
ATOM     10  C   UNL d   1     -41.368-120.881 -51.319  0.00  0.00     0.002 A 
ATOM     11  C   UNL d   1     -41.131-123.686 -50.900  0.00  0.00     0.000 A 
ATOM     12  C   UNL d   1     -41.125-122.910 -50.599  0.00  0.00     0.000 A 
ATOM     13  C   UNL d   1     -41.243-121.517 -50.807  0.00  0.00     0.000 A 
ENDROOT
BRANCH   1  14
ATOM     14  C   UNL d   1     -41.751-121.564 -53.804  0.00  0.00     0.154 C 
BRANCH  14  15
ATOM     15  C   UNL d   1     -42.062-121.887 -54.502  0.00  0.00     0.230 C 
ATOM     16  O   UNL d   1     -41.547-122.045 -55.110  0.00  0.00    -0.643 OA
ATOM     17  O   UNL d   1     -42.848-122.040 -54.580  0.00  0.00    -0.643 OA
ENDBRANCH  14  15
ENDBRANCH   1  14
TORSDOF 2
ENDMDL
MODEL 2
REMARK VINA RESULT:      -3.3      1.477      2.945
REMARK  2 active torsions:
REMARK  status: ('A' for Active; 'I' for Inactive)
REMARK    1  A    between atoms: C_6  and  N_1 
REMARK    2  A    between atoms: C_7  and  C_6 
ROOT
ATOM      1  N   UNL d   1     -41.793-122.156 -52.617  0.00  0.00    -0.268 N 
ATOM      2  C   UNL d   1     -41.393-123.134 -52.756  0.00  0.00     0.265 A 
ATOM      3  C   UNL d   1     -41.902-121.904 -53.373  0.00  0.00     0.067 A 
ATOM      4  C   UNL d   1     -41.371-123.201 -53.557  0.00  0.00     0.058 A 
ATOM      5  C   UNL d   1     -41.656-122.511 -53.876  0.00  0.00     0.021 A 
ATOM      6  O   UNL d   1     -41.132-123.760 -52.273  0.00  0.00    -0.267 OA
ATOM      7  C   UNL d   1     -41.702-122.414 -54.694  0.00  0.00     0.002 A 
ATOM      8  C   UNL d   1     -42.193-121.201 -53.690  0.00  0.00     0.018 A 
ATOM      9  C   UNL d   1     -41.123-123.812 -54.061  0.00  0.00     0.005 A 
ATOM     10  C   UNL d   1     -42.238-121.104 -54.508  0.00  0.00     0.002 A 
ATOM     11  C   UNL d   1     -41.169-123.715 -54.879  0.00  0.00     0.000 A 
ATOM     12  C   UNL d   1     -41.462-123.005 -55.200  0.00  0.00     0.000 A 
ATOM     13  C   UNL d   1     -41.993-121.708 -55.016  0.00  0.00     0.000 A 
ENDROOT
BRANCH   1  14
ATOM     14  C   UNL d   1     -41.991-121.663 -51.975  0.00  0.00     0.154 C 
BRANCH  14  15
ATOM     15  C   UNL d   1     -41.850-121.942 -51.207  0.00  0.00     0.230 C 
ATOM     16  O   UNL d   1     -42.471-122.277 -50.804  0.00  0.00    -0.643 OA
ATOM     17  O   UNL d   1     -41.123-121.886 -50.868  0.00  0.00    -0.643 OA
ENDBRANCH  14  15
ENDBRANCH   1  14
TORSDOF 2
ENDMDL
MODEL 3
REMARK VINA RESULT:      -2.9      0.781      1.916
REMARK  2 active torsions:
REMARK  status: ('A' for Active; 'I' for Inactive)
REMARK    1  A    between atoms: C_6  and  N_1 
REMARK    2  A    between atoms: C_7  and  C_6 
ROOT
ATOM      1  N   UNL d   1     -41.444-122.865 -53.348  0.00  0.00    -0.268 N 
ATOM      2  C   UNL d   1     -41.377-121.802 -53.321  0.00  0.00     0.265 A 
ATOM      3  C   UNL d   1     -41.377-123.063 -52.572  0.00  0.00     0.067 A 
ATOM      4  C   UNL d   1     -41.289-121.653 -52.536  0.00  0.00     0.058 A 
ATOM      5  C   UNL d   1     -41.292-122.362 -52.142  0.00  0.00     0.021 A 
ATOM      6  O   UNL d   1     -41.395-121.176 -53.870  0.00  0.00    -0.267 OA
ATOM      7  C   UNL d   1     -41.211-122.388 -51.321  0.00  0.00     0.002 A 
ATOM      8  C   UNL d   1     -41.381-123.787 -52.178  0.00  0.00     0.018 A 
ATOM      9  C   UNL d   1     -41.204-120.947 -52.107  0.00  0.00     0.005 A 
ATOM     10  C   UNL d   1     -41.300-123.813 -51.357  0.00  0.00     0.002 A 
ATOM     11  C   UNL d   1     -41.123-120.973 -51.286  0.00  0.00     0.000 A 
ATOM     12  C   UNL d   1     -41.126-121.704 -50.888  0.00  0.00     0.000 A 
ATOM     13  C   UNL d   1     -41.215-123.114 -50.923  0.00  0.00     0.000 A 
ENDROOT
BRANCH   1  14
ATOM     14  C   UNL d   1     -41.538-123.457 -53.927  0.00  0.00     0.154 C 
BRANCH  14  15
ATOM     15  C   UNL d   1     -41.718-123.222 -54.703  0.00  0.00     0.230 C 
ATOM     16  O   UNL d   1     -42.496-123.247 -54.935  0.00  0.00    -0.643 OA
ATOM     17  O   UNL d   1     -41.146-122.977 -55.211  0.00  0.00    -0.643 OA
ENDBRANCH  14  15
ENDBRANCH   1  14
TORSDOF 2
ENDMDL
MODEL 4
REMARK VINA RESULT:      -1.7      1.836      2.603
REMARK  2 active torsions:
REMARK  status: ('A' for Active; 'I' for Inactive)
REMARK    1  A    between atoms: C_6  and  N_1 
REMARK    2  A    between atoms: C_7  and  C_6 
ROOT
ATOM      1  N   UNL d   1     -41.848-122.452 -51.325  0.00  0.00    -0.268 N 
ATOM      2  C   UNL d   1     -42.794-122.003 -51.131  0.00  0.00     0.265 A 
ATOM      3  C   UNL d   1     -41.735-122.907 -50.672  0.00  0.00     0.067 A 
ATOM      4  C   UNL d   1     -42.990-122.311 -50.414  0.00  0.00     0.058 A 
ATOM      5  C   UNL d   1     -42.391-122.807 -50.180  0.00  0.00     0.021 A 
ATOM      6  O   UNL d   1     -43.306-121.470 -51.514  0.00  0.00    -0.267 OA
ATOM      7  C   UNL d   1     -42.434-123.208 -49.461  0.00  0.00     0.002 A 
ATOM      8  C   UNL d   1     -41.123-123.409 -50.440  0.00  0.00     0.018 A 
ATOM      9  C   UNL d   1     -43.651-122.209 -49.922  0.00  0.00     0.005 A 
ATOM     10  C   UNL d   1     -41.166-123.811 -49.721  0.00  0.00     0.002 A 
ATOM     11  C   UNL d   1     -43.694-122.610 -49.202  0.00  0.00     0.000 A 
ATOM     12  C   UNL d   1     -43.076-123.117 -48.969  0.00  0.00     0.000 A 
ATOM     13  C   UNL d   1     -41.821-123.713 -49.226  0.00  0.00     0.000 A 
ENDROOT
BRANCH   1  14
ATOM     14  C   UNL d   1     -41.276-122.434 -51.930  0.00  0.00     0.154 C 
BRANCH  14  15
ATOM     15  C   UNL d   1     -41.537-122.360 -52.715  0.00  0.00     0.230 C 
ATOM     16  O   UNL d   1     -41.489-121.628 -53.063  0.00  0.00    -0.643 OA
ATOM     17  O   UNL d   1     -41.829-122.990 -53.121  0.00  0.00    -0.643 OA
ENDBRANCH  14  15
ENDBRANCH   1  14
TORSDOF 2
ENDMDL
