MODEL 1
REMARK VINA RESULT:      17.5      0.000      0.000
REMARK  4 active torsions:
REMARK  status: ('A' for Active; 'I' for Inactive)
REMARK    1  A    between atoms: C_6  and  C_1 
REMARK       I    between atoms: N_9  and  C_6 
REMARK    2  A    between atoms: C_13  and  N_9 
REMARK    3  A    between atoms: O_12  and  C_14 
REMARK    4  A    between atoms: C_14  and  C_13 
ROOT
ATOM      1  C   UNL d   1      58.189  49.703  50.633  0.00  0.00     0.084 A 
ATOM      2  C   UNL d   1      57.882  49.704  51.402  0.00  0.00     0.137 A 
ATOM      3  S   UNL d   1      57.058  49.706  51.346  0.00  0.00    -0.066 SA
ATOM      4  C   UNL d   1      57.556  49.703  50.109  0.00  0.00     0.013 A 
ATOM      5  C   UNL d   1      56.861  49.705  50.543  0.00  0.00     0.031 A 
ATOM      6  N   UNL d   1      58.323  49.705  52.105  0.00  0.00    -0.141 N 
ATOM      7  C   UNL d   1      57.523  49.702  49.283  0.00  0.00     0.001 A 
ATOM      8  C   UNL d   1      56.125  49.706  50.166  0.00  0.00     0.006 A 
ATOM      9  C   UNL d   1      56.788  49.703  48.903  0.00  0.00     0.000 A 
ATOM     10  C   UNL d   1      56.094  49.705  49.345  0.00  0.00     0.001 A 
ENDROOT
BRANCH   1  11
ATOM     11  C   UNL d   1      58.993  49.701  50.437  0.00  0.00     0.281 C 
ATOM     12  O   UNL d   1      59.222  49.707  49.645  0.00  0.00    -0.265 OA
ATOM     13  N   UNL d   1      59.567  49.695  51.027  0.00  0.00    -0.204 NA
BRANCH  13  14
ATOM     14  C   UNL d   1      60.370  49.693  50.831  0.00  0.00     0.128 C 
BRANCH  14  15
ATOM     15  C   UNL d   1      60.932  49.430  51.373  0.00  0.00     0.137 C 
BRANCH  15  16
ATOM     16  O   UNL d   1      60.891  49.665  52.161  0.00  0.00    -0.325 OA
ATOM     17  C   UNL d   1      61.575  49.702  52.621  0.00  0.00     0.182 C 
ENDBRANCH  15  16
ENDBRANCH  14  15
ENDBRANCH  13  14
ENDBRANCH   1  11
TORSDOF 4
ENDMDL
MODEL 2
REMARK VINA RESULT:      19.5      1.530      4.043
REMARK  4 active torsions:
REMARK  status: ('A' for Active; 'I' for Inactive)
REMARK    1  A    between atoms: C_6  and  C_1 
REMARK       I    between atoms: N_9  and  C_6 
REMARK    2  A    between atoms: C_13  and  N_9 
REMARK    3  A    between atoms: O_12  and  C_14 
REMARK    4  A    between atoms: C_14  and  C_13 
ROOT
ATOM      1  C   UNL d   1      59.591  49.703  50.846  0.00  0.00     0.084 A 
ATOM      2  C   UNL d   1      60.064  49.701  50.166  0.00  0.00     0.137 A 
ATOM      3  S   UNL d   1      60.854  49.701  50.407  0.00  0.00    -0.066 SA
ATOM      4  C   UNL d   1      60.089  49.705  51.500  0.00  0.00     0.013 A 
ATOM      5  C   UNL d   1      60.864  49.703  51.234  0.00  0.00     0.031 A 
ATOM      6  N   UNL d   1      59.793  49.700  49.381  0.00  0.00    -0.141 N 
ATOM      7  C   UNL d   1      59.934  49.707  52.312  0.00  0.00     0.001 A 
ATOM      8  C   UNL d   1      61.495  49.704  51.767  0.00  0.00     0.006 A 
ATOM      9  C   UNL d   1      60.564  49.707  52.848  0.00  0.00     0.000 A 
ATOM     10  C   UNL d   1      61.340  49.706  52.574  0.00  0.00     0.001 A 
ENDROOT
BRANCH   1  11
ATOM     11  C   UNL d   1      58.763  49.704  50.855  0.00  0.00     0.281 C 
ATOM     12  O   UNL d   1      58.361  49.703  51.574  0.00  0.00    -0.265 OA
ATOM     13  N   UNL d   1      58.337  49.706  50.151  0.00  0.00    -0.204 NA
BRANCH  13  14
ATOM     14  C   UNL d   1      57.511  49.707  50.160  0.00  0.00     0.128 C 
BRANCH  14  15
ATOM     15  C   UNL d   1      57.085  49.472  49.494  0.00  0.00     0.137 C 
BRANCH  15  16
ATOM     16  O   UNL d   1      56.537  48.861  49.546  0.00  0.00    -0.325 OA
ATOM     17  C   UNL d   1      56.050  48.681  48.904  0.00  0.00     0.182 C 
ENDBRANCH  15  16
ENDBRANCH  14  15
ENDBRANCH  13  14
ENDBRANCH   1  11
TORSDOF 4
ENDMDL
