MODEL 1
REMARK VINA RESULT:      52.4      0.000      0.000
REMARK  9 active torsions:
REMARK  status: ('A' for Active; 'I' for Inactive)
REMARK    1  A    between atoms: P_2  and  C_1 
REMARK    2  A    between atoms: O_8  and  P_2 
REMARK    3  A    between atoms: O_9  and  P_2 
REMARK    4  A    between atoms: N_10  and  C_4 
REMARK    5  A    between atoms: C_24  and  O_8 
REMARK    6  A    between atoms: C_23  and  O_9 
REMARK    7  A    between atoms: C_15  and  N_10 
REMARK    8  A    between atoms: O_25  and  C_16 
REMARK    9  A    between atoms: O_26  and  C_17 
ROOT
ATOM      1  C   UNL d   1      14.248  13.286  -1.908  0.00  0.00     0.174 A 
ATOM      2  C   UNL d   1      13.965  13.982  -2.263  0.00  0.00     0.100 A 
ATOM      3  C   UNL d   1      13.613  13.951  -3.009  0.00  0.00     0.095 A 
ATOM      4  N   UNL d   1      14.176  12.566  -2.302  0.00  0.00    -0.237 NA
ATOM      5  C   UNL d   1      13.543  13.232  -3.400  0.00  0.00     0.038 A 
ATOM      6  C   UNL d   1      13.826  12.535  -3.045  0.00  0.00     0.083 A 
ATOM      7  C   UNL d   1      13.194  13.204  -4.139  0.00  0.00     0.027 A 
ATOM      8 CL   UNL d   1      14.037  14.706  -1.866  0.00  0.00    -0.079 Cl
ATOM      9  C   UNL d   1      13.756  11.817  -3.436  0.00  0.00     0.021 A 
ATOM     10  C   UNL d   1      13.120  12.478  -4.540  0.00  0.00     0.094 A 
ATOM     11  C   UNL d   1      13.403  11.782  -4.184  0.00  0.00     0.026 A 
ENDROOT
BRANCH   1  12
ATOM     12  P   UNL d   1      14.602  13.317  -1.157  0.00  0.00     0.392 P 
ATOM     13  O   UNL d   1      15.281  13.638  -1.499  0.00  0.00    -0.251 OA
BRANCH  12  14
ATOM     14  O   UNL d   1      14.026  13.012  -0.648  0.00  0.00    -0.265 OA
BRANCH  14  15
ATOM     15  C   UNL d   1      13.941  12.190  -0.557  0.00  0.00     0.103 C 
ATOM     16  C   UNL d   1      13.372  11.780  -0.987  0.00  0.00     0.027 C 
ATOM     17  C   UNL d   1      14.435  11.787  -0.030  0.00  0.00     0.027 C 
ENDBRANCH  14  15
ENDBRANCH  12  14
BRANCH  12  18
ATOM     18  O   UNL d   1      14.928  13.335  -0.402  0.00  0.00    -0.265 OA
BRANCH  18  19
ATOM     19  C   UNL d   1      15.602  13.783  -0.251  0.00  0.00     0.103 C 
ATOM     20  C   UNL d   1      15.535  14.573  -0.025  0.00  0.00     0.027 C 
ATOM     21  C   UNL d   1      16.347  13.439  -0.328  0.00  0.00     0.027 C 
ENDBRANCH  18  19
ENDBRANCH  12  18
ENDBRANCH   1  12
BRANCH   3  22
ATOM     22  N   UNL d   1      13.332  14.644  -3.362  0.00  0.00    -0.245 NA
BRANCH  22  23
ATOM     23  C   UNL d   1      13.861  15.207  -3.663  0.00  0.00     0.082 A 
ATOM     24  C   UNL d   1      14.128  15.140  -4.437  0.00  0.00     0.021 A 
ATOM     25  C   UNL d   1      14.659  15.699  -4.748  0.00  0.00     0.026 A 
ATOM     26  C   UNL d   1      14.911  16.321  -4.264  0.00  0.00     0.094 A 
ATOM     27  C   UNL d   1      14.643  16.387  -3.487  0.00  0.00     0.026 A 
ATOM     28  C   UNL d   1      14.117  15.828  -3.187  0.00  0.00     0.021 A 
BRANCH  26  29
ATOM     29  O   UNL d   1      15.443  16.881  -4.576  0.00  0.00    -0.328 OA
ATOM     30  C   UNL d   1      16.185  16.628  -4.850  0.00  0.00     0.181 C 
ENDBRANCH  26  29
ENDBRANCH  22  23
ENDBRANCH   3  22
BRANCH  10  31
ATOM     31  O   UNL d   1      12.770  12.449  -5.282  0.00  0.00    -0.328 OA
ATOM     32  C   UNL d   1      13.238  12.362  -5.952  0.00  0.00     0.181 C 
ENDBRANCH  10  31
TORSDOF 9
ENDMDL
