MODEL 1
REMARK VINA RESULT:     134.5      0.000      0.000
REMARK  5 active torsions:
REMARK  status: ('A' for Active; 'I' for Inactive)
REMARK    1  A    between atoms: C_12  and  C_3 
REMARK    2  A    between atoms: C_14  and  N_5 
REMARK    3  A    between atoms: C_11  and  C_6 
REMARK    4  A    between atoms: O_25  and  C_12 
REMARK    5  A    between atoms: C_24  and  C_14 
ROOT
ATOM      1  C   UNL d   1      60.955  47.133  51.520  0.00  0.00     0.080 A 
ATOM      2  C   UNL d   1      60.889  46.748  50.791  0.00  0.00     0.267 A 
ATOM      3  C   UNL d   1      60.951  48.339  52.299  0.00  0.00     0.106 A 
ATOM      4  C   UNL d   1      61.093  46.695  52.214  0.00  0.00     0.108 A 
ATOM      5  N   UNL d   1      60.961  45.920  50.752  0.00  0.00    -0.271 N 
ATOM      6  C   UNL d   1      60.885  47.953  51.569  0.00  0.00     0.015 A 
ATOM      7  C   UNL d   1      61.087  47.901  52.983  0.00  0.00     0.208 A 
ATOM      8  O   UNL d   1      61.160  47.071  52.948  0.00  0.00    -0.288 OA
ATOM      9  C   UNL d   1      61.164  45.873  52.174  0.00  0.00     0.043 A 
ATOM     10  C   UNL d   1      61.099  45.482  51.445  0.00  0.00     0.069 A 
ATOM     11  O   UNL d   1      60.752  47.182  50.104  0.00  0.00    -0.267 OA
ATOM     12  N   UNL d   1      61.154  48.283  53.716  0.00  0.00    -0.121 N 
ATOM     13  C   UNL d   1      61.170  44.664  51.408  0.00  0.00     0.019 C 
ENDROOT
BRANCH   6  14
ATOM     14  C   UNL d   1      60.748  48.392  50.885  0.00  0.00     0.001 A 
ATOM     15  C   UNL d   1      59.981  48.642  50.708  0.00  0.00     0.012 A 
ATOM     16  C   UNL d   1      59.843  49.080  50.024  0.00  0.00     0.068 A 
ATOM     17 CL   UNL d   1      59.081  49.330  49.846  0.00  0.00    -0.082 Cl
ATOM     18  C   UNL d   1      60.465  49.269  49.519  0.00  0.00     0.068 A 
ATOM     19  C   UNL d   1      61.237  49.012  49.707  0.00  0.00     0.012 A 
ATOM     20 CL   UNL d   1      60.331  49.707  48.835  0.00  0.00    -0.082 Cl
ATOM     21  C   UNL d   1      61.371  48.573  50.391  0.00  0.00     0.001 A 
ENDBRANCH   6  14
BRANCH   3  22
ATOM     22  C   UNL d   1      60.881  49.152  52.343  0.00  0.00     0.299 C 
ATOM     23  O   UNL d   1      61.548  49.630  52.272  0.00  0.00    -0.259 OA
BRANCH  22  24
ATOM     24  O   UNL d   1      60.144  49.500  52.458  0.00  0.00    -0.296 OA
ATOM     25  C   UNL d   1      59.892  49.704  53.219  0.00  0.00     0.185 C 
ENDBRANCH  22  24
ENDBRANCH   3  22
BRANCH   5  26
ATOM     26  C   UNL d   1      60.897  45.532  50.036  0.00  0.00     0.108 C 
BRANCH  26  27
ATOM     27  C   UNL d   1      61.571  45.306  49.624  0.00  0.00     0.118 A 
ATOM     28  O   UNL d   1      62.018  45.779  49.132  0.00  0.00    -0.304 OA
ATOM     29  C   UNL d   1      62.640  45.332  48.836  0.00  0.00     0.123 A 
ATOM     30  C   UNL d   1      62.583  44.569  49.147  0.00  0.00     0.029 A 
ATOM     31  C   UNL d   1      61.916  44.556  49.637  0.00  0.00     0.028 A 
ENDBRANCH  26  27
ENDBRANCH   5  26
TORSDOF 5
ENDMDL
MODEL 2
REMARK VINA RESULT:     136.7      1.866      4.424
REMARK  5 active torsions:
REMARK  status: ('A' for Active; 'I' for Inactive)
REMARK    1  A    between atoms: C_12  and  C_3 
REMARK    2  A    between atoms: C_14  and  N_5 
REMARK    3  A    between atoms: C_11  and  C_6 
REMARK    4  A    between atoms: O_25  and  C_12 
REMARK    5  A    between atoms: C_24  and  C_14 
ROOT
ATOM      1  C   UNL d   1      61.290  47.264  50.349  0.00  0.00     0.080 A 
ATOM      2  C   UNL d   1      60.698  47.546  50.855  0.00  0.00     0.267 A 
ATOM      3  C   UNL d   1      61.981  46.173  49.724  0.00  0.00     0.106 A 
ATOM      4  C   UNL d   1      61.793  47.798  49.956  0.00  0.00     0.108 A 
ATOM      5  N   UNL d   1      60.607  48.365  50.968  0.00  0.00    -0.271 N 
ATOM      6  C   UNL d   1      61.389  46.455  50.229  0.00  0.00     0.015 A 
ATOM      7  C   UNL d   1      62.476  46.704  49.336  0.00  0.00     0.208 A 
ATOM      8  O   UNL d   1      62.388  47.526  49.448  0.00  0.00    -0.288 OA
ATOM      9  C   UNL d   1      61.701  48.611  50.070  0.00  0.00     0.043 A 
ATOM     10  C   UNL d   1      61.109  48.898  50.575  0.00  0.00     0.069 A 
ATOM     11  O   UNL d   1      60.200  47.018  51.244  0.00  0.00    -0.267 OA
ATOM     12  N   UNL d   1      63.071  46.426  48.829  0.00  0.00    -0.121 N 
ATOM     13  C   UNL d   1      61.020  49.708  50.687  0.00  0.00     0.019 C 
ENDROOT
BRANCH   6  14
ATOM     14  C   UNL d   1      60.894  45.922  50.617  0.00  0.00     0.001 A 
ATOM     15  C   UNL d   1      60.258  45.587  50.210  0.00  0.00     0.012 A 
ATOM     16  C   UNL d   1      59.762  45.054  50.596  0.00  0.00     0.068 A 
ATOM     17 CL   UNL d   1      59.129  44.720  50.193  0.00  0.00    -0.082 Cl
ATOM     18  C   UNL d   1      59.897  44.857  51.383  0.00  0.00     0.068 A 
ATOM     19  C   UNL d   1      60.542  45.201  51.787  0.00  0.00     0.012 A 
ATOM     20 CL   UNL d   1      59.404  44.325  51.773  0.00  0.00    -0.082 Cl
ATOM     21  C   UNL d   1      61.036  45.733  51.397  0.00  0.00     0.001 A 
ENDBRANCH   6  14
BRANCH   3  22
ATOM     22  C   UNL d   1      62.076  45.369  49.608  0.00  0.00     0.299 C 
ATOM     23  O   UNL d   1      61.627  44.976  49.039  0.00  0.00    -0.259 OA
BRANCH  22  24
ATOM     24  O   UNL d   1      62.618  44.945  50.058  0.00  0.00    -0.296 OA
ATOM     25  C   UNL d   1      62.917  44.224  49.784  0.00  0.00     0.185 C 
ENDBRANCH  22  24
ENDBRANCH   3  22
BRANCH   5  26
ATOM     26  C   UNL d   1      60.025  48.651  51.466  0.00  0.00     0.108 C 
BRANCH  26  27
ATOM     27  C   UNL d   1      59.375  49.049  51.159  0.00  0.00     0.118 A 
ATOM     28  O   UNL d   1      59.309  49.358  50.406  0.00  0.00    -0.304 OA
ATOM     29  C   UNL d   1      58.569  49.708  50.333  0.00  0.00     0.123 A 
ATOM     30  C   UNL d   1      58.166  49.617  51.049  0.00  0.00     0.029 A 
ATOM     31  C   UNL d   1      58.671  49.206  51.560  0.00  0.00     0.028 A 
ENDBRANCH  26  27
ENDBRANCH   5  26
TORSDOF 5
ENDMDL
MODEL 3
REMARK VINA RESULT:     137.3      1.474      1.927
REMARK  5 active torsions:
REMARK  status: ('A' for Active; 'I' for Inactive)
REMARK    1  A    between atoms: C_12  and  C_3 
REMARK    2  A    between atoms: C_14  and  N_5 
REMARK    3  A    between atoms: C_11  and  C_6 
REMARK    4  A    between atoms: O_25  and  C_12 
REMARK    5  A    between atoms: C_24  and  C_14 
ROOT
ATOM      1  C   UNL d   1      60.929  47.995  50.530  0.00  0.00     0.080 A 
ATOM      2  C   UNL d   1      60.663  47.441  49.976  0.00  0.00     0.267 A 
ATOM      3  C   UNL d   1      60.657  49.005  51.513  0.00  0.00     0.106 A 
ATOM      4  C   UNL d   1      61.744  48.099  50.659  0.00  0.00     0.108 A 
ATOM      5  N   UNL d   1      61.213  46.987  49.548  0.00  0.00    -0.271 N 
ATOM      6  C   UNL d   1      60.391  48.450  50.959  0.00  0.00     0.015 A 
ATOM      7  C   UNL d   1      61.464  49.105  51.638  0.00  0.00     0.208 A 
ATOM      8  O   UNL d   1      62.020  48.652  51.211  0.00  0.00    -0.288 OA
ATOM      9  C   UNL d   1      62.289  47.648  50.234  0.00  0.00     0.043 A 
ATOM     10  C   UNL d   1      62.028  47.091  49.677  0.00  0.00     0.069 A 
ATOM     11  O   UNL d   1      59.855  47.338  49.847  0.00  0.00    -0.267 OA
ATOM     12  N   UNL d   1      61.735  49.660  52.193  0.00  0.00    -0.121 N 
ATOM     13  C   UNL d   1      62.573  46.643  49.255  0.00  0.00     0.019 C 
ENDROOT
BRANCH   6  14
ATOM     14  C   UNL d   1      59.583  48.351  50.834  0.00  0.00     0.001 A 
ATOM     15  C   UNL d   1      59.158  48.932  50.429  0.00  0.00     0.012 A 
ATOM     16  C   UNL d   1      58.350  48.834  50.304  0.00  0.00     0.068 A 
ATOM     17 CL   UNL d   1      57.926  49.410  49.901  0.00  0.00    -0.082 Cl
ATOM     18  C   UNL d   1      57.966  48.161  50.580  0.00  0.00     0.068 A 
ATOM     19  C   UNL d   1      58.403  47.578  50.989  0.00  0.00     0.012 A 
ATOM     20 CL   UNL d   1      57.158  48.059  50.457  0.00  0.00    -0.082 Cl
ATOM     21  C   UNL d   1      59.211  47.680  51.112  0.00  0.00     0.001 A 
ENDBRANCH   6  14
BRANCH   3  22
ATOM     22  C   UNL d   1      60.121  49.454  51.936  0.00  0.00     0.299 C 
ATOM     23  O   UNL d   1      59.400  49.666  51.598  0.00  0.00    -0.259 OA
BRANCH  22  24
ATOM     24  O   UNL d   1      60.295  49.697  52.703  0.00  0.00    -0.296 OA
ATOM     25  C   UNL d   1      59.714  49.674  53.292  0.00  0.00     0.185 C 
ENDBRANCH  22  24
ENDBRANCH   3  22
BRANCH   5  26
ATOM     26  C   UNL d   1      60.959  46.437  48.999  0.00  0.00     0.108 C 
BRANCH  26  27
ATOM     27  C   UNL d   1      61.233  45.663  49.029  0.00  0.00     0.118 A 
ATOM     28  O   UNL d   1      60.813  44.994  48.828  0.00  0.00    -0.304 OA
ATOM     29  C   UNL d   1      61.297  44.340  48.940  0.00  0.00     0.123 A 
ATOM     30  C   UNL d   1      62.030  44.603  49.213  0.00  0.00     0.029 A 
ATOM     31  C   UNL d   1      61.987  45.427  49.267  0.00  0.00     0.028 A 
ENDBRANCH  26  27
ENDBRANCH   5  26
TORSDOF 5
ENDMDL
