MODEL 1
REMARK VINA RESULT:     -10.1      0.000      0.000
REMARK  4 active torsions:
REMARK  status: ('A' for Active; 'I' for Inactive)
REMARK    1  A    between atoms: C_2  and  C_1 
REMARK    2  A    between atoms: C_4  and  C_2 
REMARK       I    between atoms: C_3  and  N_6 
REMARK    3  A    between atoms: C_7  and  C_3 
REMARK    4  A    between atoms: N_6  and  C_5 
ROOT
ATOM      1  C   UNL d   1      53.497  32.012  53.365  0.00  0.00     0.058 A 
ATOM      2  C   UNL d   1      52.687  32.016  53.119  0.00  0.00     0.088 A 
ATOM      3  C   UNL d   1      53.858  31.319  53.540  0.00  0.00     0.016 A 
ATOM      4  C   UNL d   1      52.305  31.286  53.071  0.00  0.00     0.020 A 
ATOM      5  C   UNL d   1      53.452  30.603  53.484  0.00  0.00     0.058 A 
ATOM      6  C   UNL d   1      52.686  30.581  53.253  0.00  0.00     0.013 A 
ATOM      7 CL   UNL d   1      53.857  29.884  53.674  0.00  0.00    -0.082 Cl
ENDROOT
BRANCH   1   8
ATOM      8  C   UNL d   1      53.925  32.715  53.430  0.00  0.00     0.198 C 
ATOM      9  O   UNL d   1      54.041  33.163  52.745  0.00  0.00    -0.286 OA
BRANCH   8  10
ATOM     10  C   UNL d   1      54.234  32.973  54.146  0.00  0.00     0.050 A 
ATOM     11  C   UNL d   1      54.995  33.290  54.179  0.00  0.00     0.061 A 
ATOM     12 CL   UNL d   1      55.479  33.362  53.496  0.00  0.00    -0.082 Cl
ATOM     13  C   UNL d   1      55.303  33.549  54.905  0.00  0.00     0.011 A 
ATOM     14  C   UNL d   1      54.851  33.491  55.594  0.00  0.00     0.001 A 
ATOM     15  C   UNL d   1      54.093  33.170  55.534  0.00  0.00     0.000 A 
ATOM     16  C   UNL d   1      53.785  32.911  54.807  0.00  0.00     0.004 A 
ENDBRANCH   8  10
ENDBRANCH   1   8
BRANCH   2  17
ATOM     17  N   UNL d   1      52.278  32.737  52.927  0.00  0.00    -0.206 NA
ATOM     18  C   UNL d   1      51.477  32.757  52.926  0.00  0.00     0.302 C 
ATOM     19  O   UNL d   1      51.036  32.084  53.109  0.00  0.00    -0.263 OA
BRANCH  18  20
ATOM     20  C   UNL d   1      51.093  33.463  52.738  0.00  0.00     0.158 A 
ATOM     21  O   UNL d   1      51.102  33.932  52.076  0.00  0.00    -0.300 OA
ATOM     22  C   UNL d   1      50.613  34.556  52.214  0.00  0.00     0.123 A 
ATOM     23  C   UNL d   1      50.290  34.516  52.924  0.00  0.00     0.029 A 
ATOM     24  C   UNL d   1      50.586  33.814  53.285  0.00  0.00     0.032 A 
ENDBRANCH  18  20
ENDBRANCH   2  17
TORSDOF 4
ENDMDL
MODEL 2
REMARK VINA RESULT:      -9.6      1.640      3.885
REMARK  4 active torsions:
REMARK  status: ('A' for Active; 'I' for Inactive)
REMARK    1  A    between atoms: C_2  and  C_1 
REMARK    2  A    between atoms: C_4  and  C_2 
REMARK       I    between atoms: C_3  and  N_6 
REMARK    3  A    between atoms: C_7  and  C_3 
REMARK    4  A    between atoms: N_6  and  C_5 
ROOT
ATOM      1  C   UNL d   1      52.862  33.581  53.511  0.00  0.00     0.058 A 
ATOM      2  C   UNL d   1      53.225  32.918  53.893  0.00  0.00     0.088 A 
ATOM      3  C   UNL d   1      52.986  34.321  53.792  0.00  0.00     0.016 A 
ATOM      4  C   UNL d   1      53.699  33.075  54.550  0.00  0.00     0.020 A 
ATOM      5  C   UNL d   1      53.465  34.449  54.452  0.00  0.00     0.058 A 
ATOM      6  C   UNL d   1      53.819  33.838  54.829  0.00  0.00     0.013 A 
ATOM      7 CL   UNL d   1      53.580  35.241  54.729  0.00  0.00    -0.082 Cl
ENDROOT
BRANCH   1   8
ATOM      8  C   UNL d   1      52.378  33.479  52.850  0.00  0.00     0.198 C 
ATOM      9  O   UNL d   1      52.701  33.105  52.188  0.00  0.00    -0.286 OA
BRANCH   8  10
ATOM     10  C   UNL d   1      51.598  33.738  52.836  0.00  0.00     0.050 A 
ATOM     11  C   UNL d   1      51.329  34.207  52.213  0.00  0.00     0.061 A 
ATOM     12 CL   UNL d   1      51.828  34.436  51.578  0.00  0.00    -0.082 Cl
ATOM     13  C   UNL d   1      50.540  34.465  52.204  0.00  0.00     0.011 A 
ATOM     14  C   UNL d   1      50.025  34.256  52.815  0.00  0.00     0.001 A 
ATOM     15  C   UNL d   1      50.320  33.786  53.426  0.00  0.00     0.000 A 
ATOM     16  C   UNL d   1      51.110  33.527  53.435  0.00  0.00     0.004 A 
ENDBRANCH   8  10
ENDBRANCH   1   8
BRANCH   2  17
ATOM     17  N   UNL d   1      53.110  32.121  53.616  0.00  0.00    -0.206 NA
ATOM     18  C   UNL d   1      53.433  31.507  54.016  0.00  0.00     0.302 C 
ATOM     19  O   UNL d   1      53.880  31.633  54.698  0.00  0.00    -0.263 OA
BRANCH  18  20
ATOM     20  C   UNL d   1      53.315  30.739  53.737  0.00  0.00     0.158 A 
ATOM     21  O   UNL d   1      53.118  30.446  53.006  0.00  0.00    -0.300 OA
ATOM     22  C   UNL d   1      53.080  29.644  53.068  0.00  0.00     0.123 A 
ATOM     23  C   UNL d   1      53.241  29.405  53.794  0.00  0.00     0.029 A 
ATOM     24  C   UNL d   1      53.397  30.097  54.249  0.00  0.00     0.032 A 
ENDBRANCH  18  20
ENDBRANCH   2  17
TORSDOF 4
ENDMDL
MODEL 3
REMARK VINA RESULT:      -9.5      1.588      3.112
REMARK  4 active torsions:
REMARK  status: ('A' for Active; 'I' for Inactive)
REMARK    1  A    between atoms: C_2  and  C_1 
REMARK    2  A    between atoms: C_4  and  C_2 
REMARK       I    between atoms: C_3  and  N_6 
REMARK    3  A    between atoms: C_7  and  C_3 
REMARK    4  A    between atoms: N_6  and  C_5 
ROOT
ATOM      1  C   UNL d   1      53.451  32.528  53.363  0.00  0.00     0.058 A 
ATOM      2  C   UNL d   1      52.982  31.824  53.392  0.00  0.00     0.088 A 
ATOM      3  C   UNL d   1      53.138  33.205  53.071  0.00  0.00     0.016 A 
ATOM      4  C   UNL d   1      52.208  31.876  53.111  0.00  0.00     0.020 A 
ATOM      5  C   UNL d   1      52.361  33.229  52.797  0.00  0.00     0.058 A 
ATOM      6  C   UNL d   1      51.897  32.576  52.814  0.00  0.00     0.013 A 
ATOM      7 CL   UNL d   1      52.053  33.957  52.494  0.00  0.00    -0.082 Cl
ENDROOT
BRANCH   1   8
ATOM      8  C   UNL d   1      54.232  32.531  53.631  0.00  0.00     0.198 C 
ATOM      9  O   UNL d   1      54.786  32.081  53.215  0.00  0.00    -0.286 OA
BRANCH   8  10
ATOM     10  C   UNL d   1      54.465  32.962  54.290  0.00  0.00     0.050 A 
ATOM     11  C   UNL d   1      55.145  33.428  54.260  0.00  0.00     0.061 A 
ATOM     12 CL   UNL d   1      55.621  33.482  53.570  0.00  0.00    -0.082 Cl
ATOM     13  C   UNL d   1      55.377  33.863  54.929  0.00  0.00     0.011 A 
ATOM     14  C   UNL d   1      54.929  33.830  55.623  0.00  0.00     0.001 A 
ATOM     15  C   UNL d   1      54.253  33.357  55.626  0.00  0.00     0.000 A 
ATOM     16  C   UNL d   1      54.022  32.922  54.956  0.00  0.00     0.004 A 
ENDBRANCH   8  10
ENDBRANCH   1   8
BRANCH   2  17
ATOM     17  N   UNL d   1      53.289  31.091  53.696  0.00  0.00    -0.206 NA
ATOM     18  C   UNL d   1      52.851  30.422  53.650  0.00  0.00     0.302 C 
ATOM     19  O   UNL d   1      52.099  30.430  53.309  0.00  0.00    -0.263 OA
BRANCH  18  20
ATOM     20  C   UNL d   1      53.160  29.717  53.949  0.00  0.00     0.158 A 
ATOM     21  O   UNL d   1      53.665  29.164  53.636  0.00  0.00    -0.300 OA
ATOM     22  C   UNL d   1      53.769  28.589  54.190  0.00  0.00     0.123 A 
ATOM     23  C   UNL d   1      53.361  28.740  54.839  0.00  0.00     0.029 A 
ATOM     24  C   UNL d   1      52.956  29.468  54.709  0.00  0.00     0.032 A 
ENDBRANCH  18  20
ENDBRANCH   2  17
TORSDOF 4
ENDMDL
MODEL 4
REMARK VINA RESULT:      -9.4      1.062      2.538
REMARK  4 active torsions:
REMARK  status: ('A' for Active; 'I' for Inactive)
REMARK    1  A    between atoms: C_2  and  C_1 
REMARK    2  A    between atoms: C_4  and  C_2 
REMARK       I    between atoms: C_3  and  N_6 
REMARK    3  A    between atoms: C_7  and  C_3 
REMARK    4  A    between atoms: N_6  and  C_5 
ROOT
ATOM      1  C   UNL d   1      53.653  32.827  53.877  0.00  0.00     0.058 A 
ATOM      2  C   UNL d   1      53.099  33.466  53.913  0.00  0.00     0.088 A 
ATOM      3  C   UNL d   1      54.288  32.821  54.365  0.00  0.00     0.016 A 
ATOM      4  C   UNL d   1      53.248  34.063  54.463  0.00  0.00     0.020 A 
ATOM      5  C   UNL d   1      54.414  33.431  54.906  0.00  0.00     0.058 A 
ATOM      6  C   UNL d   1      53.903  34.046  54.959  0.00  0.00     0.013 A 
ATOM      7 CL   UNL d   1      55.092  33.401  55.411  0.00  0.00    -0.082 Cl
ENDROOT
BRANCH   1   8
ATOM      8  C   UNL d   1      53.551  32.205  53.344  0.00  0.00     0.198 C 
ATOM      9  O   UNL d   1      53.617  32.370  52.538  0.00  0.00    -0.286 OA
BRANCH   8  10
ATOM     10  C   UNL d   1      53.389  31.439  53.595  0.00  0.00     0.050 A 
ATOM     11  C   UNL d   1      53.085  30.886  53.063  0.00  0.00     0.061 A 
ATOM     12 CL   UNL d   1      52.932  31.076  52.260  0.00  0.00    -0.082 Cl
ATOM     13  C   UNL d   1      52.923  30.113  53.321  0.00  0.00     0.011 A 
ATOM     14  C   UNL d   1      53.064  29.897  54.106  0.00  0.00     0.001 A 
ATOM     15  C   UNL d   1      53.368  30.470  54.617  0.00  0.00     0.000 A 
ATOM     16  C   UNL d   1      53.530  31.243  54.358  0.00  0.00     0.004 A 
ENDBRANCH   8  10
ENDBRANCH   1   8
BRANCH   2  17
ATOM     17  N   UNL d   1      52.416  33.499  53.407  0.00  0.00    -0.206 NA
ATOM     18  C   UNL d   1      52.000  34.180  53.336  0.00  0.00     0.302 C 
ATOM     19  O   UNL d   1      52.224  34.858  53.748  0.00  0.00    -0.263 OA
BRANCH  18  20
ATOM     20  C   UNL d   1      51.339  34.198  52.841  0.00  0.00     0.158 A 
ATOM     21  O   UNL d   1      51.259  34.251  52.036  0.00  0.00    -0.300 OA
ATOM     22  C   UNL d   1      50.472  34.243  51.869  0.00  0.00     0.123 A 
ATOM     23  C   UNL d   1      50.042  34.188  52.519  0.00  0.00     0.029 A 
ATOM     24  C   UNL d   1      50.581  34.157  53.166  0.00  0.00     0.032 A 
ENDBRANCH  18  20
ENDBRANCH   2  17
TORSDOF 4
ENDMDL
MODEL 5
REMARK VINA RESULT:      -8.3      1.317      3.364
REMARK  4 active torsions:
REMARK  status: ('A' for Active; 'I' for Inactive)
REMARK    1  A    between atoms: C_2  and  C_1 
REMARK    2  A    between atoms: C_4  and  C_2 
REMARK       I    between atoms: C_3  and  N_6 
REMARK    3  A    between atoms: C_7  and  C_3 
REMARK    4  A    between atoms: N_6  and  C_5 
ROOT
ATOM      1  C   UNL d   1      52.856  32.120  53.051  0.00  0.00     0.058 A 
ATOM      2  C   UNL d   1      53.409  32.095  53.690  0.00  0.00     0.088 A 
ATOM      3  C   UNL d   1      52.537  31.441  52.771  0.00  0.00     0.016 A 
ATOM      4  C   UNL d   1      53.595  31.352  53.998  0.00  0.00     0.020 A 
ATOM      5  C   UNL d   1      52.740  30.711  53.097  0.00  0.00     0.058 A 
ATOM      6  C   UNL d   1      53.262  30.661  53.703  0.00  0.00     0.013 A 
ATOM      7 CL   UNL d   1      52.389  30.007  52.784  0.00  0.00    -0.082 Cl
ENDROOT
BRANCH   1   8
ATOM      8  C   UNL d   1      52.636  32.837  52.706  0.00  0.00     0.198 C 
ATOM      9  O   UNL d   1      53.182  33.216  52.215  0.00  0.00    -0.286 OA
BRANCH   8  10
ATOM     10  C   UNL d   1      51.899  33.176  52.838  0.00  0.00     0.050 A 
ATOM     11  C   UNL d   1      51.738  33.937  52.563  0.00  0.00     0.061 A 
ATOM     12 CL   UNL d   1      52.308  34.390  52.144  0.00  0.00    -0.082 Cl
ATOM     13  C   UNL d   1      50.992  34.276  52.699  0.00  0.00     0.011 A 
ATOM     14  C   UNL d   1      50.411  33.854  53.108  0.00  0.00     0.001 A 
ATOM     15  C   UNL d   1      50.598  33.095  53.373  0.00  0.00     0.000 A 
ATOM     16  C   UNL d   1      51.345  32.757  53.236  0.00  0.00     0.004 A 
ENDBRANCH   8  10
ENDBRANCH   1   8
BRANCH   2  17
ATOM     17  N   UNL d   1      53.764  32.801  54.007  0.00  0.00    -0.206 NA
ATOM     18  C   UNL d   1      54.096  32.791  54.736  0.00  0.00     0.302 C 
ATOM     19  O   UNL d   1      54.101  32.103  55.191  0.00  0.00    -0.263 OA
BRANCH  18  20
ATOM     20  C   UNL d   1      54.436  33.483  55.032  0.00  0.00     0.158 A 
ATOM     21  O   UNL d   1      54.117  34.178  55.302  0.00  0.00    -0.300 OA
ATOM     22  C   UNL d   1      54.726  34.656  55.522  0.00  0.00     0.123 A 
ATOM     23  C   UNL d   1      55.417  34.310  55.409  0.00  0.00     0.029 A 
ATOM     24  C   UNL d   1      55.257  33.546  55.091  0.00  0.00     0.032 A 
ENDBRANCH  18  20
ENDBRANCH   2  17
TORSDOF 4
ENDMDL
