MODEL 1
REMARK VINA RESULT:      66.3      0.000      0.000
REMARK  6 active torsions:
REMARK  status: ('A' for Active; 'I' for Inactive)
REMARK    1  A    between atoms: C_15  and  N_1 
REMARK    2  A    between atoms: S_12  and  C_3 
REMARK    3  A    between atoms: C_4  and  N_11 
REMARK    4  A    between atoms: C_14  and  C_8 
REMARK       I    between atoms: N_11  and  C_13 
REMARK    5  A    between atoms: C_17  and  S_12 
REMARK    6  A    between atoms: C_13  and  C_17 
ROOT
ATOM      1  N   UNL d   1     -48.209  26.868  34.153  0.00  0.00    -0.018 NA
ATOM      2  C   UNL d   1     -48.879  26.531  33.825  0.00  0.00     0.302 C 
ATOM      3  O   UNL d   1     -48.806  25.886  33.306  0.00  0.00    -0.264 OA
ENDROOT
BRANCH   2   4
ATOM      4  C   UNL d   1     -49.624  26.830  34.009  0.00  0.00     0.101 C 
BRANCH   4   5
ATOM      5  S   UNL d   1     -50.306  26.383  33.845  0.00  0.00    -0.041 SA
BRANCH   5   6
ATOM      6  C   UNL d   1     -51.012  26.762  33.650  0.00  0.00     0.219 A 
ATOM      7  N   UNL d   1     -51.683  26.308  33.482  0.00  0.00    -0.186 N 
ATOM      8  N   UNL d   1     -52.303  26.828  33.307  0.00  0.00    -0.038 NA
ATOM      9  N   UNL d   1     -52.016  27.593  33.368  0.00  0.00    -0.022 NA
ATOM     10  N   UNL d   1     -51.220  27.550  33.580  0.00  0.00    -0.101 NA
BRANCH   7  11
ATOM     11  C   UNL d   1     -51.768  25.492  33.476  0.00  0.00     0.087 A 
ATOM     12  C   UNL d   1     -51.114  25.016  33.313  0.00  0.00     0.019 A 
ATOM     13  C   UNL d   1     -51.195  24.196  33.306  0.00  0.00     0.002 A 
ATOM     14  C   UNL d   1     -51.916  23.845  33.458  0.00  0.00     0.000 A 
ATOM     15  C   UNL d   1     -52.583  24.321  33.623  0.00  0.00     0.002 A 
ATOM     16  C   UNL d   1     -52.504  25.151  33.631  0.00  0.00     0.019 A 
ENDBRANCH   7  11
ENDBRANCH   5   6
ENDBRANCH   4   5
ENDBRANCH   2   4
BRANCH   1  17
ATOM     17  C   UNL d   1     -48.282  27.514  34.673  0.00  0.00     0.760 A 
ATOM     18  N   UNL d   1     -47.948  28.254  34.587  0.00  0.00    -0.051 NA
ATOM     19  C   UNL d   1     -48.171  28.705  35.231  0.00  0.00     0.147 A 
ATOM     20  S   UNL d   1     -48.637  28.247  35.708  0.00  0.00     0.052 SA
ATOM     21  N   UNL d   1     -48.700  27.509  35.353  0.00  0.00    -0.019 NA
BRANCH  19  22
ATOM     22  C   UNL d   1     -47.938  29.494  35.340  0.00  0.00     0.026 A 
ATOM     23  C   UNL d   1     -47.492  29.697  36.004  0.00  0.00     0.003 A 
ATOM     24  C   UNL d   1     -47.263  30.480  36.109  0.00  0.00     0.011 A 
ATOM     25  C   UNL d   1     -47.480  31.055  35.554  0.00  0.00     0.058 A 
ATOM     26  C   UNL d   1     -47.919  30.850  34.904  0.00  0.00     0.011 A 
ATOM     27 CL   UNL d   1     -47.259  31.837  35.648  0.00  0.00    -0.082 Cl
ATOM     28  C   UNL d   1     -48.152  30.065  34.792  0.00  0.00     0.003 A 
ENDBRANCH  19  22
ENDBRANCH   1  17
TORSDOF 6
ENDMDL
MODEL 2
REMARK VINA RESULT:      68.5      1.614      2.488
REMARK  6 active torsions:
REMARK  status: ('A' for Active; 'I' for Inactive)
REMARK    1  A    between atoms: C_15  and  N_1 
REMARK    2  A    between atoms: S_12  and  C_3 
REMARK    3  A    between atoms: C_4  and  N_11 
REMARK    4  A    between atoms: C_14  and  C_8 
REMARK       I    between atoms: N_11  and  C_13 
REMARK    5  A    between atoms: C_17  and  S_12 
REMARK    6  A    between atoms: C_13  and  C_17 
ROOT
ATOM      1  N   UNL d   1     -48.529  28.812  36.248  0.00  0.00    -0.018 NA
ATOM      2  C   UNL d   1     -48.952  28.246  35.832  0.00  0.00     0.302 C 
ATOM      3  O   UNL d   1     -49.434  27.707  36.240  0.00  0.00    -0.264 OA
ENDROOT
BRANCH   2   4
ATOM      4  C   UNL d   1     -48.898  28.212  35.010  0.00  0.00     0.101 C 
BRANCH   4   5
ATOM      5  S   UNL d   1     -49.389  27.697  34.581  0.00  0.00    -0.041 SA
BRANCH   5   6
ATOM      6  C   UNL d   1     -49.060  27.078  34.147  0.00  0.00     0.219 A 
ATOM      7  N   UNL d   1     -49.552  26.607  33.675  0.00  0.00    -0.186 N 
ATOM      8  N   UNL d   1     -49.078  26.037  33.307  0.00  0.00    -0.038 NA
ATOM      9  N   UNL d   1     -48.304  26.156  33.550  0.00  0.00    -0.022 NA
ATOM     10  N   UNL d   1     -48.296  26.799  34.068  0.00  0.00    -0.101 NA
BRANCH   7  11
ATOM     11  C   UNL d   1     -50.362  26.657  33.561  0.00  0.00     0.087 A 
ATOM     12  C   UNL d   1     -50.819  25.970  33.586  0.00  0.00     0.019 A 
ATOM     13  C   UNL d   1     -51.634  26.016  33.471  0.00  0.00     0.002 A 
ATOM     14  C   UNL d   1     -51.999  26.733  33.334  0.00  0.00     0.000 A 
ATOM     15  C   UNL d   1     -51.541  27.433  33.308  0.00  0.00     0.002 A 
ATOM     16  C   UNL d   1     -50.717  27.390  33.423  0.00  0.00     0.019 A 
ENDBRANCH   7  11
ENDBRANCH   5   6
ENDBRANCH   4   5
ENDBRANCH   2   4
BRANCH   1  17
ATOM     17  C   UNL d   1     -48.046  29.353  35.838  0.00  0.00     0.760 A 
ATOM     18  N   UNL d   1     -48.270  30.072  35.524  0.00  0.00    -0.051 NA
ATOM     19  C   UNL d   1     -47.613  30.408  35.175  0.00  0.00     0.147 A 
ATOM     20  S   UNL d   1     -46.991  29.900  35.274  0.00  0.00     0.052 SA
ATOM     21  N   UNL d   1     -47.269  29.248  35.687  0.00  0.00    -0.019 NA
BRANCH  19  22
ATOM     22  C   UNL d   1     -47.623  31.145  34.794  0.00  0.00     0.026 A 
ATOM     23  C   UNL d   1     -48.311  31.398  34.415  0.00  0.00     0.003 A 
ATOM     24  C   UNL d   1     -48.317  32.129  34.039  0.00  0.00     0.011 A 
ATOM     25  C   UNL d   1     -47.638  32.603  34.042  0.00  0.00     0.058 A 
ATOM     26  C   UNL d   1     -46.964  32.350  34.416  0.00  0.00     0.011 A 
ATOM     27 CL   UNL d   1     -47.631  33.332  33.671  0.00  0.00    -0.082 Cl
ATOM     28  C   UNL d   1     -46.952  31.616  34.796  0.00  0.00     0.003 A 
ENDBRANCH  19  22
ENDBRANCH   1  17
TORSDOF 6
ENDMDL
