MODEL 1
REMARK VINA RESULT:       2.7      0.000      0.000
REMARK  4 active torsions:
REMARK  status: ('A' for Active; 'I' for Inactive)
REMARK    1  A    between atoms: N_10  and  C_3 
REMARK    2  A    between atoms: C_11  and  C_5 
REMARK    3  A    between atoms: C_12  and  N_10 
REMARK    4  A    between atoms: O_18  and  C_15 
ROOT
ATOM      1  N   UNL d   1      58.102  -0.002  30.896  0.00  0.00    -0.184 N 
ATOM      2  C   UNL d   1      58.799  -0.186  30.467  0.00  0.00     0.168 A 
ATOM      3  C   UNL d   1      58.162   0.295  31.666  0.00  0.00     0.217 A 
ATOM      4  N   UNL d   1      57.313  -0.409  29.790  0.00  0.00    -0.162 NA
ATOM      5  C   UNL d   1      58.741  -0.476  29.716  0.00  0.00     0.055 A 
ATOM      6  N   UNL d   1      59.531  -0.068  30.824  0.00  0.00    -0.227 NA
ATOM      7  C   UNL d   1      58.892   0.406  32.004  0.00  0.00     0.066 A 
ATOM      8  C   UNL d   1      57.999  -0.591  29.367  0.00  0.00     0.104 A 
ATOM      9  C   UNL d   1      59.594   0.224  31.582  0.00  0.00     0.087 A 
ATOM     10  C   UNL d   1      59.122   0.682  32.731  0.00  0.00     0.006 A 
ATOM     11  C   UNL d   1      57.949  -0.885  28.606  0.00  0.00     0.023 C 
ATOM     12  C   UNL d   1      60.238   0.391  32.060  0.00  0.00     0.019 A 
ATOM     13  C   UNL d   1      59.938   0.678  32.779  0.00  0.00     0.002 A 
ENDROOT
BRANCH   3  14
ATOM     14  N   UNL d   1      57.461   0.483  32.102  0.00  0.00    -0.383 NA
BRANCH  14  15
ATOM     15  C   UNL d   1      56.738   0.521  32.535  0.00  0.00     0.135 A 
ATOM     16  C   UNL d   1      56.757   0.448  33.370  0.00  0.00     0.056 A 
ATOM     17  C   UNL d   1      56.024   0.486  33.817  0.00  0.00     0.097 A 
ATOM     18  C   UNL d   1      55.289   0.599  33.403  0.00  0.00     0.024 A 
ATOM     19  C   UNL d   1      55.282   0.672  32.564  0.00  0.00     0.005 A 
ATOM     20  C   UNL d   1      56.009   0.634  32.122  0.00  0.00     0.032 A 
BRANCH  17  21
ATOM     21  O   UNL d   1      56.034   0.413  34.648  0.00  0.00    -0.328 OA
ATOM     22  C   UNL d   1      55.371   0.669  35.108  0.00  0.00     0.181 C 
ENDBRANCH  17  21
ENDBRANCH  14  15
ENDBRANCH   3  14
BRANCH   5  23
ATOM     23  C   UNL d   1      59.423  -0.657  29.296  0.00  0.00     0.004 A 
ATOM     24  C   UNL d   1      59.704  -1.424  29.276  0.00  0.00     0.000 A 
ATOM     25  C   UNL d   1      60.394  -1.607  28.851  0.00  0.00     0.000 A 
ATOM     26  C   UNL d   1      60.789  -1.019  28.456  0.00  0.00     0.000 A 
ATOM     27  C   UNL d   1      60.509  -0.244  28.474  0.00  0.00     0.000 A 
ATOM     28  C   UNL d   1      59.829  -0.067  28.894  0.00  0.00     0.000 A 
ENDBRANCH   5  23
TORSDOF 4
ENDMDL
MODEL 2
REMARK VINA RESULT:       3.5      1.316      1.889
REMARK  4 active torsions:
REMARK  status: ('A' for Active; 'I' for Inactive)
REMARK    1  A    between atoms: N_10  and  C_3 
REMARK    2  A    between atoms: C_11  and  C_5 
REMARK    3  A    between atoms: C_12  and  N_10 
REMARK    4  A    between atoms: O_18  and  C_15 
ROOT
ATOM      1  N   UNL d   1      58.687  -1.188  30.269  0.00  0.00    -0.184 N 
ATOM      2  C   UNL d   1      59.335  -1.569  29.898  0.00  0.00     0.168 A 
ATOM      3  C   UNL d   1      58.797  -0.451  30.628  0.00  0.00     0.217 A 
ATOM      4  N   UNL d   1      57.845  -2.275  29.917  0.00  0.00    -0.162 NA
ATOM      5  C   UNL d   1      59.228  -2.288  29.547  0.00  0.00     0.055 A 
ATOM      6  N   UNL d   1      60.071  -1.201  29.899  0.00  0.00    -0.227 NA
ATOM      7  C   UNL d   1      59.529  -0.100  30.621  0.00  0.00     0.066 A 
ATOM      8  C   UNL d   1      58.483  -2.651  29.552  0.00  0.00     0.104 A 
ATOM      9  C   UNL d   1      60.183  -0.475  30.252  0.00  0.00     0.087 A 
ATOM     10  C   UNL d   1      59.802   0.603  30.920  0.00  0.00     0.006 A 
ATOM     11  C   UNL d   1      58.384  -3.379  29.194  0.00  0.00     0.023 C 
ATOM     12  C   UNL d   1      60.841   0.006  30.333  0.00  0.00     0.019 A 
ATOM     13  C   UNL d   1      60.598   0.681  30.752  0.00  0.00     0.002 A 
ENDROOT
BRANCH   3  14
ATOM     14  N   UNL d   1      58.145  -0.062  31.004  0.00  0.00    -0.383 NA
BRANCH  14  15
ATOM     15  C   UNL d   1      57.446   0.185  31.407  0.00  0.00     0.135 A 
ATOM     16  C   UNL d   1      57.440   0.195  32.245  0.00  0.00     0.056 A 
ATOM     17  C   UNL d   1      56.731   0.446  32.661  0.00  0.00     0.097 A 
ATOM     18  C   UNL d   1      56.046   0.681  32.214  0.00  0.00     0.024 A 
ATOM     19  C   UNL d   1      56.065   0.667  31.372  0.00  0.00     0.005 A 
ATOM     20  C   UNL d   1      56.767   0.418  30.961  0.00  0.00     0.032 A 
BRANCH  17  21
ATOM     21  O   UNL d   1      56.716   0.459  33.495  0.00  0.00    -0.328 OA
ATOM     22  C   UNL d   1      55.990   0.332  33.912  0.00  0.00     0.181 C 
ENDBRANCH  17  21
ENDBRANCH  14  15
ENDBRANCH   3  14
BRANCH   5  23
ATOM     23  C   UNL d   1      59.863  -2.662  29.184  0.00  0.00     0.004 A 
ATOM     24  C   UNL d   1      60.450  -2.222  28.824  0.00  0.00     0.000 A 
ATOM     25  C   UNL d   1      61.092  -2.600  28.456  0.00  0.00     0.000 A 
ATOM     26  C   UNL d   1      61.133  -3.410  28.456  0.00  0.00     0.000 A 
ATOM     27  C   UNL d   1      60.542  -3.858  28.818  0.00  0.00     0.000 A 
ATOM     28  C   UNL d   1      59.912  -3.482  29.179  0.00  0.00     0.000 A 
ENDBRANCH   5  23
TORSDOF 4
ENDMDL
MODEL 3
REMARK VINA RESULT:       4.9      1.042      2.178
REMARK  4 active torsions:
REMARK  status: ('A' for Active; 'I' for Inactive)
REMARK    1  A    between atoms: N_10  and  C_3 
REMARK    2  A    between atoms: C_11  and  C_5 
REMARK    3  A    between atoms: C_12  and  N_10 
REMARK    4  A    between atoms: O_18  and  C_15 
ROOT
ATOM      1  N   UNL d   1      58.557   0.405  31.589  0.00  0.00    -0.184 N 
ATOM      2  C   UNL d   1      58.914   0.321  30.834  0.00  0.00     0.168 A 
ATOM      3  C   UNL d   1      57.741   0.529  31.644  0.00  0.00     0.217 A 
ATOM      4  N   UNL d   1      59.825   0.241  32.206  0.00  0.00    -0.162 NA
ATOM      5  C   UNL d   1      59.710   0.200  30.779  0.00  0.00     0.055 A 
ATOM      6  N   UNL d   1      58.442   0.364  30.162  0.00  0.00    -0.227 NA
ATOM      7  C   UNL d   1      57.289   0.568  30.971  0.00  0.00     0.066 A 
ATOM      8  C   UNL d   1      60.176   0.159  31.463  0.00  0.00     0.104 A 
ATOM      9  C   UNL d   1      57.638   0.485  30.213  0.00  0.00     0.087 A 
ATOM     10  C   UNL d   1      56.495   0.682  30.851  0.00  0.00     0.006 A 
ATOM     11  C   UNL d   1      60.982   0.036  31.399  0.00  0.00     0.023 C 
ATOM     12  C   UNL d   1      57.051   0.550  29.645  0.00  0.00     0.019 A 
ATOM     13  C   UNL d   1      56.335   0.673  30.049  0.00  0.00     0.002 A 
ENDROOT
BRANCH   3  14
ATOM     14  N   UNL d   1      57.378   0.614  32.404  0.00  0.00    -0.383 NA
BRANCH  14  15
ATOM     15  C   UNL d   1      57.140   0.634  33.214  0.00  0.00     0.135 A 
ATOM     16  C   UNL d   1      56.323   0.642  33.400  0.00  0.00     0.056 A 
ATOM     17  C   UNL d   1      56.076   0.663  34.222  0.00  0.00     0.097 A 
ATOM     18  C   UNL d   1      56.666   0.673  34.836  0.00  0.00     0.024 A 
ATOM     19  C   UNL d   1      57.484   0.665  34.636  0.00  0.00     0.005 A 
ATOM     20  C   UNL d   1      57.728   0.645  33.821  0.00  0.00     0.032 A 
BRANCH  17  21
ATOM     21  O   UNL d   1      55.264   0.671  34.417  0.00  0.00    -0.328 OA
ATOM     22  C   UNL d   1      54.684   0.443  33.844  0.00  0.00     0.181 C 
ENDBRANCH  17  21
ENDBRANCH  14  15
ENDBRANCH   3  14
BRANCH   5  23
ATOM     23  C   UNL d   1      60.060   0.118  30.041  0.00  0.00     0.004 A 
ATOM     24  C   UNL d   1      59.879  -0.524  29.568  0.00  0.00     0.000 A 
ATOM     25  C   UNL d   1      60.233  -0.607  28.821  0.00  0.00     0.000 A 
ATOM     26  C   UNL d   1      60.759  -0.047  28.562  0.00  0.00     0.000 A 
ATOM     27  C   UNL d   1      60.943   0.602  29.036  0.00  0.00     0.000 A 
ATOM     28  C   UNL d   1      60.594   0.681  29.772  0.00  0.00     0.000 A 
ENDBRANCH   5  23
TORSDOF 4
ENDMDL
