MODEL 1
REMARK VINA RESULT:      -2.3      0.000      0.000
REMARK  3 active torsions:
REMARK  status: ('A' for Active; 'I' for Inactive)
REMARK    1  A    between atoms: C_4  and  C_1 
REMARK       I    between atoms: C_5  and  N_6 
REMARK    2  A    between atoms: C_8  and  C_5 
REMARK    3  A    between atoms: N_6  and  C_7 
ROOT
ATOM      1  C   UNL d   1      32.608  16.932 -24.360  0.00  0.00     0.042 A 
ATOM      2  C   UNL d   1      31.860  16.712 -24.635  0.00  0.00     0.087 A 
ATOM      3  C   UNL d   1      33.240  16.409 -24.443  0.00  0.00     0.004 A 
ATOM      4  C   UNL d   1      31.742  15.978 -24.990  0.00  0.00     0.019 A 
ATOM      5  C   UNL d   1      33.134  15.675 -24.796  0.00  0.00     0.000 A 
ATOM      6  C   UNL d   1      32.378  15.458 -25.071  0.00  0.00     0.002 A 
ENDROOT
BRANCH   1   7
ATOM      7  C   UNL d   1      32.722  17.668 -24.005  0.00  0.00     0.112 A 
ATOM      8  N   UNL d   1      32.767  18.419 -24.325  0.00  0.00    -0.238 NA
ATOM      9  C   UNL d   1      32.887  18.949 -23.706  0.00  0.00     0.088 A 
ATOM     10  C   UNL d   1      32.974  19.764 -23.688  0.00  0.00     0.020 A 
ATOM     11  C   UNL d   1      32.915  18.519 -23.009  0.00  0.00     0.049 A 
ATOM     12  C   UNL d   1      33.090  20.151 -22.968  0.00  0.00     0.002 A 
ATOM     13  C   UNL d   1      33.118  19.720 -22.270  0.00  0.00     0.001 A 
ATOM     14  C   UNL d   1      33.031  18.906 -22.289  0.00  0.00     0.008 A 
ATOM     15  S   UNL d   1      32.812  17.720 -23.200  0.00  0.00    -0.066 SA
ENDBRANCH   1   7
BRANCH   2  16
ATOM     16  N   UNL d   1      31.227  17.235 -24.552  0.00  0.00    -0.206 NA
ATOM     17  C   UNL d   1      30.452  16.979 -24.721  0.00  0.00     0.302 C 
ATOM     18  O   UNL d   1      30.321  16.205 -24.970  0.00  0.00    -0.263 OA
BRANCH  17  19
ATOM     19  C   UNL d   1      29.816  17.499 -24.639  0.00  0.00     0.158 A 
ATOM     20  O   UNL d   1      29.608  18.190 -25.046  0.00  0.00    -0.300 OA
ATOM     21  C   UNL d   1      28.915  18.470 -24.718  0.00  0.00     0.123 A 
ATOM     22  C   UNL d   1      28.681  17.967 -24.109  0.00  0.00     0.029 A 
ATOM     23  C   UNL d   1      29.243  17.364 -24.062  0.00  0.00     0.032 A 
ENDBRANCH  17  19
ENDBRANCH   2  16
TORSDOF 3
ENDMDL
MODEL 2
REMARK VINA RESULT:      -0.3      2.820      4.988
REMARK  3 active torsions:
REMARK  status: ('A' for Active; 'I' for Inactive)
REMARK    1  A    between atoms: C_4  and  C_1 
REMARK       I    between atoms: C_5  and  N_6 
REMARK    2  A    between atoms: C_8  and  C_5 
REMARK    3  A    between atoms: N_6  and  C_7 
ROOT
ATOM      1  C   UNL d   1      33.091  20.292 -21.863  0.00  0.00     0.042 A 
ATOM      2  C   UNL d   1      33.068  21.118 -21.882  0.00  0.00     0.087 A 
ATOM      3  C   UNL d   1      33.168  19.905 -21.139  0.00  0.00     0.004 A 
ATOM      4  C   UNL d   1      33.120  21.555 -21.185  0.00  0.00     0.019 A 
ATOM      5  C   UNL d   1      33.221  20.330 -20.439  0.00  0.00     0.000 A 
ATOM      6  C   UNL d   1      33.197  21.163 -20.463  0.00  0.00     0.002 A 
ENDROOT
BRANCH   1   7
ATOM      7  C   UNL d   1      33.038  19.857 -22.563  0.00  0.00     0.112 A 
ATOM      8  N   UNL d   1      33.178  20.069 -23.340  0.00  0.00    -0.238 NA
ATOM      9  C   UNL d   1      33.037  19.408 -23.810  0.00  0.00     0.088 A 
ATOM     10  C   UNL d   1      33.084  19.287 -24.619  0.00  0.00     0.020 A 
ATOM     11  C   UNL d   1      32.812  18.793 -23.317  0.00  0.00     0.049 A 
ATOM     12  C   UNL d   1      32.906  18.546 -24.937  0.00  0.00     0.002 A 
ATOM     13  C   UNL d   1      32.680  17.931 -24.444  0.00  0.00     0.001 A 
ATOM     14  C   UNL d   1      32.633  18.052 -23.635  0.00  0.00     0.008 A 
ATOM     15  S   UNL d   1      32.814  19.078 -22.540  0.00  0.00    -0.066 SA
ENDBRANCH   1   7
BRANCH   2  16
ATOM     16  N   UNL d   1      32.991  21.506 -22.605  0.00  0.00    -0.206 NA
ATOM     17  C   UNL d   1      32.965  22.339 -22.630  0.00  0.00     0.302 C 
ATOM     18  O   UNL d   1      33.016  22.771 -21.931  0.00  0.00    -0.263 OA
BRANCH  17  19
ATOM     19  C   UNL d   1      32.888  22.731 -23.352  0.00  0.00     0.158 A 
ATOM     20  O   UNL d   1      33.163  22.552 -24.113  0.00  0.00    -0.300 OA
ATOM     21  C   UNL d   1      32.915  23.148 -24.612  0.00  0.00     0.123 A 
ATOM     22  C   UNL d   1      32.486  23.702 -24.178  0.00  0.00     0.029 A 
ATOM     23  C   UNL d   1      32.471  23.440 -23.396  0.00  0.00     0.032 A 
ENDBRANCH  17  19
ENDBRANCH   2  16
TORSDOF 3
ENDMDL
MODEL 3
REMARK VINA RESULT:       0.1      3.377      5.308
REMARK  3 active torsions:
REMARK  status: ('A' for Active; 'I' for Inactive)
REMARK    1  A    between atoms: C_4  and  C_1 
REMARK       I    between atoms: C_5  and  N_6 
REMARK    2  A    between atoms: C_8  and  C_5 
REMARK    3  A    between atoms: N_6  and  C_7 
ROOT
ATOM      1  C   UNL d   1      33.100  22.653 -23.173  0.00  0.00     0.042 A 
ATOM      2  C   UNL d   1      33.176  21.929 -23.563  0.00  0.00     0.087 A 
ATOM      3  C   UNL d   1      33.087  23.351 -23.612  0.00  0.00     0.004 A 
ATOM      4  C   UNL d   1      33.239  21.899 -24.384  0.00  0.00     0.019 A 
ATOM      5  C   UNL d   1      33.149  23.332 -24.431  0.00  0.00     0.000 A 
ATOM      6  C   UNL d   1      33.226  22.599 -24.820  0.00  0.00     0.002 A 
ENDROOT
BRANCH   1   7
ATOM      7  C   UNL d   1      33.037  22.679 -22.350  0.00  0.00     0.112 A 
ATOM      8  N   UNL d   1      33.184  22.112 -21.781  0.00  0.00    -0.238 NA
ATOM      9  C   UNL d   1      33.027  22.448 -21.046  0.00  0.00     0.088 A 
ATOM     10  C   UNL d   1      33.073  22.150 -20.283  0.00  0.00     0.020 A 
ATOM     11  C   UNL d   1      32.784  23.220 -21.169  0.00  0.00     0.049 A 
ATOM     12  C   UNL d   1      32.875  22.629 -19.640  0.00  0.00     0.002 A 
ATOM     13  C   UNL d   1      32.632  23.402 -19.764  0.00  0.00     0.001 A 
ATOM     14  C   UNL d   1      32.586  23.699 -20.526  0.00  0.00     0.008 A 
ATOM     15  S   UNL d   1      32.791  23.361 -21.984  0.00  0.00    -0.066 SA
ENDBRANCH   1   7
BRANCH   2  16
ATOM     16  N   UNL d   1      33.189  21.230 -23.124  0.00  0.00    -0.206 NA
ATOM     17  C   UNL d   1      33.200  20.494 -23.514  0.00  0.00     0.302 C 
ATOM     18  O   UNL d   1      33.197  20.467 -24.337  0.00  0.00    -0.263 OA
BRANCH  17  19
ATOM     19  C   UNL d   1      33.213  19.793 -23.079  0.00  0.00     0.158 A 
ATOM     20  O   UNL d   1      33.214  19.647 -22.264  0.00  0.00    -0.300 OA
ATOM     21  C   UNL d   1      33.230  18.837 -22.158  0.00  0.00     0.123 A 
ATOM     22  C   UNL d   1      33.239  18.469 -22.895  0.00  0.00     0.029 A 
ATOM     23  C   UNL d   1      33.228  19.065 -23.466  0.00  0.00     0.032 A 
ENDBRANCH  17  19
ENDBRANCH   2  16
TORSDOF 3
ENDMDL
MODEL 4
REMARK VINA RESULT:       0.4      2.824      4.877
REMARK  3 active torsions:
REMARK  status: ('A' for Active; 'I' for Inactive)
REMARK    1  A    between atoms: C_4  and  C_1 
REMARK       I    between atoms: C_5  and  N_6 
REMARK    2  A    between atoms: C_8  and  C_5 
REMARK    3  A    between atoms: N_6  and  C_7 
ROOT
ATOM      1  C   UNL d   1      32.917  21.552 -21.541  0.00  0.00     0.042 A 
ATOM      2  C   UNL d   1      32.974  20.727 -21.540  0.00  0.00     0.087 A 
ATOM      3  C   UNL d   1      32.913  21.958 -20.823  0.00  0.00     0.004 A 
ATOM      4  C   UNL d   1      33.027  20.311 -20.831  0.00  0.00     0.019 A 
ATOM      5  C   UNL d   1      32.966  21.553 -20.111  0.00  0.00     0.000 A 
ATOM      6  C   UNL d   1      33.023  20.721 -20.116  0.00  0.00     0.002 A 
ENDROOT
BRANCH   1   7
ATOM      7  C   UNL d   1      32.863  21.966 -22.253  0.00  0.00     0.112 A 
ATOM      8  N   UNL d   1      33.241  21.855 -22.969  0.00  0.00    -0.238 NA
ATOM      9  C   UNL d   1      32.972  22.437 -23.487  0.00  0.00     0.088 A 
ATOM     10  C   UNL d   1      33.151  22.603 -24.269  0.00  0.00     0.020 A 
ATOM     11  C   UNL d   1      32.432  22.902 -23.083  0.00  0.00     0.049 A 
ATOM     12  C   UNL d   1      32.785  23.237 -24.651  0.00  0.00     0.002 A 
ATOM     13  C   UNL d   1      32.244  23.702 -24.247  0.00  0.00     0.001 A 
ATOM     14  C   UNL d   1      32.066  23.537 -23.465  0.00  0.00     0.008 A 
ATOM     15  S   UNL d   1      32.366  22.605 -22.314  0.00  0.00    -0.066 SA
ENDBRANCH   1   7
BRANCH   2  16
ATOM     16  N   UNL d   1      32.977  20.320 -22.257  0.00  0.00    -0.206 NA
ATOM     17  C   UNL d   1      32.949  19.487 -22.263  0.00  0.00     0.302 C 
ATOM     18  O   UNL d   1      32.918  19.074 -21.552  0.00  0.00    -0.263 OA
BRANCH  17  19
ATOM     19  C   UNL d   1      32.953  19.076 -22.979  0.00  0.00     0.158 A 
ATOM     20  O   UNL d   1      33.042  19.328 -23.763  0.00  0.00    -0.300 OA
ATOM     21  C   UNL d   1      32.997  18.668 -24.240  0.00  0.00     0.123 A 
ATOM     22  C   UNL d   1      32.881  18.001 -23.770  0.00  0.00     0.029 A 
ATOM     23  C   UNL d   1      32.853  18.258 -22.986  0.00  0.00     0.032 A 
ENDBRANCH  17  19
ENDBRANCH   2  16
TORSDOF 3
ENDMDL
MODEL 5
REMARK VINA RESULT:       0.6      3.830      5.349
REMARK  3 active torsions:
REMARK  status: ('A' for Active; 'I' for Inactive)
REMARK    1  A    between atoms: C_4  and  C_1 
REMARK       I    between atoms: C_5  and  N_6 
REMARK    2  A    between atoms: C_8  and  C_5 
REMARK    3  A    between atoms: N_6  and  C_7 
ROOT
ATOM      1  C   UNL d   1      33.218  20.516 -22.635  0.00  0.00     0.042 A 
ATOM      2  C   UNL d   1      33.193  20.559 -21.810  0.00  0.00     0.087 A 
ATOM      3  C   UNL d   1      33.241  19.778 -23.002  0.00  0.00     0.004 A 
ATOM      4  C   UNL d   1      33.189  19.872 -21.354  0.00  0.00     0.019 A 
ATOM      5  C   UNL d   1      33.237  19.087 -22.557  0.00  0.00     0.000 A 
ATOM      6  C   UNL d   1      33.211  19.136 -21.726  0.00  0.00     0.002 A 
ENDROOT
BRANCH   1   7
ATOM      7  C   UNL d   1      33.222  21.206 -23.088  0.00  0.00     0.112 A 
ATOM      8  N   UNL d   1      33.232  21.993 -22.870  0.00  0.00    -0.238 NA
ATOM      9  C   UNL d   1      33.232  22.444 -23.559  0.00  0.00     0.088 A 
ATOM     10  C   UNL d   1      33.239  23.254 -23.687  0.00  0.00     0.020 A 
ATOM     11  C   UNL d   1      33.221  21.930 -24.196  0.00  0.00     0.049 A 
ATOM     12  C   UNL d   1      33.236  23.551 -24.458  0.00  0.00     0.002 A 
ATOM     13  C   UNL d   1      33.225  23.035 -25.096  0.00  0.00     0.001 A 
ATOM     14  C   UNL d   1      33.218  22.226 -24.967  0.00  0.00     0.008 A 
ATOM     15  S   UNL d   1      33.215  21.158 -23.899  0.00  0.00    -0.066 SA
ENDBRANCH   1   7
BRANCH   2  16
ATOM     16  N   UNL d   1      33.171  21.296 -21.442  0.00  0.00    -0.206 NA
ATOM     17  C   UNL d   1      32.785  21.384 -20.708  0.00  0.00     0.302 C 
ATOM     18  O   UNL d   1      32.428  20.733 -20.353  0.00  0.00    -0.263 OA
BRANCH  17  19
ATOM     19  C   UNL d   1      32.761  22.121 -20.337  0.00  0.00     0.158 A 
ATOM     20  O   UNL d   1      32.340  22.813 -20.505  0.00  0.00    -0.300 OA
ATOM     21  C   UNL d   1      32.541  23.368 -19.941  0.00  0.00     0.123 A 
ATOM     22  C   UNL d   1      33.084  23.037 -19.417  0.00  0.00     0.029 A 
ATOM     23  C   UNL d   1      33.219  22.261 -19.665  0.00  0.00     0.032 A 
ENDBRANCH  17  19
ENDBRANCH   2  16
TORSDOF 3
ENDMDL
