MODEL 1
REMARK VINA RESULT:      -4.2      0.000      0.000
REMARK  2 active torsions:
REMARK  status: ('A' for Active; 'I' for Inactive)
REMARK    1  A    between atoms: C_7  and  C_1 
REMARK    2  A    between atoms: C_5  and  C_3 
ROOT
ATOM      1  C   UNL d   1      58.475  -0.342  29.623  0.00  0.00     0.067 A 
ATOM      2  N   UNL d   1      57.852  -1.646  30.421  0.00  0.00    -0.244 NA
ATOM      3  C   UNL d   1      57.666  -0.886  30.678  0.00  0.00     0.104 A 
ATOM      4  C   UNL d   1      57.976  -0.233  30.281  0.00  0.00     0.027 A 
ATOM      5  C   UNL d   1      58.660  -1.103  29.368  0.00  0.00     0.024 A 
ATOM      6  C   UNL d   1      58.351  -1.755  29.763  0.00  0.00     0.082 A 
ATOM      7  C   UNL d   1      59.154  -1.211  28.716  0.00  0.00     0.002 A 
ATOM      8  C   UNL d   1      58.535  -2.523  29.509  0.00  0.00     0.019 A 
ATOM      9  C   UNL d   1      59.340  -1.970  28.460  0.00  0.00     0.000 A 
ATOM     10  C   UNL d   1      59.030  -2.631  28.857  0.00  0.00     0.002 A 
ENDROOT
BRANCH   3  11
ATOM     11  C   UNL d   1      57.170  -0.778  31.332  0.00  0.00     0.118 A 
ATOM     12  O   UNL d   1      56.700  -1.336  31.718  0.00  0.00    -0.304 OA
ATOM     13  C   UNL d   1      56.313  -0.949  32.336  0.00  0.00     0.123 A 
ATOM     14  C   UNL d   1      56.539  -0.167  32.331  0.00  0.00     0.029 A 
ATOM     15  C   UNL d   1      57.070  -0.062  31.708  0.00  0.00     0.028 A 
ENDBRANCH   3  11
BRANCH   1  16
ATOM     16  C   UNL d   1      58.787   0.322  29.222  0.00  0.00     0.211 C 
ATOM     17  O   UNL d   1      59.526   0.616  29.442  0.00  0.00    -0.644 OA
ATOM     18  O   UNL d   1      58.358   0.679  28.613  0.00  0.00    -0.644 OA
ENDBRANCH   1  16
TORSDOF 2
ENDMDL
MODEL 2
REMARK VINA RESULT:      -3.9      1.236      1.847
REMARK  2 active torsions:
REMARK  status: ('A' for Active; 'I' for Inactive)
REMARK    1  A    between atoms: C_7  and  C_1 
REMARK    2  A    between atoms: C_5  and  C_3 
ROOT
ATOM      1  C   UNL d   1      58.313  -1.479  29.820  0.00  0.00     0.067 A 
ATOM      2  N   UNL d   1      57.716  -0.072  30.443  0.00  0.00    -0.244 NA
ATOM      3  C   UNL d   1      57.518  -0.789  30.796  0.00  0.00     0.104 A 
ATOM      4  C   UNL d   1      57.814  -1.493  30.487  0.00  0.00     0.027 A 
ATOM      5  C   UNL d   1      58.511  -0.761  29.468  0.00  0.00     0.024 A 
ATOM      6  C   UNL d   1      58.214  -0.058  29.776  0.00  0.00     0.082 A 
ATOM      7  C   UNL d   1      59.005  -0.747  28.808  0.00  0.00     0.002 A 
ATOM      8  C   UNL d   1      58.411   0.668  29.424  0.00  0.00     0.019 A 
ATOM      9  C   UNL d   1      59.203  -0.030  28.455  0.00  0.00     0.000 A 
ATOM     10  C   UNL d   1      58.905   0.682  28.764  0.00  0.00     0.002 A 
ENDROOT
BRANCH   3  11
ATOM     11  C   UNL d   1      57.021  -0.803  31.459  0.00  0.00     0.118 A 
ATOM     12  O   UNL d   1      56.687  -1.456  31.837  0.00  0.00    -0.304 OA
ATOM     13  C   UNL d   1      56.238  -1.174  32.469  0.00  0.00     0.123 A 
ATOM     14  C   UNL d   1      56.294  -0.362  32.481  0.00  0.00     0.029 A 
ATOM     15  C   UNL d   1      56.780  -0.133  31.855  0.00  0.00     0.028 A 
ENDBRANCH   3  11
BRANCH   1  16
ATOM     16  C   UNL d   1      58.613  -2.195  29.509  0.00  0.00     0.211 C 
ATOM     17  O   UNL d   1      59.376  -2.436  29.711  0.00  0.00    -0.644 OA
ATOM     18  O   UNL d   1      58.148  -2.654  29.003  0.00  0.00    -0.644 OA
ENDBRANCH   1  16
TORSDOF 2
ENDMDL
MODEL 3
REMARK VINA RESULT:      -3.7      1.504      1.951
REMARK  2 active torsions:
REMARK  status: ('A' for Active; 'I' for Inactive)
REMARK    1  A    between atoms: C_7  and  C_1 
REMARK    2  A    between atoms: C_5  and  C_3 
ROOT
ATOM      1  C   UNL d   1      58.273   0.112  29.840  0.00  0.00     0.067 A 
ATOM      2  N   UNL d   1      58.519   0.321  31.459  0.00  0.00    -0.244 NA
ATOM      3  C   UNL d   1      57.767   0.132  31.183  0.00  0.00     0.104 A 
ATOM      4  C   UNL d   1      57.641   0.027  30.376  0.00  0.00     0.027 A 
ATOM      5  C   UNL d   1      59.025   0.302  30.117  0.00  0.00     0.024 A 
ATOM      6  C   UNL d   1      59.151   0.407  30.923  0.00  0.00     0.082 A 
ATOM      7  C   UNL d   1      59.652   0.386  29.587  0.00  0.00     0.002 A 
ATOM      8  C   UNL d   1      59.908   0.598  31.207  0.00  0.00     0.019 A 
ATOM      9  C   UNL d   1      60.404   0.575  29.863  0.00  0.00     0.000 A 
ATOM     10  C   UNL d   1      60.534   0.682  30.676  0.00  0.00     0.002 A 
ENDROOT
BRANCH   3  11
ATOM     11  C   UNL d   1      57.137   0.047  31.716  0.00  0.00     0.118 A 
ATOM     12  O   UNL d   1      56.796  -0.648  32.001  0.00  0.00    -0.304 OA
ATOM     13  C   UNL d   1      56.189  -0.432  32.517  0.00  0.00     0.123 A 
ATOM     14  C   UNL d   1      56.157   0.381  32.550  0.00  0.00     0.029 A 
ATOM     15  C   UNL d   1      56.745   0.677  32.053  0.00  0.00     0.028 A 
ENDBRANCH   3  11
BRANCH   1  16
ATOM     16  C   UNL d   1      58.143   0.005  29.021  0.00  0.00     0.211 C 
ATOM     17  O   UNL d   1      58.224  -0.748  28.694  0.00  0.00    -0.644 OA
ATOM     18  O   UNL d   1      57.936   0.650  28.546  0.00  0.00    -0.644 OA
ENDBRANCH   1  16
TORSDOF 2
ENDMDL
MODEL 4
REMARK VINA RESULT:      -2.5      1.534      2.399
REMARK  2 active torsions:
REMARK  status: ('A' for Active; 'I' for Inactive)
REMARK    1  A    between atoms: C_7  and  C_1 
REMARK    2  A    between atoms: C_5  and  C_3 
ROOT
ATOM      1  C   UNL d   1      59.892  -2.156  29.208  0.00  0.00     0.067 A 
ATOM      2  N   UNL d   1      58.251  -1.983  29.240  0.00  0.00    -0.244 NA
ATOM      3  C   UNL d   1      58.731  -1.360  29.486  0.00  0.00     0.104 A 
ATOM      4  C   UNL d   1      59.550  -1.444  29.471  0.00  0.00     0.027 A 
ATOM      5  C   UNL d   1      59.412  -2.778  28.962  0.00  0.00     0.024 A 
ATOM      6  C   UNL d   1      58.594  -2.695  28.977  0.00  0.00     0.082 A 
ATOM      7  C   UNL d   1      59.751  -3.484  28.702  0.00  0.00     0.002 A 
ATOM      8  C   UNL d   1      58.106  -3.320  28.729  0.00  0.00     0.019 A 
ATOM      9  C   UNL d   1      59.272  -4.106  28.456  0.00  0.00     0.000 A 
ATOM     10  C   UNL d   1      58.445  -4.025  28.469  0.00  0.00     0.002 A 
ENDROOT
BRANCH   3  11
ATOM     11  C   UNL d   1      58.390  -0.651  29.748  0.00  0.00     0.118 A 
ATOM     12  O   UNL d   1      57.934  -0.520  30.422  0.00  0.00    -0.304 OA
ATOM     13  C   UNL d   1      57.729   0.280  30.431  0.00  0.00     0.123 A 
ATOM     14  C   UNL d   1      58.054   0.634  29.774  0.00  0.00     0.029 A 
ATOM     15  C   UNL d   1      58.463   0.056  29.351  0.00  0.00     0.028 A 
ENDBRANCH   3  11
BRANCH   1  16
ATOM     16  C   UNL d   1      60.725  -2.239  29.194  0.00  0.00     0.211 C 
ATOM     17  O   UNL d   1      61.131  -2.361  29.902  0.00  0.00    -0.644 OA
ATOM     18  O   UNL d   1      61.133  -2.199  28.477  0.00  0.00    -0.644 OA
ENDBRANCH   1  16
TORSDOF 2
ENDMDL
MODEL 5
REMARK VINA RESULT:      -2.4      2.047      2.712
REMARK  2 active torsions:
REMARK  status: ('A' for Active; 'I' for Inactive)
REMARK    1  A    between atoms: C_7  and  C_1 
REMARK    2  A    between atoms: C_5  and  C_3 
ROOT
ATOM      1  C   UNL d   1      57.681   0.210  31.102  0.00  0.00     0.067 A 
ATOM      2  N   UNL d   1      57.962   0.519  32.699  0.00  0.00    -0.244 NA
ATOM      3  C   UNL d   1      57.195   0.363  32.445  0.00  0.00     0.104 A 
ATOM      4  C   UNL d   1      57.052   0.208  31.648  0.00  0.00     0.027 A 
ATOM      5  C   UNL d   1      58.448   0.367  31.358  0.00  0.00     0.024 A 
ATOM      6  C   UNL d   1      58.591   0.521  32.153  0.00  0.00     0.082 A 
ATOM      7  C   UNL d   1      59.071   0.369  30.817  0.00  0.00     0.002 A 
ATOM      8  C   UNL d   1      59.364   0.680  32.415  0.00  0.00     0.019 A 
ATOM      9  C   UNL d   1      59.838   0.526  31.072  0.00  0.00     0.000 A 
ATOM     10  C   UNL d   1      59.987   0.682  31.874  0.00  0.00     0.002 A 
ENDROOT
BRANCH   3  11
ATOM     11  C   UNL d   1      56.569   0.361  32.988  0.00  0.00     0.118 A 
ATOM     12  O   UNL d   1      56.561   0.071  33.760  0.00  0.00    -0.304 OA
ATOM     13  C   UNL d   1      55.805   0.201  34.066  0.00  0.00     0.123 A 
ATOM     14  C   UNL d   1      55.356   0.564  33.492  0.00  0.00     0.029 A 
ATOM     15  C   UNL d   1      55.830   0.662  32.824  0.00  0.00     0.028 A 
ENDBRANCH   3  11
BRANCH   1  16
ATOM     16  C   UNL d   1      57.532   0.053  30.294  0.00  0.00     0.211 C 
ATOM     17  O   UNL d   1      57.374   0.681  29.783  0.00  0.00    -0.644 OA
ATOM     18  O   UNL d   1      57.545  -0.724  30.014  0.00  0.00    -0.644 OA
ENDBRANCH   1  16
TORSDOF 2
ENDMDL
MODEL 6
REMARK VINA RESULT:      -2.2      8.983      9.446
REMARK  2 active torsions:
REMARK  status: ('A' for Active; 'I' for Inactive)
REMARK    1  A    between atoms: C_7  and  C_1 
REMARK    2  A    between atoms: C_5  and  C_3 
ROOT
ATOM      1  C   UNL d   1      60.070  -9.354  32.779  0.00  0.00     0.067 A 
ATOM      2  N   UNL d   1      58.771  -9.611  33.765  0.00  0.00    -0.244 NA
ATOM      3  C   UNL d   1      59.509  -9.459  34.097  0.00  0.00     0.104 A 
ATOM      4  C   UNL d   1      60.159  -9.330  33.607  0.00  0.00     0.027 A 
ATOM      5  C   UNL d   1      59.331  -9.507  32.449  0.00  0.00     0.024 A 
ATOM      6  C   UNL d   1      58.682  -9.635  32.937  0.00  0.00     0.082 A 
ATOM      7  C   UNL d   1      59.242  -9.530  31.629  0.00  0.00     0.002 A 
ATOM      8  C   UNL d   1      57.935  -9.789  32.608  0.00  0.00     0.019 A 
ATOM      9  C   UNL d   1      58.505  -9.682  31.297  0.00  0.00     0.000 A 
ATOM     10  C   UNL d   1      57.846  -9.812  31.788  0.00  0.00     0.002 A 
ENDROOT
BRANCH   3  11
ATOM     11  C   UNL d   1      59.598  -9.435  34.920  0.00  0.00     0.118 A 
ATOM     12  O   UNL d   1      59.128  -9.046  35.476  0.00  0.00    -0.304 OA
ATOM     13  C   UNL d   1      59.452  -9.195  36.221  0.00  0.00     0.123 A 
ATOM     14  C   UNL d   1      60.108  -9.668  36.126  0.00  0.00     0.029 A 
ATOM     15  C   UNL d   1      60.198  -9.816  35.319  0.00  0.00     0.028 A 
ENDBRANCH   3  11
BRANCH   1  16
ATOM     16  C   UNL d   1      60.731  -9.224  32.284  0.00  0.00     0.211 C 
ATOM     17  O   UNL d   1      61.122  -8.497  32.314  0.00  0.00    -0.644 OA
ATOM     18  O   UNL d   1      60.989  -9.818  31.771  0.00  0.00    -0.644 OA
ENDBRANCH   1  16
TORSDOF 2
ENDMDL
MODEL 7
REMARK VINA RESULT:      -2.0      2.488      3.522
REMARK  2 active torsions:
REMARK  status: ('A' for Active; 'I' for Inactive)
REMARK    1  A    between atoms: C_7  and  C_1 
REMARK    2  A    between atoms: C_5  and  C_3 
ROOT
ATOM      1  C   UNL d   1      59.249  -2.367  29.077  0.00  0.00     0.067 A 
ATOM      2  N   UNL d   1      60.845  -1.985  28.904  0.00  0.00    -0.244 NA
ATOM      3  C   UNL d   1      60.307  -1.397  29.110  0.00  0.00     0.104 A 
ATOM      4  C   UNL d   1      59.510  -1.585  29.198  0.00  0.00     0.027 A 
ATOM      5  C   UNL d   1      59.789  -2.953  28.871  0.00  0.00     0.024 A 
ATOM      6  C   UNL d   1      60.585  -2.767  28.783  0.00  0.00     0.082 A 
ATOM      7  C   UNL d   1      59.531  -3.728  28.751  0.00  0.00     0.002 A 
ATOM      8  C   UNL d   1      61.132  -3.356  28.575  0.00  0.00     0.019 A 
ATOM      9  C   UNL d   1      60.069  -4.315  28.545  0.00  0.00     0.000 A 
ATOM     10  C   UNL d   1      60.874  -4.130  28.456  0.00  0.00     0.002 A 
ENDROOT
BRANCH   3  11
ATOM     11  C   UNL d   1      60.566  -0.619  29.230  0.00  0.00     0.118 A 
ATOM     12  O   UNL d   1      61.024  -0.320  29.848  0.00  0.00    -0.304 OA
ATOM     13  C   UNL d   1      61.129   0.488  29.710  0.00  0.00     0.123 A 
ATOM     14  C   UNL d   1      60.743   0.682  29.020  0.00  0.00     0.029 A 
ATOM     15  C   UNL d   1      60.395  -0.004  28.723  0.00  0.00     0.028 A 
ENDBRANCH   3  11
BRANCH   1  16
ATOM     16  C   UNL d   1      58.439  -2.555  29.166  0.00  0.00     0.211 C 
ATOM     17  O   UNL d   1      58.095  -2.517  29.916  0.00  0.00    -0.644 OA
ATOM     18  O   UNL d   1      57.990  -2.775  28.509  0.00  0.00    -0.644 OA
ENDBRANCH   1  16
TORSDOF 2
ENDMDL
MODEL 8
REMARK VINA RESULT:      -1.8      1.850      2.067
REMARK  2 active torsions:
REMARK  status: ('A' for Active; 'I' for Inactive)
REMARK    1  A    between atoms: C_7  and  C_1 
REMARK    2  A    between atoms: C_5  and  C_3 
ROOT
ATOM      1  C   UNL d   1      59.148   0.204  30.674  0.00  0.00     0.067 A 
ATOM      2  N   UNL d   1      57.518   0.424  30.536  0.00  0.00    -0.244 NA
ATOM      3  C   UNL d   1      57.845   0.266  31.275  0.00  0.00     0.104 A 
ATOM      4  C   UNL d   1      58.659   0.156  31.347  0.00  0.00     0.027 A 
ATOM      5  C   UNL d   1      58.819   0.363  29.936  0.00  0.00     0.024 A 
ATOM      6  C   UNL d   1      58.007   0.473  29.864  0.00  0.00     0.082 A 
ATOM      7  C   UNL d   1      59.303   0.411  29.270  0.00  0.00     0.002 A 
ATOM      8  C   UNL d   1      57.672   0.633  29.121  0.00  0.00     0.019 A 
ATOM      9  C   UNL d   1      58.976   0.570  28.532  0.00  0.00     0.000 A 
ATOM     10  C   UNL d   1      58.156   0.682  28.455  0.00  0.00     0.002 A 
ENDROOT
BRANCH   3  11
ATOM     11  C   UNL d   1      57.359   0.217  31.944  0.00  0.00     0.118 A 
ATOM     12  O   UNL d   1      57.439   0.608  32.666  0.00  0.00    -0.304 OA
ATOM     13  C   UNL d   1      56.811   0.370  33.147  0.00  0.00     0.123 A 
ATOM     14  C   UNL d   1      56.354  -0.157  32.729  0.00  0.00     0.029 A 
ATOM     15  C   UNL d   1      56.694  -0.251  31.984  0.00  0.00     0.028 A 
ENDBRANCH   3  11
BRANCH   1  16
ATOM     16  C   UNL d   1      59.973   0.092  30.750  0.00  0.00     0.211 C 
ATOM     17  O   UNL d   1      60.318  -0.594  30.446  0.00  0.00    -0.644 OA
ATOM     18  O   UNL d   1      60.437   0.664  31.125  0.00  0.00    -0.644 OA
ENDBRANCH   1  16
TORSDOF 2
ENDMDL
