MODEL 1
REMARK VINA RESULT:     -10.6      0.000      0.000
REMARK  3 active torsions:
REMARK  status: ('A' for Active; 'I' for Inactive)
REMARK    1  A    between atoms: C_6  and  C_1 
REMARK    2  A    between atoms: O_10  and  C_6 
REMARK    3  A    between atoms: C_19  and  O_10 
ROOT
ATOM      1  C   UNL d   1      53.237  33.889  53.870  0.00  0.00     0.081 A 
ATOM      2  C   UNL d   1      51.941  33.639  53.231  0.00  0.00     0.056 A 
ATOM      3  C   UNL d   1      51.756  34.426  53.299  0.00  0.00     0.080 A 
ATOM      4  C   UNL d   1      53.052  34.676  53.938  0.00  0.00     0.086 A 
ATOM      5  C   UNL d   1      52.665  33.351  53.506  0.00  0.00     0.013 A 
ATOM      6  N   UNL d   1      52.284  34.974  53.645  0.00  0.00    -0.246 NA
ATOM      7  C   UNL d   1      51.411  33.109  52.887  0.00  0.00     0.193 A 
ATOM      8  C   UNL d   1      51.030  34.732  53.027  0.00  0.00    -0.003 A 
ATOM      9  C   UNL d   1      50.498  34.184  52.679  0.00  0.00     0.042 A 
ATOM     10  C   UNL d   1      50.683  33.397  52.611  0.00  0.00     0.019 A 
ATOM     11  O   UNL d   1      51.596  32.322  52.819  0.00  0.00    -0.287 OA
ATOM     12  C   UNL d   1      52.965  32.075  53.396  0.00  0.00     0.020 A 
ATOM     13  N   UNL d   1      53.907  31.036  53.625  0.00  0.00    -0.242 NA
ATOM     14  C   UNL d   1      53.579  35.223  54.284  0.00  0.00     0.021 C 
ATOM     15  C   UNL d   1      53.719  31.835  53.693  0.00  0.00     0.099 A 
ATOM     16  C   UNL d   1      49.886  34.666  52.493  0.00  0.00     0.009 C 
ATOM     17  C   UNL d   1      49.796  34.049  52.332  0.00  0.00     0.009 C 
ATOM     18  C   UNL d   1      53.331  30.514  53.261  0.00  0.00     0.099 A 
ATOM     19  C   UNL d   1      52.420  31.585  53.053  0.00  0.00     0.003 A 
ATOM     20  C   UNL d   1      52.608  30.786  52.984  0.00  0.00     0.021 A 
ENDROOT
BRANCH   1  21
ATOM     21  C   UNL d   1      53.961  33.600  54.144  0.00  0.00     0.301 C 
ATOM     22  O   UNL d   1      54.569  33.450  53.629  0.00  0.00    -0.259 OA
BRANCH  21  23
ATOM     23  O   UNL d   1      54.051  33.468  54.955  0.00  0.00    -0.273 OA
BRANCH  23  24
ATOM     24  C   UNL d   1      54.736  33.530  55.272  0.00  0.00     0.103 C 
ATOM     25  C   UNL d   1      54.813  33.381  56.027  0.00  0.00     0.027 C 
ATOM     26  C   UNL d   1      55.331  33.735  54.846  0.00  0.00     0.027 C 
ENDBRANCH  23  24
ENDBRANCH  21  23
ENDBRANCH   1  21
TORSDOF 3
ENDMDL
MODEL 2
REMARK VINA RESULT:      -9.9      0.778      3.147
REMARK  3 active torsions:
REMARK  status: ('A' for Active; 'I' for Inactive)
REMARK    1  A    between atoms: C_6  and  C_1 
REMARK    2  A    between atoms: O_10  and  C_6 
REMARK    3  A    between atoms: C_19  and  O_10 
ROOT
ATOM      1  C   UNL d   1      53.468  33.419  53.909  0.00  0.00     0.081 A 
ATOM      2  C   UNL d   1      52.973  32.106  53.483  0.00  0.00     0.056 A 
ATOM      3  C   UNL d   1      53.658  31.762  53.748  0.00  0.00     0.080 A 
ATOM      4  C   UNL d   1      54.152  33.075  54.174  0.00  0.00     0.086 A 
ATOM      5  C   UNL d   1      52.856  32.921  53.552  0.00  0.00     0.013 A 
ATOM      6  N   UNL d   1      54.269  32.211  54.098  0.00  0.00    -0.246 NA
ATOM      7  C   UNL d   1      52.377  31.651  53.139  0.00  0.00     0.193 A 
ATOM      8  C   UNL d   1      53.790  30.941  53.685  0.00  0.00    -0.003 A 
ATOM      9  C   UNL d   1      53.177  30.487  53.333  0.00  0.00     0.042 A 
ATOM     10  C   UNL d   1      52.493  30.832  53.068  0.00  0.00     0.019 A 
ATOM     11  O   UNL d   1      51.692  31.995  52.873  0.00  0.00    -0.287 OA
ATOM     12  C   UNL d   1      51.746  33.479  53.122  0.00  0.00     0.020 A 
ATOM     13  N   UNL d   1      50.984  34.667  52.949  0.00  0.00    -0.242 NA
ATOM     14  C   UNL d   1      54.764  33.524  54.525  0.00  0.00     0.021 C 
ATOM     15  C   UNL d   1      51.680  34.317  53.218  0.00  0.00     0.099 A 
ATOM     16  C   UNL d   1      53.495  29.753  53.370  0.00  0.00     0.009 C 
ATOM     17  C   UNL d   1      52.910  29.777  53.102  0.00  0.00     0.009 C 
ATOM     18  C   UNL d   1      50.387  34.162  52.596  0.00  0.00     0.099 A 
ATOM     19  C   UNL d   1      51.184  33.001  52.790  0.00  0.00     0.003 A 
ATOM     20  C   UNL d   1      50.488  33.351  52.521  0.00  0.00     0.021 A 
ENDROOT
BRANCH   1  21
ATOM     21  C   UNL d   1      53.351  34.234  53.978  0.00  0.00     0.301 C 
ATOM     22  O   UNL d   1      53.540  34.733  53.366  0.00  0.00    -0.259 OA
BRANCH  21  23
ATOM     23  O   UNL d   1      53.038  34.529  54.683  0.00  0.00    -0.273 OA
BRANCH  23  24
ATOM     24  C   UNL d   1      53.231  35.222  54.920  0.00  0.00     0.103 C 
ATOM     25  C   UNL d   1      53.333  35.343  55.677  0.00  0.00     0.027 C 
ATOM     26  C   UNL d   1      53.321  35.782  54.414  0.00  0.00     0.027 C 
ENDBRANCH  23  24
ENDBRANCH  21  23
ENDBRANCH   1  21
TORSDOF 3
ENDMDL
MODEL 3
REMARK VINA RESULT:      -9.6      0.899      3.480
REMARK  3 active torsions:
REMARK  status: ('A' for Active; 'I' for Inactive)
REMARK    1  A    between atoms: C_6  and  C_1 
REMARK    2  A    between atoms: O_10  and  C_6 
REMARK    3  A    between atoms: C_19  and  O_10 
ROOT
ATOM      1  C   UNL d   1      52.309  33.809  53.656  0.00  0.00     0.081 A 
ATOM      2  C   UNL d   1      53.602  33.462  54.254  0.00  0.00     0.056 A 
ATOM      3  C   UNL d   1      53.671  34.217  54.543  0.00  0.00     0.080 A 
ATOM      4  C   UNL d   1      52.378  34.563  53.945  0.00  0.00     0.086 A 
ATOM      5  C   UNL d   1      52.940  33.237  53.814  0.00  0.00     0.013 A 
ATOM      6  N   UNL d   1      53.082  34.794  54.410  0.00  0.00    -0.246 NA
ATOM      7  C   UNL d   1      54.191  32.902  54.393  0.00  0.00     0.193 A 
ATOM      8  C   UNL d   1      54.334  34.459  54.988  0.00  0.00    -0.003 A 
ATOM      9  C   UNL d   1      54.927  33.880  55.123  0.00  0.00     0.042 A 
ATOM     10  C   UNL d   1      54.858  33.125  54.835  0.00  0.00     0.019 A 
ATOM     11  O   UNL d   1      54.122  32.146  54.104  0.00  0.00    -0.287 OA
ATOM     12  C   UNL d   1      52.828  32.013  53.347  0.00  0.00     0.020 A 
ATOM     13  N   UNL d   1      52.059  31.071  52.610  0.00  0.00    -0.242 NA
ATOM     14  C   UNL d   1      51.789  35.141  53.812  0.00  0.00     0.021 C 
ATOM     15  C   UNL d   1      52.129  31.838  52.903  0.00  0.00     0.099 A 
ATOM     16  C   UNL d   1      55.453  34.304  55.554  0.00  0.00     0.009 C 
ATOM     17  C   UNL d   1      55.627  33.693  55.447  0.00  0.00     0.009 C 
ATOM     18  C   UNL d   1      52.692  30.516  52.774  0.00  0.00     0.099 A 
ATOM     19  C   UNL d   1      53.426  31.491  53.503  0.00  0.00     0.003 A 
ATOM     20  C   UNL d   1      53.356  30.724  53.210  0.00  0.00     0.021 A 
ENDROOT
BRANCH   1  21
ATOM     21  C   UNL d   1      51.647  33.584  53.216  0.00  0.00     0.301 C 
ATOM     22  O   UNL d   1      51.051  33.150  53.557  0.00  0.00    -0.259 OA
BRANCH  21  23
ATOM     23  O   UNL d   1      51.605  33.809  52.423  0.00  0.00    -0.273 OA
BRANCH  23  24
ATOM     24  C   UNL d   1      50.937  33.993  52.119  0.00  0.00     0.103 C 
ATOM     25  C   UNL d   1      50.906  34.180  51.368  0.00  0.00     0.027 C 
ATOM     26  C   UNL d   1      50.312  33.990  52.551  0.00  0.00     0.027 C 
ENDBRANCH  23  24
ENDBRANCH  21  23
ENDBRANCH   1  21
TORSDOF 3
ENDMDL
MODEL 4
REMARK VINA RESULT:      -8.8      1.164      3.642
REMARK  3 active torsions:
REMARK  status: ('A' for Active; 'I' for Inactive)
REMARK    1  A    between atoms: C_6  and  C_1 
REMARK    2  A    between atoms: O_10  and  C_6 
REMARK    3  A    between atoms: C_19  and  O_10 
ROOT
ATOM      1  C   UNL d   1      52.468  33.106  53.193  0.00  0.00     0.081 A 
ATOM      2  C   UNL d   1      53.117  31.842  53.555  0.00  0.00     0.056 A 
ATOM      3  C   UNL d   1      52.627  31.445  53.046  0.00  0.00     0.080 A 
ATOM      4  C   UNL d   1      51.977  32.708  52.685  0.00  0.00     0.086 A 
ATOM      5  C   UNL d   1      53.058  32.661  53.644  0.00  0.00     0.013 A 
ATOM      6  N   UNL d   1      52.046  31.841  52.595  0.00  0.00    -0.246 NA
ATOM      7  C   UNL d   1      53.687  31.438  53.994  0.00  0.00     0.193 A 
ATOM      8  C   UNL d   1      52.674  30.618  52.945  0.00  0.00    -0.003 A 
ATOM      9  C   UNL d   1      53.257  30.217  53.398  0.00  0.00     0.042 A 
ATOM     10  C   UNL d   1      53.748  30.615  53.906  0.00  0.00     0.019 A 
ATOM     11  O   UNL d   1      54.178  31.836  54.503  0.00  0.00    -0.287 OA
ATOM     12  C   UNL d   1      53.854  33.306  54.469  0.00  0.00     0.020 A 
ATOM     13  N   UNL d   1      54.248  34.548  55.037  0.00  0.00    -0.242 NA
ATOM     14  C   UNL d   1      51.397  33.105  52.234  0.00  0.00     0.021 C 
ATOM     15  C   UNL d   1      53.750  34.144  54.520  0.00  0.00     0.099 A 
ATOM     16  C   UNL d   1      53.138  29.461  53.160  0.00  0.00     0.009 C 
ATOM     17  C   UNL d   1      53.609  29.533  53.594  0.00  0.00     0.009 C 
ATOM     18  C   UNL d   1      54.828  34.095  55.478  0.00  0.00     0.099 A 
ATOM     19  C   UNL d   1      54.401  32.877  54.883  0.00  0.00     0.003 A 
ATOM     20  C   UNL d   1      54.899  33.281  55.400  0.00  0.00     0.021 A 
ENDROOT
BRANCH   1  21
ATOM     21  C   UNL d   1      52.409  33.925  53.283  0.00  0.00     0.301 C 
ATOM     22  O   UNL d   1      52.893  34.424  52.863  0.00  0.00    -0.259 OA
BRANCH  21  23
ATOM     23  O   UNL d   1      51.848  34.225  53.809  0.00  0.00    -0.273 OA
BRANCH  23  24
ATOM     24  C   UNL d   1      51.497  34.878  53.653  0.00  0.00     0.103 C 
ATOM     25  C   UNL d   1      50.754  34.862  53.437  0.00  0.00     0.027 C 
ATOM     26  C   UNL d   1      51.878  35.533  53.712  0.00  0.00     0.027 C 
ENDBRANCH  23  24
ENDBRANCH  21  23
ENDBRANCH   1  21
TORSDOF 3
ENDMDL
MODEL 5
REMARK VINA RESULT:      -8.8      1.229      2.706
REMARK  3 active torsions:
REMARK  status: ('A' for Active; 'I' for Inactive)
REMARK    1  A    between atoms: C_6  and  C_1 
REMARK    2  A    between atoms: O_10  and  C_6 
REMARK    3  A    between atoms: C_19  and  O_10 
ROOT
ATOM      1  C   UNL d   1      52.894  31.939  53.301  0.00  0.00     0.081 A 
ATOM      2  C   UNL d   1      52.178  33.218  53.344  0.00  0.00     0.056 A 
ATOM      3  C   UNL d   1      51.620  32.923  52.835  0.00  0.00     0.080 A 
ATOM      4  C   UNL d   1      52.335  31.644  52.792  0.00  0.00     0.086 A 
ATOM      5  C   UNL d   1      52.815  32.752  53.588  0.00  0.00     0.013 A 
ATOM      6  N   UNL d   1      51.663  32.144  52.539  0.00  0.00    -0.246 NA
ATOM      7  C   UNL d   1      52.123  33.990  53.630  0.00  0.00     0.193 A 
ATOM      8  C   UNL d   1      50.971  33.382  52.581  0.00  0.00    -0.003 A 
ATOM      9  C   UNL d   1      50.925  34.166  52.878  0.00  0.00     0.042 A 
ATOM     10  C   UNL d   1      51.484  34.461  53.386  0.00  0.00     0.019 A 
ATOM     11  O   UNL d   1      52.682  34.286  54.139  0.00  0.00    -0.287 OA
ATOM     12  C   UNL d   1      53.721  33.231  54.412  0.00  0.00     0.020 A 
ATOM     13  N   UNL d   1      54.919  33.009  55.145  0.00  0.00    -0.242 NA
ATOM     14  C   UNL d   1      52.378  30.865  52.495  0.00  0.00     0.021 C 
ATOM     15  C   UNL d   1      54.352  32.710  54.628  0.00  0.00     0.099 A 
ATOM     16  C   UNL d   1      50.254  34.421  52.522  0.00  0.00     0.009 C 
ATOM     17  C   UNL d   1      50.538  34.858  52.901  0.00  0.00     0.009 C 
ATOM     18  C   UNL d   1      54.829  33.816  55.421  0.00  0.00     0.099 A 
ATOM     19  C   UNL d   1      53.634  33.992  54.672  0.00  0.00     0.003 A 
ATOM     20  C   UNL d   1      54.202  34.292  55.189  0.00  0.00     0.021 A 
ENDROOT
BRANCH   1  21
ATOM     21  C   UNL d   1      53.531  31.473  53.544  0.00  0.00     0.301 C 
ATOM     22  O   UNL d   1      54.262  31.558  53.202  0.00  0.00    -0.259 OA
BRANCH  21  23
ATOM     23  O   UNL d   1      53.408  30.919  54.144  0.00  0.00    -0.273 OA
BRANCH  23  24
ATOM     24  C   UNL d   1      53.693  30.222  54.077  0.00  0.00     0.103 C 
ATOM     25  C   UNL d   1      53.398  29.653  54.510  0.00  0.00     0.027 C 
ATOM     26  C   UNL d   1      54.261  30.093  53.588  0.00  0.00     0.027 C 
ENDBRANCH  23  24
ENDBRANCH  21  23
ENDBRANCH   1  21
TORSDOF 3
ENDMDL
