MODEL 1
REMARK VINA RESULT:      58.0      0.000      0.000
REMARK  5 active torsions:
REMARK  status: ('A' for Active; 'I' for Inactive)
REMARK    1  A    between atoms: C_7  and  N_1 
REMARK    2  A    between atoms: C_15  and  C_3 
REMARK    3  A    between atoms: N_4  and  C_8 
REMARK    4  A    between atoms: C_10  and  C_11 
REMARK       I    between atoms: C_11  and  N_12 
REMARK    5  A    between atoms: N_12  and  C_15 
ROOT
ATOM      1  C   UNL d   1      13.349  14.324  -3.062  0.00  0.00     0.141 C 
ENDROOT
BRANCH   1   2
ATOM      2  N   UNL d   1      13.823  14.992  -3.150  0.00  0.00    -0.203 NA
ATOM      3  C   UNL d   1      14.148  15.352  -2.478  0.00  0.00     0.279 C 
ATOM      4  O   UNL d   1      14.000  15.048  -1.746  0.00  0.00    -0.265 OA
BRANCH   3   5
ATOM      5  C   UNL d   1      14.624  16.025  -2.573  0.00  0.00     0.059 A 
ATOM      6  C   UNL d   1      14.925  16.406  -1.906  0.00  0.00     0.027 A 
ATOM      7  C   UNL d   1      15.389  17.063  -2.000  0.00  0.00     0.127 A 
ATOM      8  C   UNL d   1      14.746  16.109  -1.162  0.00  0.00     0.002 C 
ATOM      9  C   UNL d   1      15.567  17.359  -2.757  0.00  0.00     0.024 A 
ATOM     10  C   UNL d   1      15.272  16.987  -3.426  0.00  0.00     0.002 A 
ATOM     11  C   UNL d   1      14.806  16.327  -3.334  0.00  0.00     0.005 A 
BRANCH   7  12
ATOM     12  N   UNL d   1      15.682  17.433  -1.334  0.00  0.00    -0.114 N 
ATOM     13  O   UNL d   1      15.235  17.995  -0.931  0.00  0.00    -0.532 OA
ATOM     14  O   UNL d   1      16.441  17.243  -1.056  0.00  0.00    -0.532 OA
ENDBRANCH   7  12
ENDBRANCH   3   5
ENDBRANCH   1   2
BRANCH   1  15
ATOM     15  C   UNL d   1      13.327  13.752  -3.658  0.00  0.00     0.191 A 
ATOM     16  N   UNL d   1      13.421  12.944  -3.568  0.00  0.00    -0.264 N 
ATOM     17  C   UNL d   1      13.359  12.582  -4.297  0.00  0.00     0.227 A 
ATOM     18  N   UNL d   1      13.222  13.177  -4.864  0.00  0.00    -0.117 NA
ATOM     19  S   UNL d   1      13.418  11.780  -4.455  0.00  0.00    -0.036 SA
ATOM     20  N   UNL d   1      13.202  13.906  -4.466  0.00  0.00    -0.126 NA
BRANCH  16  21
ATOM     21  C   UNL d   1      13.557  12.555  -2.849  0.00  0.00     0.068 A 
ATOM     22  C   UNL d   1      14.308  12.571  -2.524  0.00  0.00     0.018 A 
ATOM     23  C   UNL d   1      14.439  12.182  -1.806  0.00  0.00     0.001 A 
ATOM     24  C   UNL d   1      15.194  12.187  -1.462  0.00  0.00     0.000 C 
ATOM     25  C   UNL d   1      13.819  11.781  -1.421  0.00  0.00     0.000 A 
ATOM     26  C   UNL d   1      13.081  11.780  -1.765  0.00  0.00     0.002 A 
ATOM     27  C   UNL d   1      12.934  12.162  -2.479  0.00  0.00     0.018 A 
ENDBRANCH  16  21
ENDBRANCH   1  15
TORSDOF 5
ENDMDL
