MODEL 1
REMARK VINA RESULT:      -5.7      0.000      0.000
REMARK  5 active torsions:
REMARK  status: ('A' for Active; 'I' for Inactive)
REMARK       I    between atoms: C_2  and  N_1 
REMARK    1  A    between atoms: C_3  and  N_1 
REMARK    2  A    between atoms: C_4  and  C_2 
REMARK    3  A    between atoms: N_6  and  C_3 
REMARK    4  A    between atoms: C_11  and  N_6 
REMARK    5  A    between atoms: C_12  and  C_11 
ROOT
ATOM      1  N   UNL d   1     -41.915-121.939 -52.261  0.00  0.00    -0.179 NA
ATOM      2  C   UNL d   1     -41.615-122.428 -52.835  0.00  0.00     0.281 C 
ATOM      3  O   UNL d   1     -41.123-123.058 -52.614  0.00  0.00    -0.265 OA
ENDROOT
BRANCH   1   4
ATOM      4  C   UNL d   1     -41.746-122.045 -51.465  0.00  0.00     0.224 C 
ATOM      5  S   UNL d   1     -41.123-121.631 -51.110  0.00  0.00    -0.037 SA
BRANCH   4   6
ATOM      6  N   UNL d   1     -42.199-122.561 -51.027  0.00  0.00    -0.214 NA
BRANCH   6   7
ATOM      7  C   UNL d   1     -42.573-122.299 -50.338  0.00  0.00     0.126 C 
BRANCH   7   8
ATOM      8  C   UNL d   1     -42.834-122.851 -49.767  0.00  0.00     0.119 A 
ATOM      9  O   UNL d   1     -43.493-123.340 -49.845  0.00  0.00    -0.304 OA
ATOM     10  C   UNL d   1     -43.557-123.799 -49.162  0.00  0.00     0.123 A 
ATOM     11  C   UNL d   1     -42.931-123.584 -48.668  0.00  0.00     0.029 A 
ATOM     12  C   UNL d   1     -42.493-123.005 -49.044  0.00  0.00     0.028 A 
ENDBRANCH   7   8
ENDBRANCH   6   7
ENDBRANCH   4   6
ENDBRANCH   1   4
BRANCH   2  13
ATOM     13  C   UNL d   1     -41.803-122.297 -53.637  0.00  0.00     0.058 A 
ATOM     14  C   UNL d   1     -41.317-122.623 -54.204  0.00  0.00     0.005 A 
ATOM     15  C   UNL d   1     -41.489-122.503 -55.004  0.00  0.00     0.000 A 
ATOM     16  C   UNL d   1     -42.142-122.059 -55.233  0.00  0.00     0.000 A 
ATOM     17  C   UNL d   1     -42.628-121.733 -54.639  0.00  0.00     0.000 A 
ATOM     18  C   UNL d   1     -42.300-121.948 -56.046  0.00  0.00     0.000 C 
ATOM     19  C   UNL d   1     -42.453-121.856 -53.853  0.00  0.00     0.005 A 
ENDBRANCH   2  13
TORSDOF 5
ENDMDL
MODEL 2
REMARK VINA RESULT:      -4.7      1.180      4.785
REMARK  5 active torsions:
REMARK  status: ('A' for Active; 'I' for Inactive)
REMARK       I    between atoms: C_2  and  N_1 
REMARK    1  A    between atoms: C_3  and  N_1 
REMARK    2  A    between atoms: C_4  and  C_2 
REMARK    3  A    between atoms: N_6  and  C_3 
REMARK    4  A    between atoms: C_11  and  N_6 
REMARK    5  A    between atoms: C_12  and  C_11 
ROOT
ATOM      1  N   UNL d   1     -41.963-122.833 -51.813  0.00  0.00    -0.179 NA
ATOM      2  C   UNL d   1     -41.709-123.236 -51.156  0.00  0.00     0.281 C 
ATOM      3  O   UNL d   1     -41.123-123.817 -51.239  0.00  0.00    -0.265 OA
ENDROOT
BRANCH   1   4
ATOM      4  C   UNL d   1     -41.660-122.980 -52.561  0.00  0.00     0.224 C 
ATOM      5  S   UNL d   1     -41.125-123.599 -52.681  0.00  0.00    -0.037 SA
BRANCH   4   6
ATOM      6  N   UNL d   1     -41.891-122.510 -53.184  0.00  0.00    -0.214 NA
BRANCH   6   7
ATOM      7  C   UNL d   1     -41.597-122.658 -53.943  0.00  0.00     0.126 C 
BRANCH   7   8
ATOM      8  C   UNL d   1     -41.949-122.293 -54.608  0.00  0.00     0.119 A 
ATOM      9  O   UNL d   1     -42.757-122.159 -54.704  0.00  0.00    -0.304 OA
ATOM     10  C   UNL d   1     -42.872-121.787 -55.432  0.00  0.00     0.123 A 
ATOM     11  C   UNL d   1     -42.127-121.696 -55.777  0.00  0.00     0.029 A 
ATOM     12  C   UNL d   1     -41.568-122.007 -55.268  0.00  0.00     0.028 A 
ENDBRANCH   7   8
ENDBRANCH   6   7
ENDBRANCH   4   6
ENDBRANCH   1   4
BRANCH   2  13
ATOM     13  C   UNL d   1     -42.034-123.066 -50.407  0.00  0.00     0.058 A 
ATOM     14  C   UNL d   1     -41.592-123.241 -49.747  0.00  0.00     0.005 A 
ATOM     15  C   UNL d   1     -41.901-123.079 -48.997  0.00  0.00     0.000 A 
ATOM     16  C   UNL d   1     -42.647-122.745 -48.911  0.00  0.00     0.000 A 
ATOM     17  C   UNL d   1     -43.085-122.572 -49.598  0.00  0.00     0.000 A 
ATOM     18  C   UNL d   1     -42.942-122.588 -48.145  0.00  0.00     0.000 C 
ATOM     19  C   UNL d   1     -42.775-122.735 -50.334  0.00  0.00     0.005 A 
ENDBRANCH   2  13
TORSDOF 5
ENDMDL
