MODEL 1
REMARK VINA RESULT:      76.6      0.000      0.000
REMARK  5 active torsions:
REMARK  status: ('A' for Active; 'I' for Inactive)
REMARK    1  A    between atoms: N_8  and  C_1 
REMARK    2  A    between atoms: S_2  and  C_7 
REMARK    3  A    between atoms: N_9  and  S_2 
REMARK    4  A    between atoms: C_17  and  N_5 
REMARK       I    between atoms: C_10  and  N_8 
REMARK    5  A    between atoms: C_12  and  C_10 
ROOT
ATOM      1  N   UNL d   1      14.192  15.338  -5.183  0.00  0.00    -0.202 NA
ATOM      2  C   UNL d   1      13.896  15.090  -4.445  0.00  0.00     0.279 C 
ATOM      3  O   UNL d   1      13.770  15.646  -3.845  0.00  0.00    -0.265 OA
ENDROOT
BRANCH   2   4
ATOM      4  C   UNL d   1      13.732  14.299  -4.318  0.00  0.00     0.059 A 
ATOM      5  C   UNL d   1      13.892  13.950  -3.584  0.00  0.00     0.019 A 
ATOM      6  C   UNL d   1      13.725  13.153  -3.460  0.00  0.00     0.115 A 
ATOM      7  C   UNL d   1      13.398  12.703  -4.070  0.00  0.00     0.070 A 
ATOM      8  C   UNL d   1      13.239  13.048  -4.794  0.00  0.00     0.012 A 
ATOM      9 CL   UNL d   1      13.231  11.905  -3.945  0.00  0.00    -0.082 Cl
ATOM     10  C   UNL d   1      13.404  13.850  -4.927  0.00  0.00     0.006 A 
BRANCH   6  11
ATOM     11  S   UNL d   1      13.887  12.808  -2.725  0.00  0.00     0.272 S 
ATOM     12  O   UNL d   1      14.671  12.684  -2.961  0.00  0.00    -0.200 OA
ATOM     13  O   UNL d   1      13.108  12.931  -2.490  0.00  0.00    -0.200 OA
BRANCH  11  14
ATOM     14  N   UNL d   1      14.053  12.465  -1.995  0.00  0.00    -0.229 N 
ATOM     15  C   UNL d   1      13.435  12.247  -1.506  0.00  0.00     0.092 A 
ATOM     16  C   UNL d   1      13.602  11.902  -0.773  0.00  0.00     0.020 A 
ATOM     17  C   UNL d   1      14.384  11.780  -0.541  0.00  0.00     0.003 A 
ATOM     18  C   UNL d   1      15.000  12.004  -1.043  0.00  0.00     0.020 A 
ATOM     19  C   UNL d   1      14.834  12.347  -1.771  0.00  0.00     0.092 A 
ENDBRANCH  11  14
ENDBRANCH   6  11
ENDBRANCH   2   4
BRANCH   1  20
ATOM     20  C   UNL d   1      14.355  16.131  -5.307  0.00  0.00     0.160 A 
ATOM     21  C   UNL d   1      13.811  16.722  -5.506  0.00  0.00     0.298 A 
ATOM     22  N   UNL d   1      14.217  17.428  -5.574  0.00  0.00    -0.209 N 
ATOM     23  O   UNL d   1      13.006  16.612  -5.614  0.00  0.00    -0.263 OA
ATOM     24  N   UNL d   1      15.014  17.280  -5.418  0.00  0.00    -0.238 N 
ATOM     25  C   UNL d   1      15.102  16.482  -5.253  0.00  0.00     0.104 A 
ATOM     26  C   UNL d   1      15.614  17.834  -5.426  0.00  0.00     0.120 C 
ATOM     27  C   UNL d   1      15.799  16.098  -5.069  0.00  0.00     0.022 C 
BRANCH  22  28
ATOM     28  C   UNL d   1      13.890  18.151  -5.763  0.00  0.00     0.085 A 
ATOM     29  C   UNL d   1      13.195  18.181  -6.194  0.00  0.00     0.019 A 
ATOM     30  C   UNL d   1      12.868  18.909  -6.383  0.00  0.00     0.002 A 
ATOM     31  C   UNL d   1      13.227  19.600  -6.146  0.00  0.00     0.000 A 
ATOM     32  C   UNL d   1      13.930  19.566  -5.710  0.00  0.00     0.002 A 
ATOM     33  C   UNL d   1      14.257  18.838  -5.521  0.00  0.00     0.019 A 
ENDBRANCH  22  28
ENDBRANCH   1  20
TORSDOF 5
ENDMDL
