MODEL 1
REMARK VINA RESULT:      20.6      0.000      0.000
REMARK  3 active torsions:
REMARK  status: ('A' for Active; 'I' for Inactive)
REMARK    1  A    between atoms: N_7  and  C_3 
REMARK       I    between atoms: C_8  and  N_7 
REMARK    2  A    between atoms: C_14  and  C_8 
REMARK    3  A    between atoms: C_15  and  C_14 
ROOT
ATOM      1  C   UNL d   1      60.759  49.664  51.769  0.00  0.00     0.343 A 
ATOM      2  N   UNL d   1      59.944  49.671  51.826  0.00  0.00    -0.241 N 
ATOM      3  C   UNL d   1      59.481  49.675  51.147  0.00  0.00     0.159 A 
ATOM      4  N   UNL d   1      61.120  49.661  51.027  0.00  0.00    -0.224 N 
ATOM      5  C   UNL d   1      59.842  49.672  50.405  0.00  0.00     0.099 A 
ATOM      6  C   UNL d   1      60.670  49.665  50.335  0.00  0.00     0.271 A 
ATOM      7  O   UNL d   1      61.222  49.661  52.453  0.00  0.00    -0.245 OA
ATOM      8  O   UNL d   1      61.027  49.661  49.601  0.00  0.00    -0.266 OA
ATOM      9  C   UNL d   1      59.582  49.675  52.568  0.00  0.00     0.105 C 
ATOM     10  C   UNL d   1      61.944  49.654  50.970  0.00  0.00     0.107 C 
ENDROOT
BRANCH   3  11
ATOM     11  N   UNL d   1      58.656  49.682  51.203  0.00  0.00    -0.190 NA
ATOM     12  C   UNL d   1      58.196  49.577  50.530  0.00  0.00     0.281 C 
ATOM     13  O   UNL d   1      58.557  49.463  49.796  0.00  0.00    -0.265 OA
BRANCH  12  14
ATOM     14  C   UNL d   1      57.375  49.584  50.588  0.00  0.00     0.063 C 
BRANCH  14  15
ATOM     15  C   UNL d   1      56.925  49.137  50.061  0.00  0.00     0.005 C 
ATOM     16  C   UNL d   1      56.170  49.351  49.867  0.00  0.00     0.000 C 
ENDBRANCH  14  15
ENDBRANCH  12  14
ENDBRANCH   3  11
TORSDOF 3
ENDMDL
