MODEL 1
REMARK VINA RESULT:      -6.5      0.000      0.000
REMARK  4 active torsions:
REMARK  status: ('A' for Active; 'I' for Inactive)
REMARK    1  A    between atoms: S_4  and  C_1 
REMARK    2  A    between atoms: C_7  and  S_4 
REMARK       I    between atoms: C_5  and  N_6 
REMARK    3  A    between atoms: C_12  and  C_5 
REMARK    4  A    between atoms: N_6  and  C_7 
ROOT
ATOM      1  C   UNL d   1     -47.655  13.928  22.841  0.00  0.00     0.141 C 
ENDROOT
BRANCH   1   2
ATOM      2  N   UNL d   1     -48.341  14.284  23.167  0.00  0.00    -0.199 NA
ATOM      3  C   UNL d   1     -48.992  14.451  22.688  0.00  0.00     0.280 C 
ATOM      4  O   UNL d   1     -48.970  14.266  21.870  0.00  0.00    -0.265 OA
BRANCH   3   5
ATOM      5  C   UNL d   1     -49.658  14.800  23.016  0.00  0.00     0.058 A 
ATOM      6  C   UNL d   1     -49.616  15.567  23.337  0.00  0.00     0.005 A 
ATOM      7  C   UNL d   1     -50.277  15.922  23.666  0.00  0.00     0.000 A 
ATOM      8  C   UNL d   1     -51.004  15.517  23.685  0.00  0.00     0.000 A 
ATOM      9  C   UNL d   1     -51.050  14.743  23.363  0.00  0.00     0.000 A 
ATOM     10  C   UNL d   1     -50.365  14.389  23.027  0.00  0.00     0.005 A 
ENDBRANCH   3   5
ENDBRANCH   1   2
BRANCH   1  11
ATOM     11  S   UNL d   1     -46.956  13.845  23.296  0.00  0.00    -0.027 SA
BRANCH  11  12
ATOM     12  C   UNL d   1     -46.385  13.256  23.085  0.00  0.00     0.196 A 
ATOM     13  N   UNL d   1     -46.425  12.517  23.447  0.00  0.00    -0.221 NA
ATOM     14  C   UNL d   1     -45.869  11.938  23.244  0.00  0.00     0.085 A 
ATOM     15  C   UNL d   1     -45.890  11.279  23.554  0.00  0.00     0.021 C 
ATOM     16  C   UNL d   1     -45.271  12.103  22.674  0.00  0.00     0.038 A 
ATOM     17  C   UNL d   1     -45.246  12.842  22.325  0.00  0.00     0.085 A 
ATOM     18  N   UNL d   1     -45.786  13.421  22.515  0.00  0.00    -0.221 NA
ATOM     19  C   UNL d   1     -44.678  12.992  21.787  0.00  0.00     0.021 C 
ENDBRANCH  11  12
ENDBRANCH   1  11
TORSDOF 4
ENDMDL
MODEL 2
REMARK VINA RESULT:      -6.0      1.901      2.352
REMARK  4 active torsions:
REMARK  status: ('A' for Active; 'I' for Inactive)
REMARK    1  A    between atoms: S_4  and  C_1 
REMARK    2  A    between atoms: C_7  and  S_4 
REMARK       I    between atoms: C_5  and  N_6 
REMARK    3  A    between atoms: C_12  and  C_5 
REMARK    4  A    between atoms: N_6  and  C_7 
ROOT
ATOM      1  C   UNL d   1     -47.720  11.824  23.370  0.00  0.00     0.141 C 
ENDROOT
BRANCH   1   2
ATOM      2  N   UNL d   1     -48.384  12.258  23.100  0.00  0.00    -0.199 NA
ATOM      3  C   UNL d   1     -49.107  11.879  22.975  0.00  0.00     0.280 C 
ATOM      4  O   UNL d   1     -49.180  11.055  23.117  0.00  0.00    -0.265 OA
BRANCH   3   5
ATOM      5  C   UNL d   1     -49.752  12.313  22.711  0.00  0.00     0.058 A 
ATOM      6  C   UNL d   1     -50.331  12.573  23.248  0.00  0.00     0.005 A 
ATOM      7  C   UNL d   1     -50.978  13.006  22.993  0.00  0.00     0.000 A 
ATOM      8  C   UNL d   1     -51.064  13.193  22.186  0.00  0.00     0.000 A 
ATOM      9  C   UNL d   1     -50.482  12.932  21.641  0.00  0.00     0.000 A 
ATOM     10  C   UNL d   1     -49.822  12.488  21.915  0.00  0.00     0.005 A 
ENDBRANCH   3   5
ENDBRANCH   1   2
BRANCH   1  11
ATOM     11  S   UNL d   1     -47.047  12.216  23.679  0.00  0.00    -0.027 SA
BRANCH  11  12
ATOM     12  C   UNL d   1     -46.272  11.983  23.428  0.00  0.00     0.196 A 
ATOM     13  N   UNL d   1     -45.856  12.475  22.914  0.00  0.00    -0.221 NA
ATOM     14  C   UNL d   1     -45.099  12.251  22.665  0.00  0.00     0.085 A 
ATOM     15  C   UNL d   1     -44.717  12.673  22.211  0.00  0.00     0.021 C 
ATOM     16  C   UNL d   1     -44.759  11.528  22.935  0.00  0.00     0.038 A 
ATOM     17  C   UNL d   1     -45.186  11.053  23.444  0.00  0.00     0.085 A 
ATOM     18  N   UNL d   1     -45.931  11.260  23.697  0.00  0.00    -0.221 NA
ATOM     19  C   UNL d   1     -44.858  10.371  23.695  0.00  0.00     0.021 C 
ENDBRANCH  11  12
ENDBRANCH   1  11
TORSDOF 4
ENDMDL
MODEL 3
REMARK VINA RESULT:      -5.9      1.188      4.889
REMARK  4 active torsions:
REMARK  status: ('A' for Active; 'I' for Inactive)
REMARK    1  A    between atoms: S_4  and  C_1 
REMARK    2  A    between atoms: C_7  and  S_4 
REMARK       I    between atoms: C_5  and  N_6 
REMARK    3  A    between atoms: C_12  and  C_5 
REMARK    4  A    between atoms: N_6  and  C_7 
ROOT
ATOM      1  C   UNL d   1     -48.093  13.842  22.871  0.00  0.00     0.141 C 
ENDROOT
BRANCH   1   2
ATOM      2  N   UNL d   1     -47.427  13.348  22.751  0.00  0.00    -0.199 NA
ATOM      3  C   UNL d   1     -46.664  13.662  22.787  0.00  0.00     0.280 C 
ATOM      4  O   UNL d   1     -46.552  14.478  22.945  0.00  0.00    -0.265 OA
BRANCH   3   5
ATOM      5  C   UNL d   1     -46.017  13.170  22.668  0.00  0.00     0.058 A 
ATOM      6  C   UNL d   1     -45.974  12.434  23.054  0.00  0.00     0.005 A 
ATOM      7  C   UNL d   1     -45.332  11.937  22.941  0.00  0.00     0.000 A 
ATOM      8  C   UNL d   1     -44.711  12.165  22.435  0.00  0.00     0.000 A 
ATOM      9  C   UNL d   1     -44.752  12.906  22.045  0.00  0.00     0.000 A 
ATOM     10  C   UNL d   1     -45.416  13.407  22.169  0.00  0.00     0.005 A 
ENDBRANCH   3   5
ENDBRANCH   1   2
BRANCH   1  11
ATOM     11  S   UNL d   1     -48.841  13.516  23.062  0.00  0.00    -0.027 SA
BRANCH  11  12
ATOM     12  C   UNL d   1     -49.547  13.953  22.891  0.00  0.00     0.196 A 
ATOM     13  N   UNL d   1     -49.980  13.761  22.217  0.00  0.00    -0.221 NA
ATOM     14  C   UNL d   1     -50.669  14.186  22.045  0.00  0.00     0.085 A 
ATOM     15  C   UNL d   1     -51.064  14.030  21.454  0.00  0.00     0.021 C 
ATOM     16  C   UNL d   1     -50.925  14.806  22.555  0.00  0.00     0.038 A 
ATOM     17  C   UNL d   1     -50.483  14.983  23.220  0.00  0.00     0.085 A 
ATOM     18  N   UNL d   1     -49.803  14.574  23.401  0.00  0.00    -0.221 NA
ATOM     19  C   UNL d   1     -50.730  15.571  23.698  0.00  0.00     0.021 C 
ENDBRANCH  11  12
ENDBRANCH   1  11
TORSDOF 4
ENDMDL
MODEL 4
REMARK VINA RESULT:      -5.3      9.049      9.979
REMARK  4 active torsions:
REMARK  status: ('A' for Active; 'I' for Inactive)
REMARK    1  A    between atoms: S_4  and  C_1 
REMARK    2  A    between atoms: C_7  and  S_4 
REMARK       I    between atoms: C_5  and  N_6 
REMARK    3  A    between atoms: C_12  and  C_5 
REMARK    4  A    between atoms: N_6  and  C_7 
ROOT
ATOM      1  C   UNL d   1     -39.516  14.542  19.402  0.00  0.00     0.141 C 
ENDROOT
BRANCH   1   2
ATOM      2  N   UNL d   1     -39.355  14.123  20.110  0.00  0.00    -0.199 NA
ATOM      3  C   UNL d   1     -38.890  14.465  20.700  0.00  0.00     0.280 C 
ATOM      4  O   UNL d   1     -38.576  15.236  20.594  0.00  0.00    -0.265 OA
BRANCH   3   5
ATOM      5  C   UNL d   1     -38.738  14.047  21.390  0.00  0.00     0.058 A 
ATOM      6  C   UNL d   1     -38.098  13.517  21.427  0.00  0.00     0.005 A 
ATOM      7  C   UNL d   1     -37.940  13.095  22.112  0.00  0.00     0.000 A 
ATOM      8  C   UNL d   1     -38.420  13.194  22.785  0.00  0.00     0.000 A 
ATOM      9  C   UNL d   1     -39.066  13.729  22.751  0.00  0.00     0.000 A 
ATOM     10  C   UNL d   1     -39.219  14.155  22.042  0.00  0.00     0.005 A 
ENDBRANCH   3   5
ENDBRANCH   1   2
BRANCH   1  11
ATOM     11  S   UNL d   1     -39.990  14.202  18.800  0.00  0.00    -0.027 SA
BRANCH  11  12
ATOM     12  C   UNL d   1     -40.028  14.570  18.037  0.00  0.00     0.196 A 
ATOM     13  N   UNL d   1     -40.676  15.045  17.857  0.00  0.00    -0.221 NA
ATOM     14  C   UNL d   1     -40.717  15.406  17.114  0.00  0.00     0.085 A 
ATOM     15  C   UNL d   1     -41.283  15.830  16.937  0.00  0.00     0.021 C 
ATOM     16  C   UNL d   1     -40.103  15.288  16.548  0.00  0.00     0.038 A 
ATOM     17  C   UNL d   1     -39.467  14.813  16.744  0.00  0.00     0.085 A 
ATOM     18  N   UNL d   1     -39.413  14.452  17.472  0.00  0.00    -0.221 NA
ATOM     19  C   UNL d   1     -38.890  14.706  16.205  0.00  0.00     0.021 C 
ENDBRANCH  11  12
ENDBRANCH   1  11
TORSDOF 4
ENDMDL
MODEL 5
REMARK VINA RESULT:      -4.7      7.868      9.931
REMARK  4 active torsions:
REMARK  status: ('A' for Active; 'I' for Inactive)
REMARK    1  A    between atoms: S_4  and  C_1 
REMARK    2  A    between atoms: C_7  and  S_4 
REMARK       I    between atoms: C_5  and  N_6 
REMARK    3  A    between atoms: C_12  and  C_5 
REMARK    4  A    between atoms: N_6  and  C_7 
ROOT
ATOM      1  C   UNL d   1     -39.473  14.324  18.035  0.00  0.00     0.141 C 
ENDROOT
BRANCH   1   2
ATOM      2  N   UNL d   1     -39.726  14.472  18.821  0.00  0.00    -0.199 NA
ATOM      3  C   UNL d   1     -40.531  14.485  19.004  0.00  0.00     0.280 C 
ATOM      4  O   UNL d   1     -41.101  14.350  18.403  0.00  0.00    -0.265 OA
BRANCH   3   5
ATOM      5  C   UNL d   1     -40.769  14.631  19.776  0.00  0.00     0.058 A 
ATOM      6  C   UNL d   1     -40.880  15.412  20.040  0.00  0.00     0.005 A 
ATOM      7  C   UNL d   1     -41.117  15.567  20.809  0.00  0.00     0.000 A 
ATOM      8  C   UNL d   1     -41.251  14.939  21.340  0.00  0.00     0.000 A 
ATOM      9  C   UNL d   1     -41.140  14.150  21.076  0.00  0.00     0.000 A 
ATOM     10  C   UNL d   1     -40.896  14.004  20.284  0.00  0.00     0.005 A 
ENDBRANCH   3   5
ENDBRANCH   1   2
BRANCH   1  11
ATOM     11  S   UNL d   1     -38.658  14.305  17.843  0.00  0.00    -0.027 SA
BRANCH  11  12
ATOM     12  C   UNL d   1     -38.416  14.347  17.031  0.00  0.00     0.196 A 
ATOM     13  N   UNL d   1     -38.295  13.646  16.616  0.00  0.00    -0.221 NA
ATOM     14  C   UNL d   1     -38.059  13.682  15.824  0.00  0.00     0.085 A 
ATOM     15  C   UNL d   1     -37.947  13.072  15.441  0.00  0.00     0.021 C 
ATOM     16  C   UNL d   1     -37.945  14.427  15.447  0.00  0.00     0.038 A 
ATOM     17  C   UNL d   1     -38.070  15.113  15.874  0.00  0.00     0.085 A 
ATOM     18  N   UNL d   1     -38.302  15.092  16.654  0.00  0.00    -0.221 NA
ATOM     19  C   UNL d   1     -37.961  15.814  15.512  0.00  0.00     0.021 C 
ENDBRANCH  11  12
ENDBRANCH   1  11
TORSDOF 4
ENDMDL
MODEL 6
REMARK VINA RESULT:      -4.6      1.560      2.525
REMARK  4 active torsions:
REMARK  status: ('A' for Active; 'I' for Inactive)
REMARK    1  A    between atoms: S_4  and  C_1 
REMARK    2  A    between atoms: C_7  and  S_4 
REMARK       I    between atoms: C_5  and  N_6 
REMARK    3  A    between atoms: C_12  and  C_5 
REMARK    4  A    between atoms: N_6  and  C_7 
ROOT
ATOM      1  C   UNL d   1     -45.815  13.273  22.421  0.00  0.00     0.141 C 
ENDROOT
BRANCH   1   2
ATOM      2  N   UNL d   1     -46.625  13.480  22.363  0.00  0.00    -0.199 NA
ATOM      3  C   UNL d   1     -46.945  14.053  22.863  0.00  0.00     0.280 C 
ATOM      4  O   UNL d   1     -46.460  14.432  23.434  0.00  0.00    -0.265 OA
BRANCH   3   5
ATOM      5  C   UNL d   1     -47.740  14.249  22.799  0.00  0.00     0.058 A 
ATOM      6  C   UNL d   1     -48.326  13.703  23.023  0.00  0.00     0.005 A 
ATOM      7  C   UNL d   1     -49.122  13.891  22.963  0.00  0.00     0.000 A 
ATOM      8  C   UNL d   1     -49.354  14.637  22.674  0.00  0.00     0.000 A 
ATOM      9  C   UNL d   1     -48.765  15.189  22.447  0.00  0.00     0.000 A 
ATOM     10  C   UNL d   1     -47.952  14.985  22.514  0.00  0.00     0.005 A 
ENDBRANCH   3   5
ENDBRANCH   1   2
BRANCH   1  11
ATOM     11  S   UNL d   1     -45.439  12.834  21.813  0.00  0.00    -0.027 SA
BRANCH  11  12
ATOM     12  C   UNL d   1     -44.649  12.549  21.928  0.00  0.00     0.196 A 
ATOM     13  N   UNL d   1     -44.034  12.906  21.513  0.00  0.00    -0.221 NA
ATOM     14  C   UNL d   1     -43.261  12.631  21.622  0.00  0.00     0.085 A 
ATOM     15  C   UNL d   1     -42.705  12.936  21.264  0.00  0.00     0.021 C 
ATOM     16  C   UNL d   1     -43.106  11.993  22.151  0.00  0.00     0.038 A 
ATOM     17  C   UNL d   1     -43.729  11.650  22.554  0.00  0.00     0.085 A 
ATOM     18  N   UNL d   1     -44.494  11.910  22.457  0.00  0.00    -0.221 NA
ATOM     19  C   UNL d   1     -43.576  11.047  23.052  0.00  0.00     0.021 C 
ENDBRANCH  11  12
ENDBRANCH   1  11
TORSDOF 4
ENDMDL
