MODEL 1
REMARK VINA RESULT:      -3.9      0.000      0.000
REMARK  5 active torsions:
REMARK  status: ('A' for Active; 'I' for Inactive)
REMARK    1  A    between atoms: C_2  and  S_1 
REMARK    2  A    between atoms: N_8  and  S_1 
REMARK    3  A    between atoms: C_3  and  C_14 
REMARK    4  A    between atoms: C_17  and  N_8 
REMARK    5  A    between atoms: C_23  and  C_11 
ROOT
ATOM      1  C   UNL d   1      33.194  20.085 -22.283  0.00  0.00     0.024 A 
ATOM      2  C   UNL d   1      33.223  18.701 -23.197  0.00  0.00     0.094 A 
ATOM      3  C   UNL d   1      33.191  20.139 -23.109  0.00  0.00     0.004 A 
ATOM      4  C   UNL d   1      33.211  19.343 -21.927  0.00  0.00     0.004 A 
ATOM      5  C   UNL d   1      33.225  18.661 -22.377  0.00  0.00     0.020 A 
ATOM      6  C   UNL d   1      33.206  19.456 -23.564  0.00  0.00     0.020 A 
ENDROOT
BRANCH   2   7
ATOM      7  N   UNL d   1      33.238  18.022 -23.649  0.00  0.00    -0.158 NA
BRANCH   7   8
ATOM      8  S   UNL d   1      32.546  17.590 -23.767  0.00  0.00     0.291 S 
ATOM      9  O   UNL d   1      32.754  17.097 -23.151  0.00  0.00    -0.198 OA
ATOM     10  O   UNL d   1      32.339  18.082 -24.383  0.00  0.00    -0.198 OA
BRANCH   8  11
ATOM     11  C   UNL d   1      31.858  17.165 -23.890  0.00  0.00     0.135 A 
ATOM     12  S   UNL d   1      31.634  16.453 -23.528  0.00  0.00    -0.074 SA
ATOM     13  C   UNL d   1      30.898  16.226 -23.819  0.00  0.00     0.030 A 
ATOM     14  C   UNL d   1      30.662  16.802 -24.367  0.00  0.00     0.008 A 
ATOM     15  C   UNL d   1      31.241  17.377 -24.417  0.00  0.00     0.020 A 
BRANCH  13  16
ATOM     16  C   UNL d   1      30.482  15.562 -23.608  0.00  0.00     0.006 C 
ATOM     17  C   UNL d   1      29.708  15.637 -23.317  0.00  0.00     0.001 C 
ENDBRANCH  13  16
ENDBRANCH   8  11
ENDBRANCH   7   8
ENDBRANCH   2   7
BRANCH   1  18
ATOM     18  C   UNL d   1      33.179  20.774 -21.829  0.00  0.00     0.112 A 
ATOM     19  S   UNL d   1      33.158  20.803 -21.009  0.00  0.00    -0.047 SA
ATOM     20  C   UNL d   1      33.148  21.609 -20.777  0.00  0.00     0.130 A 
ATOM     21  N   UNL d   1      33.128  21.972 -20.038  0.00  0.00    -0.236 NA
ATOM     22  C   UNL d   1      33.164  22.067 -21.472  0.00  0.00     0.106 A 
ATOM     23  C   UNL d   1      33.123  22.799 -19.993  0.00  0.00     0.100 A 
ATOM     24  C   UNL d   1      33.139  23.259 -20.683  0.00  0.00     0.022 A 
ATOM     25  C   UNL d   1      33.159  22.893 -21.418  0.00  0.00     0.023 A 
ATOM     26  N   UNL d   1      33.183  21.547 -22.125  0.00  0.00    -0.237 NA
ENDBRANCH   1  18
TORSDOF 5
ENDMDL
