MODEL 1
REMARK VINA RESULT:      -7.9      0.000      0.000
REMARK  3 active torsions:
REMARK  status: ('A' for Active; 'I' for Inactive)
REMARK    1  A    between atoms: N_2  and  S_1 
REMARK    2  A    between atoms: C_3  and  S_1 
REMARK    3  A    between atoms: C_10  and  C_9 
ROOT
ATOM      1  C   UNL d   1     -49.459  12.204  23.080  0.00  0.00     0.104 A 
ATOM      2  C   UNL d   1     -47.870  12.568  22.777  0.00  0.00     0.000 A 
ATOM      3  C   UNL d   1     -48.961  12.426  23.698  0.00  0.00     0.013 A 
ATOM      4  C   UNL d   1     -49.165  12.164  22.312  0.00  0.00     0.013 A 
ATOM      5  C   UNL d   1     -48.367  12.347  22.160  0.00  0.00     0.001 A 
ATOM      6  C   UNL d   1     -48.163  12.609  23.546  0.00  0.00     0.001 A 
ENDROOT
BRANCH   1   7
ATOM      7  S   UNL d   1     -50.249  12.024  23.235  0.00  0.00     0.271 S 
ATOM      8  O   UNL d   1     -50.045  11.246  23.394  0.00  0.00    -0.200 OA
ATOM      9  O   UNL d   1     -51.031  11.842  23.389  0.00  0.00    -0.200 OA
BRANCH   7  10
ATOM     10  N   UNL d   1     -50.452  12.799  23.076  0.00  0.00    -0.226 N 
ATOM     11  C   UNL d   1     -50.641  13.027  22.307  0.00  0.00     0.111 A 
ATOM     12  C   UNL d   1     -50.844  13.813  22.159  0.00  0.00     0.100 A 
ATOM     13  N   UNL d   1     -50.859  14.364  22.768  0.00  0.00    -0.299 N 
ATOM     14  C   UNL d   1     -50.672  14.140  23.536  0.00  0.00     0.100 A 
ATOM     15  C   UNL d   1     -51.064  15.147  22.607  0.00  0.00     0.100 C 
ATOM     16  C   UNL d   1     -50.466  13.353  23.697  0.00  0.00     0.111 A 
ENDBRANCH   7  10
ENDBRANCH   1   7
BRANCH   2  17
ATOM     17  C   UNL d   1     -47.086  12.749  22.633  0.00  0.00     0.000 A 
ATOM     18  C   UNL d   1     -46.876  13.501  22.353  0.00  0.00     0.000 A 
ATOM     19  C   UNL d   1     -46.083  13.678  22.209  0.00  0.00     0.000 A 
ATOM     20  C   UNL d   1     -45.503  13.111  22.343  0.00  0.00     0.000 A 
ATOM     21  C   UNL d   1     -45.711  12.354  22.625  0.00  0.00     0.000 A 
ATOM     22  C   UNL d   1     -44.710  13.288  22.199  0.00  0.00     0.000 C 
ATOM     23  C   UNL d   1     -46.505  12.180  22.768  0.00  0.00     0.000 A 
ENDBRANCH   2  17
TORSDOF 3
ENDMDL
MODEL 2
REMARK VINA RESULT:      -7.6      1.632      2.112
REMARK  3 active torsions:
REMARK  status: ('A' for Active; 'I' for Inactive)
REMARK    1  A    between atoms: N_2  and  S_1 
REMARK    2  A    between atoms: C_3  and  S_1 
REMARK    3  A    between atoms: C_10  and  C_9 
ROOT
ATOM      1  C   UNL d   1     -48.871  14.475  22.450  0.00  0.00     0.104 A 
ATOM      2  C   UNL d   1     -47.402  13.708  22.503  0.00  0.00     0.000 A 
ATOM      3  C   UNL d   1     -48.619  14.021  21.810  0.00  0.00     0.013 A 
ATOM      4  C   UNL d   1     -48.391  14.546  23.115  0.00  0.00     0.013 A 
ATOM      5  C   UNL d   1     -47.653  14.161  23.141  0.00  0.00     0.001 A 
ATOM      6  C   UNL d   1     -47.881  13.636  21.837  0.00  0.00     0.001 A 
ENDROOT
BRANCH   1   7
ATOM      7  S   UNL d   1     -49.603  14.854  22.420  0.00  0.00     0.271 S 
ATOM      8  O   UNL d   1     -49.238  15.548  22.176  0.00  0.00    -0.200 OA
ATOM      9  O   UNL d   1     -50.326  15.233  22.389  0.00  0.00    -0.200 OA
BRANCH   7  10
ATOM     10  N   UNL d   1     -49.965  14.164  22.662  0.00  0.00    -0.226 N 
ATOM     11  C   UNL d   1     -50.049  14.001  23.466  0.00  0.00     0.111 A 
ATOM     12  C   UNL d   1     -50.417  13.300  23.698  0.00  0.00     0.100 A 
ATOM     13  N   UNL d   1     -50.698  12.769  23.139  0.00  0.00    -0.299 N 
ATOM     14  C   UNL d   1     -50.617  12.927  22.337  0.00  0.00     0.100 A 
ATOM     15  C   UNL d   1     -51.064  12.071  23.384  0.00  0.00     0.100 C 
ATOM     16  C   UNL d   1     -50.248  13.629  22.091  0.00  0.00     0.111 A 
ENDBRANCH   7  10
ENDBRANCH   1   7
BRANCH   2  17
ATOM     17  C   UNL d   1     -46.678  13.329  22.524  0.00  0.00     0.000 A 
ATOM     18  C   UNL d   1     -46.012  13.681  22.176  0.00  0.00     0.000 A 
ATOM     19  C   UNL d   1     -45.284  13.293  22.200  0.00  0.00     0.000 A 
ATOM     20  C   UNL d   1     -45.219  12.560  22.567  0.00  0.00     0.000 A 
ATOM     21  C   UNL d   1     -45.886  12.204  22.918  0.00  0.00     0.000 A 
ATOM     22  C   UNL d   1     -44.491  12.173  22.591  0.00  0.00     0.000 C 
ATOM     23  C   UNL d   1     -46.613  12.594  22.892  0.00  0.00     0.000 A 
ENDBRANCH   2  17
TORSDOF 3
ENDMDL
MODEL 3
REMARK VINA RESULT:      -7.5      1.858      2.304
REMARK  3 active torsions:
REMARK  status: ('A' for Active; 'I' for Inactive)
REMARK    1  A    between atoms: N_2  and  S_1 
REMARK    2  A    between atoms: C_3  and  S_1 
REMARK    3  A    between atoms: C_10  and  C_9 
ROOT
ATOM      1  C   UNL d   1     -47.964  14.096  22.556  0.00  0.00     0.104 A 
ATOM      2  C   UNL d   1     -46.961  12.828  22.921  0.00  0.00     0.000 A 
ATOM      3  C   UNL d   1     -47.728  13.967  23.335  0.00  0.00     0.013 A 
ATOM      4  C   UNL d   1     -47.701  13.593  21.960  0.00  0.00     0.013 A 
ATOM      5  C   UNL d   1     -47.197  12.956  22.143  0.00  0.00     0.001 A 
ATOM      6  C   UNL d   1     -47.224  13.330  23.518  0.00  0.00     0.001 A 
ENDROOT
BRANCH   1   7
ATOM      7  S   UNL d   1     -48.464  14.728  22.380  0.00  0.00     0.271 S 
ATOM      8  O   UNL d   1     -47.817  15.228  22.318  0.00  0.00    -0.200 OA
ATOM      9  O   UNL d   1     -48.956  15.357  22.205  0.00  0.00    -0.200 OA
BRANCH   7  10
ATOM     10  N   UNL d   1     -49.108  14.230  22.442  0.00  0.00    -0.226 N 
ATOM     11  C   UNL d   1     -49.370  13.810  21.783  0.00  0.00     0.111 A 
ATOM     12  C   UNL d   1     -50.022  13.310  21.858  0.00  0.00     0.100 A 
ATOM     13  N   UNL d   1     -50.408  13.229  22.578  0.00  0.00    -0.299 N 
ATOM     14  C   UNL d   1     -50.150  13.646  23.237  0.00  0.00     0.100 A 
ATOM     15  C   UNL d   1     -51.059  12.726  22.640  0.00  0.00     0.100 C 
ATOM     16  C   UNL d   1     -49.495  14.153  23.174  0.00  0.00     0.111 A 
ENDBRANCH   7  10
ENDBRANCH   1   7
BRANCH   2  17
ATOM     17  C   UNL d   1     -46.466  12.204  23.105  0.00  0.00     0.000 A 
ATOM     18  C   UNL d   1     -46.762  11.544  23.513  0.00  0.00     0.000 A 
ATOM     19  C   UNL d   1     -46.259  10.916  23.697  0.00  0.00     0.000 A 
ATOM     20  C   UNL d   1     -45.466  10.945  23.477  0.00  0.00     0.000 A 
ATOM     21  C   UNL d   1     -45.167  11.607  23.068  0.00  0.00     0.000 A 
ATOM     22  C   UNL d   1     -44.963  10.318  23.661  0.00  0.00     0.000 C 
ATOM     23  C   UNL d   1     -45.673  12.232  22.885  0.00  0.00     0.000 A 
ENDBRANCH   2  17
TORSDOF 3
ENDMDL
MODEL 4
REMARK VINA RESULT:      -6.4      8.942     10.298
REMARK  3 active torsions:
REMARK  status: ('A' for Active; 'I' for Inactive)
REMARK    1  A    between atoms: N_2  and  S_1 
REMARK    2  A    between atoms: C_3  and  S_1 
REMARK    3  A    between atoms: C_10  and  C_9 
ROOT
ATOM      1  C   UNL d   1     -40.471  15.298  19.709  0.00  0.00     0.104 A 
ATOM      2  C   UNL d   1     -39.684  14.757  18.354  0.00  0.00     0.000 A 
ATOM      3  C   UNL d   1     -40.676  14.574  19.373  0.00  0.00     0.013 A 
ATOM      4  C   UNL d   1     -39.874  15.752  19.369  0.00  0.00     0.013 A 
ATOM      5  C   UNL d   1     -39.478  15.479  18.688  0.00  0.00     0.001 A 
ATOM      6  C   UNL d   1     -40.281  14.302  18.693  0.00  0.00     0.001 A 
ENDROOT
BRANCH   1   7
ATOM      7  S   UNL d   1     -40.865  15.563  20.383  0.00  0.00     0.271 S 
ATOM      8  O   UNL d   1     -41.436  15.921  19.915  0.00  0.00    -0.200 OA
ATOM      9  O   UNL d   1     -41.258  15.827  21.049  0.00  0.00    -0.200 OA
BRANCH   7  10
ATOM     10  N   UNL d   1     -40.297  15.207  20.850  0.00  0.00    -0.226 N 
ATOM     11  C   UNL d   1     -40.382  14.419  21.075  0.00  0.00     0.111 A 
ATOM     12  C   UNL d   1     -39.802  14.071  21.546  0.00  0.00     0.100 A 
ATOM     13  N   UNL d   1     -39.146  14.500  21.790  0.00  0.00    -0.299 N 
ATOM     14  C   UNL d   1     -39.057  15.286  21.567  0.00  0.00     0.100 A 
ATOM     15  C   UNL d   1     -38.572  14.140  22.261  0.00  0.00     0.100 C 
ATOM     16  C   UNL d   1     -39.634  15.647  21.093  0.00  0.00     0.111 A 
ENDBRANCH   7  10
ENDBRANCH   1   7
BRANCH   2  17
ATOM     17  C   UNL d   1     -39.299  14.486  17.686  0.00  0.00     0.000 A 
ATOM     18  C   UNL d   1     -38.793  13.829  17.733  0.00  0.00     0.000 A 
ATOM     19  C   UNL d   1     -38.407  13.559  17.056  0.00  0.00     0.000 A 
ATOM     20  C   UNL d   1     -38.522  13.940  16.336  0.00  0.00     0.000 A 
ATOM     21  C   UNL d   1     -39.029  14.600  16.286  0.00  0.00     0.000 A 
ATOM     22  C   UNL d   1     -38.135  13.670  15.659  0.00  0.00     0.000 C 
ATOM     23  C   UNL d   1     -39.414  14.867  16.965  0.00  0.00     0.000 A 
ENDBRANCH   2  17
TORSDOF 3
ENDMDL
MODEL 5
REMARK VINA RESULT:      -5.1      8.707     10.639
REMARK  3 active torsions:
REMARK  status: ('A' for Active; 'I' for Inactive)
REMARK    1  A    between atoms: N_2  and  S_1 
REMARK    2  A    between atoms: C_3  and  S_1 
REMARK    3  A    between atoms: C_10  and  C_9 
ROOT
ATOM      1  C   UNL d   1     -38.723  14.196  20.209  0.00  0.00     0.104 A 
ATOM      2  C   UNL d   1     -38.597  14.106  18.558  0.00  0.00     0.000 A 
ATOM      3  C   UNL d   1     -39.071  13.570  19.802  0.00  0.00     0.013 A 
ATOM      4  C   UNL d   1     -38.314  14.777  19.794  0.00  0.00     0.013 A 
ATOM      5  C   UNL d   1     -38.250  14.732  18.964  0.00  0.00     0.001 A 
ATOM      6  C   UNL d   1     -39.007  13.525  18.972  0.00  0.00     0.001 A 
ENDROOT
BRANCH   1   7
ATOM      7  S   UNL d   1     -38.789  14.236  21.030  0.00  0.00     0.271 S 
ATOM      8  O   UNL d   1     -38.091  13.814  21.112  0.00  0.00    -0.200 OA
ATOM      9  O   UNL d   1     -38.851  14.275  21.844  0.00  0.00    -0.200 OA
BRANCH   7  10
ATOM     10  N   UNL d   1     -39.484  14.658  20.949  0.00  0.00    -0.226 N 
ATOM     11  C   UNL d   1     -39.467  15.481  20.918  0.00  0.00     0.111 A 
ATOM     12  C   UNL d   1     -40.176  15.895  20.836  0.00  0.00     0.100 A 
ATOM     13  N   UNL d   1     -40.891  15.496  20.786  0.00  0.00    -0.299 N 
ATOM     14  C   UNL d   1     -40.912  14.676  20.816  0.00  0.00     0.100 A 
ATOM     15  C   UNL d   1     -41.593  15.922  20.704  0.00  0.00     0.100 C 
ATOM     16  C   UNL d   1     -40.206  14.248  20.898  0.00  0.00     0.111 A 
ENDBRANCH   7  10
ENDBRANCH   1   7
BRANCH   2  17
ATOM     17  C   UNL d   1     -38.537  14.058  17.745  0.00  0.00     0.000 A 
ATOM     18  C   UNL d   1     -38.975  14.573  17.263  0.00  0.00     0.000 A 
ATOM     19  C   UNL d   1     -38.912  14.520  16.442  0.00  0.00     0.000 A 
ATOM     20  C   UNL d   1     -38.416  13.958  16.102  0.00  0.00     0.000 A 
ATOM     21  C   UNL d   1     -37.975  13.440  16.584  0.00  0.00     0.000 A 
ATOM     22  C   UNL d   1     -38.352  13.906  15.281  0.00  0.00     0.000 C 
ATOM     23  C   UNL d   1     -38.041  13.495  17.404  0.00  0.00     0.000 A 
ENDBRANCH   2  17
TORSDOF 3
ENDMDL
