MODEL 1
REMARK VINA RESULT:      -8.2      0.000      0.000
REMARK  4 active torsions:
REMARK  status: ('A' for Active; 'I' for Inactive)
REMARK    1  A    between atoms: N_2  and  C_1 
REMARK       I    between atoms: C_3  and  N_2 
REMARK    2  A    between atoms: C_6  and  C_3 
REMARK    3  A    between atoms: C_11  and  C_7 
REMARK    4  A    between atoms: C_8  and  C_11 
ROOT
ATOM      1  C   UNL d   1      50.742  34.316  52.833  0.00  0.00     0.197 A 
ATOM      2  N   UNL d   1      51.236  34.404  52.202  0.00  0.00    -0.219 NA
ATOM      3  S   UNL d   1      51.020  33.678  53.291  0.00  0.00    -0.047 SA
ATOM      4  C   UNL d   1      51.687  33.385  52.925  0.00  0.00     0.051 A 
ATOM      5  C   UNL d   1      51.834  33.830  52.243  0.00  0.00     0.108 A 
ENDROOT
BRANCH   4   6
ATOM      6  C   UNL d   1      52.203  32.777  53.093  0.00  0.00     0.009 C 
BRANCH   6   7
ATOM      7  C   UNL d   1      52.824  32.914  53.648  0.00  0.00     0.012 A 
ATOM      8  C   UNL d   1      53.398  32.341  53.769  0.00  0.00     0.058 A 
ATOM      9  C   UNL d   1      54.022  32.476  54.325  0.00  0.00     0.012 A 
ATOM     10 CL   UNL d   1      53.376  31.624  53.351  0.00  0.00    -0.082 Cl
ATOM     11  C   UNL d   1      54.057  33.169  54.739  0.00  0.00     0.012 A 
ATOM     12  C   UNL d   1      53.480  33.760  54.626  0.00  0.00     0.058 A 
ATOM     13  C   UNL d   1      52.863  33.619  54.073  0.00  0.00     0.012 A 
ATOM     14 CL   UNL d   1      53.545  34.473  55.075  0.00  0.00    -0.082 Cl
ENDBRANCH   6   7
ENDBRANCH   4   6
BRANCH   1  15
ATOM     15  N   UNL d   1      50.067  34.789  52.995  0.00  0.00    -0.182 NA
ATOM     16  C   UNL d   1      49.441  34.831  52.470  0.00  0.00     0.287 C 
ATOM     17  O   UNL d   1      49.481  34.404  51.780  0.00  0.00    -0.265 OA
BRANCH  16  18
ATOM     18  C   UNL d   1      48.798  35.286  52.634  0.00  0.00     0.087 A 
ATOM     19  S   UNL d   1      48.559  35.677  53.320  0.00  0.00    -0.082 SA
ATOM     20  C   UNL d   1      47.843  36.057  53.145  0.00  0.00     0.036 A 
ATOM     21  C   UNL d   1      47.659  35.908  52.405  0.00  0.00     0.008 A 
ATOM     22  C   UNL d   1      48.249  35.423  52.066  0.00  0.00     0.012 A 
ENDBRANCH  16  18
ENDBRANCH   1  15
TORSDOF 4
ENDMDL
MODEL 2
REMARK VINA RESULT:      -8.1      1.153      1.898
REMARK  4 active torsions:
REMARK  status: ('A' for Active; 'I' for Inactive)
REMARK    1  A    between atoms: N_2  and  C_1 
REMARK       I    between atoms: C_3  and  N_2 
REMARK    2  A    between atoms: C_6  and  C_3 
REMARK    3  A    between atoms: C_11  and  C_7 
REMARK    4  A    between atoms: C_8  and  C_11 
ROOT
ATOM      1  C   UNL d   1      51.737  34.410  52.890  0.00  0.00     0.197 A 
ATOM      2  N   UNL d   1      51.907  34.712  53.618  0.00  0.00    -0.219 NA
ATOM      3  S   UNL d   1      52.342  33.874  52.685  0.00  0.00    -0.047 SA
ATOM      4  C   UNL d   1      52.876  33.860  53.301  0.00  0.00     0.051 A 
ATOM      5  C   UNL d   1      52.617  34.379  53.891  0.00  0.00     0.108 A 
ENDROOT
BRANCH   4   6
ATOM      6  C   UNL d   1      53.572  33.457  53.437  0.00  0.00     0.009 C 
BRANCH   6   7
ATOM      7  C   UNL d   1      53.539  32.625  53.570  0.00  0.00     0.012 A 
ATOM      8  C   UNL d   1      53.925  32.298  54.215  0.00  0.00     0.058 A 
ATOM      9  C   UNL d   1      53.894  31.463  54.350  0.00  0.00     0.012 A 
ATOM     10 CL   UNL d   1      54.351  32.778  54.742  0.00  0.00    -0.082 Cl
ATOM     11  C   UNL d   1      53.484  30.983  53.846  0.00  0.00     0.012 A 
ATOM     12  C   UNL d   1      53.087  31.302  53.186  0.00  0.00     0.058 A 
ATOM     13  C   UNL d   1      53.122  32.131  53.058  0.00  0.00     0.012 A 
ATOM     14 CL   UNL d   1      52.667  30.772  52.678  0.00  0.00    -0.082 Cl
ENDBRANCH   6   7
ENDBRANCH   4   6
BRANCH   1  15
ATOM     15  N   UNL d   1      51.066  34.605  52.424  0.00  0.00    -0.182 NA
ATOM     16  C   UNL d   1      50.321  34.329  52.615  0.00  0.00     0.287 C 
ATOM     17  O   UNL d   1      50.235  33.858  53.271  0.00  0.00    -0.265 OA
BRANCH  16  18
ATOM     18  C   UNL d   1      49.684  34.522  52.162  0.00  0.00     0.087 A 
ATOM     19  S   UNL d   1      49.011  34.974  52.318  0.00  0.00    -0.082 SA
ATOM     20  C   UNL d   1      48.552  34.970  51.628  0.00  0.00     0.036 A 
ATOM     21  C   UNL d   1      48.918  34.546  51.090  0.00  0.00     0.008 A 
ATOM     22  C   UNL d   1      49.634  34.254  51.408  0.00  0.00     0.012 A 
ENDBRANCH  16  18
ENDBRANCH   1  15
TORSDOF 4
ENDMDL
MODEL 3
REMARK VINA RESULT:      -7.9      1.453      2.005
REMARK  4 active torsions:
REMARK  status: ('A' for Active; 'I' for Inactive)
REMARK    1  A    between atoms: N_2  and  C_1 
REMARK       I    between atoms: C_3  and  N_2 
REMARK    2  A    between atoms: C_6  and  C_3 
REMARK    3  A    between atoms: C_11  and  C_7 
REMARK    4  A    between atoms: C_8  and  C_11 
ROOT
ATOM      1  C   UNL d   1      52.119  32.925  52.721  0.00  0.00     0.197 A 
ATOM      2  N   UNL d   1      52.035  32.126  52.781  0.00  0.00    -0.219 NA
ATOM      3  S   UNL d   1      52.900  33.120  52.935  0.00  0.00    -0.047 SA
ATOM      4  C   UNL d   1      53.283  32.425  53.124  0.00  0.00     0.051 A 
ATOM      5  C   UNL d   1      52.754  31.796  53.033  0.00  0.00     0.108 A 
ENDROOT
BRANCH   4   6
ATOM      6  C   UNL d   1      54.039  32.245  53.371  0.00  0.00     0.009 C 
BRANCH   6   7
ATOM      7  C   UNL d   1      54.399  32.730  53.959  0.00  0.00     0.012 A 
ATOM      8  C   UNL d   1      55.101  33.121  53.794  0.00  0.00     0.058 A 
ATOM      9  C   UNL d   1      55.465  33.608  54.382  0.00  0.00     0.012 A 
ATOM     10 CL   UNL d   1      55.463  33.044  53.050  0.00  0.00    -0.082 Cl
ATOM     11  C   UNL d   1      55.124  33.692  55.111  0.00  0.00     0.012 A 
ATOM     12  C   UNL d   1      54.411  33.301  55.292  0.00  0.00     0.058 A 
ATOM     13  C   UNL d   1      54.055  32.819  54.703  0.00  0.00     0.012 A 
ATOM     14 CL   UNL d   1      54.081  33.410  56.063  0.00  0.00    -0.082 Cl
ENDBRANCH   6   7
ENDBRANCH   4   6
BRANCH   1  15
ATOM     15  N   UNL d   1      51.519  33.464  52.482  0.00  0.00    -0.182 NA
ATOM     16  C   UNL d   1      50.869  33.612  52.956  0.00  0.00     0.287 C 
ATOM     17  O   UNL d   1      50.809  33.228  53.669  0.00  0.00    -0.265 OA
BRANCH  16  18
ATOM     18  C   UNL d   1      50.300  34.130  52.719  0.00  0.00     0.087 A 
ATOM     19  S   UNL d   1      49.932  34.251  51.990  0.00  0.00    -0.082 SA
ATOM     20  C   UNL d   1      49.388  34.868  52.095  0.00  0.00     0.036 A 
ATOM     21  C   UNL d   1      49.421  35.105  52.833  0.00  0.00     0.008 A 
ATOM     22  C   UNL d   1      49.991  34.652  53.244  0.00  0.00     0.012 A 
ENDBRANCH  16  18
ENDBRANCH   1  15
TORSDOF 4
ENDMDL
MODEL 4
REMARK VINA RESULT:      -7.8      2.880      5.038
REMARK  4 active torsions:
REMARK  status: ('A' for Active; 'I' for Inactive)
REMARK    1  A    between atoms: N_2  and  C_1 
REMARK       I    between atoms: C_3  and  N_2 
REMARK    2  A    between atoms: C_6  and  C_3 
REMARK    3  A    between atoms: C_11  and  C_7 
REMARK    4  A    between atoms: C_8  and  C_11 
ROOT
ATOM      1  C   UNL d   1      53.924  32.067  53.864  0.00  0.00     0.197 A 
ATOM      2  N   UNL d   1      54.555  32.308  53.425  0.00  0.00    -0.219 NA
ATOM      3  S   UNL d   1      53.450  32.734  54.022  0.00  0.00    -0.047 SA
ATOM      4  C   UNL d   1      53.807  33.378  53.672  0.00  0.00     0.051 A 
ATOM      5  C   UNL d   1      54.500  33.126  53.295  0.00  0.00     0.108 A 
ENDROOT
BRANCH   4   6
ATOM      6  C   UNL d   1      53.624  34.170  53.626  0.00  0.00     0.009 C 
BRANCH   6   7
ATOM      7  C   UNL d   1      52.832  34.393  53.440  0.00  0.00     0.012 A 
ATOM      8  C   UNL d   1      52.428  34.915  53.927  0.00  0.00     0.058 A 
ATOM      9  C   UNL d   1      51.634  35.140  53.742  0.00  0.00     0.012 A 
ATOM     10 CL   UNL d   1      52.792  35.230  54.604  0.00  0.00    -0.082 Cl
ATOM     11  C   UNL d   1      51.267  34.843  53.086  0.00  0.00     0.012 A 
ATOM     12  C   UNL d   1      51.665  34.311  52.583  0.00  0.00     0.058 A 
ATOM     13  C   UNL d   1      52.454  34.092  52.772  0.00  0.00     0.012 A 
ATOM     14 CL   UNL d   1      51.254  34.018  51.905  0.00  0.00    -0.082 Cl
ENDBRANCH   6   7
ENDBRANCH   4   6
BRANCH   1  15
ATOM     15  N   UNL d   1      53.774  31.279  54.114  0.00  0.00    -0.182 NA
ATOM     16  C   UNL d   1      53.443  30.727  53.609  0.00  0.00     0.287 C 
ATOM     17  O   UNL d   1      53.259  30.954  52.851  0.00  0.00    -0.265 OA
BRANCH  16  18
ATOM     18  C   UNL d   1      53.304  29.975  53.858  0.00  0.00     0.087 A 
ATOM     19  S   UNL d   1      53.618  29.532  54.479  0.00  0.00    -0.082 SA
ATOM     20  C   UNL d   1      53.252  28.788  54.453  0.00  0.00     0.036 A 
ATOM     21  C   UNL d   1      52.751  28.778  53.860  0.00  0.00     0.008 A 
ATOM     22  C   UNL d   1      52.769  29.519  53.472  0.00  0.00     0.012 A 
ENDBRANCH  16  18
ENDBRANCH   1  15
TORSDOF 4
ENDMDL
MODEL 5
REMARK VINA RESULT:      -7.6      2.124      4.860
REMARK  4 active torsions:
REMARK  status: ('A' for Active; 'I' for Inactive)
REMARK    1  A    between atoms: N_2  and  C_1 
REMARK       I    between atoms: C_3  and  N_2 
REMARK    2  A    between atoms: C_6  and  C_3 
REMARK    3  A    between atoms: C_11  and  C_7 
REMARK    4  A    between atoms: C_8  and  C_11 
ROOT
ATOM      1  C   UNL d   1      51.642  34.149  53.020  0.00  0.00     0.197 A 
ATOM      2  N   UNL d   1      51.793  34.429  52.280  0.00  0.00    -0.219 NA
ATOM      3  S   UNL d   1      50.835  33.946  53.060  0.00  0.00    -0.047 SA
ATOM      4  C   UNL d   1      50.504  34.109  52.333  0.00  0.00     0.051 A 
ATOM      5  C   UNL d   1      51.092  34.412  51.835  0.00  0.00     0.108 A 
ENDROOT
BRANCH   4   6
ATOM      6  C   UNL d   1      49.754  34.036  52.023  0.00  0.00     0.009 C 
BRANCH   6   7
ATOM      7  C   UNL d   1      49.195  34.652  52.165  0.00  0.00     0.012 A 
ATOM      8  C   UNL d   1      48.678  34.879  51.571  0.00  0.00     0.058 A 
ATOM      9  C   UNL d   1      48.116  35.497  51.710  0.00  0.00     0.012 A 
ATOM     10 CL   UNL d   1      48.697  34.509  50.827  0.00  0.00    -0.082 Cl
ATOM     11  C   UNL d   1      48.086  35.867  52.428  0.00  0.00     0.012 A 
ATOM     12  C   UNL d   1      48.606  35.646  53.041  0.00  0.00     0.058 A 
ATOM     13  C   UNL d   1      49.161  35.032  52.896  0.00  0.00     0.012 A 
ATOM     14 CL   UNL d   1      48.548  36.052  53.780  0.00  0.00    -0.082 Cl
ENDBRANCH   6   7
ENDBRANCH   4   6
BRANCH   1  15
ATOM     15  N   UNL d   1      52.205  34.076  53.640  0.00  0.00    -0.182 NA
ATOM     16  C   UNL d   1      52.804  33.520  53.607  0.00  0.00     0.287 C 
ATOM     17  O   UNL d   1      52.850  33.034  52.958  0.00  0.00    -0.265 OA
BRANCH  16  18
ATOM     18  C   UNL d   1      53.339  33.458  54.205  0.00  0.00     0.087 A 
ATOM     19  S   UNL d   1      53.686  34.023  54.696  0.00  0.00    -0.082 SA
ATOM     20  C   UNL d   1      54.196  33.616  55.208  0.00  0.00     0.036 A 
ATOM     21  C   UNL d   1      54.162  32.858  55.042  0.00  0.00     0.008 A 
ATOM     22  C   UNL d   1      53.626  32.738  54.411  0.00  0.00     0.012 A 
ENDBRANCH  16  18
ENDBRANCH   1  15
TORSDOF 4
ENDMDL
MODEL 6
REMARK VINA RESULT:      -5.8      9.893     10.544
REMARK  4 active torsions:
REMARK  status: ('A' for Active; 'I' for Inactive)
REMARK    1  A    between atoms: N_2  and  C_1 
REMARK       I    between atoms: C_3  and  N_2 
REMARK    2  A    between atoms: C_6  and  C_3 
REMARK    3  A    between atoms: C_11  and  C_7 
REMARK    4  A    between atoms: C_8  and  C_11 
ROOT
ATOM      1  C   UNL d   1      44.805  30.054  59.833  0.00  0.00     0.197 A 
ATOM      2  N   UNL d   1      45.424  30.420  59.468  0.00  0.00    -0.219 NA
ATOM      3  S   UNL d   1      44.326  29.709  59.245  0.00  0.00    -0.047 SA
ATOM      4  C   UNL d   1      44.667  29.874  58.522  0.00  0.00     0.051 A 
ATOM      5  C   UNL d   1      45.354  30.317  58.647  0.00  0.00     0.108 A 
ENDROOT
BRANCH   4   6
ATOM      6  C   UNL d   1      44.471  29.696  57.751  0.00  0.00     0.009 C 
BRANCH   6   7
ATOM      7  C   UNL d   1      44.765  28.981  57.414  0.00  0.00     0.012 A 
ATOM      8  C   UNL d   1      44.869  28.924  56.602  0.00  0.00     0.058 A 
ATOM      9  C   UNL d   1      45.164  28.209  56.261  0.00  0.00     0.012 A 
ATOM     10 CL   UNL d   1      44.687  29.565  56.106  0.00  0.00    -0.082 Cl
ATOM     11  C   UNL d   1      45.345  27.576  56.730  0.00  0.00     0.012 A 
ATOM     12  C   UNL d   1      45.245  27.620  57.557  0.00  0.00     0.058 A 
ATOM     13  C   UNL d   1      44.952  28.334  57.889  0.00  0.00     0.012 A 
ATOM     14 CL   UNL d   1      45.444  26.941  58.020  0.00  0.00    -0.082 Cl
ENDBRANCH   6   7
ENDBRANCH   4   6
BRANCH   1  15
ATOM     15  N   UNL d   1      44.672  30.028  60.662  0.00  0.00    -0.182 NA
ATOM     16  C   UNL d   1      44.652  30.711  61.111  0.00  0.00     0.287 C 
ATOM     17  O   UNL d   1      44.764  31.425  60.740  0.00  0.00    -0.265 OA
BRANCH  16  18
ATOM     18  C   UNL d   1      44.524  30.677  61.905  0.00  0.00     0.087 A 
ATOM     19  S   UNL d   1      44.439  31.265  62.477  0.00  0.00    -0.082 SA
ATOM     20  C   UNL d   1      44.317  30.881  63.201  0.00  0.00     0.036 A 
ATOM     21  C   UNL d   1      44.327  30.114  63.080  0.00  0.00     0.008 A 
ATOM     22  C   UNL d   1      44.456  29.965  62.268  0.00  0.00     0.012 A 
ENDBRANCH  16  18
ENDBRANCH   1  15
TORSDOF 4
ENDMDL
