MODEL 1
REMARK VINA RESULT:      -6.9      0.000      0.000
REMARK  5 active torsions:
REMARK  status: ('A' for Active; 'I' for Inactive)
REMARK    1  A    between atoms: C_2  and  C_1 
REMARK    2  A    between atoms: C_16  and  C_8 
REMARK    3  A    between atoms: N_15  and  C_13 
REMARK    4  A    between atoms: C_19  and  N_15 
REMARK    5  A    between atoms: C_20  and  N_15 
ROOT
ATOM      1  C   UNL d   1     -44.230  12.813  21.946  0.00  0.00     0.106 A 
ATOM      2  C   UNL d   1     -44.271  12.149  22.429  0.00  0.00     0.304 A 
ATOM      3  C   UNL d   1     -44.908  13.284  21.840  0.00  0.00     0.011 A 
ATOM      4  O   UNL d   1     -44.991  11.931  22.824  0.00  0.00    -0.273 OA
ATOM      5  C   UNL d   1     -45.657  12.429  22.695  0.00  0.00     0.105 A 
ATOM      6  C   UNL d   1     -45.616  13.093  22.212  0.00  0.00     0.023 A 
ATOM      7  C   UNL d   1     -46.378  12.210  23.091  0.00  0.00     0.042 A 
ATOM      8  C   UNL d   1     -47.048  12.709  22.962  0.00  0.00     0.066 A 
ATOM      9  O   UNL d   1     -43.568  11.666  22.535  0.00  0.00    -0.259 OA
ATOM     10  C   UNL d   1     -46.294  13.563  22.106  0.00  0.00     0.004 A 
ATOM     11  C   UNL d   1     -47.007  13.373  22.479  0.00  0.00     0.018 A 
ENDROOT
BRANCH   1  12
ATOM     12  C   UNL d   1     -43.511  13.002  21.572  0.00  0.00     0.210 A 
ATOM     13  O   UNL d   1     -42.966  13.602  21.758  0.00  0.00    -0.268 OA
ATOM     14  C   UNL d   1     -42.349  13.545  21.213  0.00  0.00     0.204 A 
ATOM     15  N   UNL d   1     -42.505  12.925  20.698  0.00  0.00    -0.121 NA
ATOM     16  N   UNL d   1     -43.223  12.582  20.912  0.00  0.00    -0.121 NA
BRANCH  14  17
ATOM     17  C   UNL d   1     -41.665  13.993  21.132  0.00  0.00     0.043 A 
ATOM     18  C   UNL d   1     -41.694  14.722  20.755  0.00  0.00     0.004 A 
ATOM     19  C   UNL d   1     -41.007  15.166  20.677  0.00  0.00     0.000 A 
ATOM     20  C   UNL d   1     -40.284  14.890  20.973  0.00  0.00     0.000 A 
ATOM     21  C   UNL d   1     -40.259  14.165  21.348  0.00  0.00     0.000 A 
ATOM     22  C   UNL d   1     -40.954  13.716  21.427  0.00  0.00     0.004 A 
ENDBRANCH  14  17
ENDBRANCH   1  12
BRANCH   8  23
ATOM     23  N   UNL d   1     -47.814  12.522  23.351  0.00  0.00    -0.304 N 
BRANCH  23  24
ATOM     24  C   UNL d   1     -48.407  13.116  23.355  0.00  0.00     0.080 C 
ATOM     25  C   UNL d   1     -49.183  12.960  23.573  0.00  0.00     0.021 C 
ENDBRANCH  23  24
BRANCH  23  26
ATOM     26  C   UNL d   1     -47.939  11.786  23.697  0.00  0.00     0.080 C 
ATOM     27  C   UNL d   1     -48.704  11.450  23.691  0.00  0.00     0.021 C 
ENDBRANCH  23  26
ENDBRANCH   8  23
TORSDOF 5
ENDMDL
MODEL 2
REMARK VINA RESULT:      -6.2      2.845      5.942
REMARK  5 active torsions:
REMARK  status: ('A' for Active; 'I' for Inactive)
REMARK    1  A    between atoms: C_2  and  C_1 
REMARK    2  A    between atoms: C_16  and  C_8 
REMARK    3  A    between atoms: N_15  and  C_13 
REMARK    4  A    between atoms: C_19  and  N_15 
REMARK    5  A    between atoms: C_20  and  N_15 
ROOT
ATOM      1  C   UNL d   1     -47.543  12.814  22.883  0.00  0.00     0.106 A 
ATOM      2  C   UNL d   1     -47.664  12.168  23.378  0.00  0.00     0.304 A 
ATOM      3  C   UNL d   1     -46.784  12.954  22.574  0.00  0.00     0.011 A 
ATOM      4  O   UNL d   1     -47.030  11.639  23.582  0.00  0.00    -0.273 OA
ATOM      5  C   UNL d   1     -46.276  11.812  23.251  0.00  0.00     0.105 A 
ATOM      6  C   UNL d   1     -46.155  12.457  22.757  0.00  0.00     0.023 A 
ATOM      7  C   UNL d   1     -45.642  11.283  23.455  0.00  0.00     0.042 A 
ATOM      8  C   UNL d   1     -44.883  11.454  23.124  0.00  0.00     0.066 A 
ATOM      9  O   UNL d   1     -48.450  12.027  23.695  0.00  0.00    -0.259 OA
ATOM     10  C   UNL d   1     -45.396  12.597  22.447  0.00  0.00     0.004 A 
ATOM     11  C   UNL d   1     -44.762  12.099  22.630  0.00  0.00     0.018 A 
ENDROOT
BRANCH   1  12
ATOM     12  C   UNL d   1     -48.183  13.314  22.701  0.00  0.00     0.210 A 
ATOM     13  O   UNL d   1     -48.583  13.851  23.193  0.00  0.00    -0.268 OA
ATOM     14  C   UNL d   1     -49.172  14.205  22.736  0.00  0.00     0.204 A 
ATOM     15  N   UNL d   1     -49.141  13.895  21.976  0.00  0.00    -0.121 NA
ATOM     16  N   UNL d   1     -48.531  13.342  21.944  0.00  0.00    -0.121 NA
BRANCH  14  17
ATOM     17  C   UNL d   1     -49.731  14.773  22.933  0.00  0.00     0.043 A 
ATOM     18  C   UNL d   1     -50.466  14.772  22.563  0.00  0.00     0.004 A 
ATOM     19  C   UNL d   1     -51.021  15.343  22.764  0.00  0.00     0.000 A 
ATOM     20  C   UNL d   1     -50.853  15.922  23.333  0.00  0.00     0.000 A 
ATOM     21  C   UNL d   1     -50.123  15.921  23.698  0.00  0.00     0.000 A 
ATOM     22  C   UNL d   1     -49.560  15.342  23.495  0.00  0.00     0.004 A 
ENDBRANCH  14  17
ENDBRANCH   1  12
BRANCH   8  23
ATOM     23  N   UNL d   1     -44.198  10.934  23.308  0.00  0.00    -0.304 N 
BRANCH  23  24
ATOM     24  C   UNL d   1     -44.355  10.197  23.680  0.00  0.00     0.080 C 
ATOM     25  C   UNL d   1     -44.168   9.479  23.327  0.00  0.00     0.021 C 
ENDBRANCH  23  24
BRANCH  23  26
ATOM     26  C   UNL d   1     -43.432  11.167  23.120  0.00  0.00     0.080 C 
ATOM     27  C   UNL d   1     -42.797  10.638  23.239  0.00  0.00     0.021 C 
ENDBRANCH  23  26
ENDBRANCH   8  23
TORSDOF 5
ENDMDL
MODEL 3
REMARK VINA RESULT:      -5.5      6.234      8.344
REMARK  5 active torsions:
REMARK  status: ('A' for Active; 'I' for Inactive)
REMARK    1  A    between atoms: C_2  and  C_1 
REMARK    2  A    between atoms: C_16  and  C_8 
REMARK    3  A    between atoms: N_15  and  C_13 
REMARK    4  A    between atoms: C_19  and  N_15 
REMARK    5  A    between atoms: C_20  and  N_15 
ROOT
ATOM      1  C   UNL d   1     -39.281  14.623  19.005  0.00  0.00     0.106 A 
ATOM      2  C   UNL d   1     -39.745  15.132  18.557  0.00  0.00     0.304 A 
ATOM      3  C   UNL d   1     -38.713  14.147  18.625  0.00  0.00     0.011 A 
ATOM      4  O   UNL d   1     -39.659  15.185  17.712  0.00  0.00    -0.273 OA
ATOM      5  C   UNL d   1     -39.075  14.690  17.362  0.00  0.00     0.105 A 
ATOM      6  C   UNL d   1     -38.611  14.181  17.810  0.00  0.00     0.023 A 
ATOM      7  C   UNL d   1     -38.989  14.743  16.517  0.00  0.00     0.042 A 
ATOM      8  C   UNL d   1     -38.404  14.247  16.163  0.00  0.00     0.066 A 
ATOM      9  O   UNL d   1     -40.330  15.622  18.952  0.00  0.00    -0.259 OA
ATOM     10  C   UNL d   1     -38.044  13.705  17.431  0.00  0.00     0.004 A 
ATOM     11  C   UNL d   1     -37.940  13.737  16.611  0.00  0.00     0.018 A 
ENDROOT
BRANCH   1  12
ATOM     12  C   UNL d   1     -39.388  14.593  19.829  0.00  0.00     0.210 A 
ATOM     13  O   UNL d   1     -39.019  15.044  20.422  0.00  0.00    -0.268 OA
ATOM     14  C   UNL d   1     -39.325  14.792  21.145  0.00  0.00     0.204 A 
ATOM     15  N   UNL d   1     -39.874  14.196  21.008  0.00  0.00    -0.121 NA
ATOM     16  N   UNL d   1     -39.919  14.066  20.195  0.00  0.00    -0.121 NA
BRANCH  14  17
ATOM     17  C   UNL d   1     -39.163  15.042  21.910  0.00  0.00     0.043 A 
ATOM     18  C   UNL d   1     -38.580  14.665  22.350  0.00  0.00     0.004 A 
ATOM     19  C   UNL d   1     -38.422  14.919  23.115  0.00  0.00     0.000 A 
ATOM     20  C   UNL d   1     -38.840  15.549  23.452  0.00  0.00     0.000 A 
ATOM     21  C   UNL d   1     -39.419  15.922  23.012  0.00  0.00     0.000 A 
ATOM     22  C   UNL d   1     -39.580  15.665  22.237  0.00  0.00     0.004 A 
ENDBRANCH  14  17
ENDBRANCH   1  12
BRANCH   8  23
ATOM     23  N   UNL d   1     -38.280  14.268  15.293  0.00  0.00    -0.304 N 
BRANCH  23  24
ATOM     24  C   UNL d   1     -38.519  14.960  14.880  0.00  0.00     0.080 C 
ATOM     25  C   UNL d   1     -37.981  15.460  14.513  0.00  0.00     0.021 C 
ENDBRANCH  23  24
BRANCH  23  26
ATOM     26  C   UNL d   1     -37.941  13.629  14.902  0.00  0.00     0.080 C 
ATOM     27  C   UNL d   1     -38.103  13.506  14.092  0.00  0.00     0.021 C 
ENDBRANCH  23  26
ENDBRANCH   8  23
TORSDOF 5
ENDMDL
MODEL 4
REMARK VINA RESULT:      -5.4      1.240      6.064
REMARK  5 active torsions:
REMARK  status: ('A' for Active; 'I' for Inactive)
REMARK    1  A    between atoms: C_2  and  C_1 
REMARK    2  A    between atoms: C_16  and  C_8 
REMARK    3  A    between atoms: N_15  and  C_13 
REMARK    4  A    between atoms: C_19  and  N_15 
REMARK    5  A    between atoms: C_20  and  N_15 
ROOT
ATOM      1  C   UNL d   1     -43.062  13.346  21.426  0.00  0.00     0.106 A 
ATOM      2  C   UNL d   1     -42.509  12.759  21.587  0.00  0.00     0.304 A 
ATOM      3  C   UNL d   1     -42.802  14.082  21.137  0.00  0.00     0.011 A 
ATOM      4  O   UNL d   1     -41.677  12.886  21.466  0.00  0.00    -0.273 OA
ATOM      5  C   UNL d   1     -41.450  13.641  21.173  0.00  0.00     0.105 A 
ATOM      6  C   UNL d   1     -42.002  14.228  21.012  0.00  0.00     0.023 A 
ATOM      7  C   UNL d   1     -40.618  13.768  21.052  0.00  0.00     0.042 A 
ATOM      8  C   UNL d   1     -40.388  14.526  20.758  0.00  0.00     0.066 A 
ATOM      9  O   UNL d   1     -42.781  12.000  21.885  0.00  0.00    -0.259 OA
ATOM     10  C   UNL d   1     -41.743  14.964  20.724  0.00  0.00     0.004 A 
ATOM     11  C   UNL d   1     -40.940  15.114  20.597  0.00  0.00     0.018 A 
ENDROOT
BRANCH   1  12
ATOM     12  C   UNL d   1     -43.869  13.193  21.554  0.00  0.00     0.210 A 
ATOM     13  O   UNL d   1     -44.366  13.477  22.157  0.00  0.00    -0.268 OA
ATOM     14  C   UNL d   1     -45.114  13.155  22.026  0.00  0.00     0.204 A 
ATOM     15  N   UNL d   1     -45.086  12.681  21.356  0.00  0.00    -0.121 NA
ATOM     16  N   UNL d   1     -44.318  12.699  21.056  0.00  0.00    -0.121 NA
BRANCH  14  17
ATOM     17  C   UNL d   1     -45.815  13.244  22.445  0.00  0.00     0.043 A 
ATOM     18  C   UNL d   1     -46.196  13.972  22.457  0.00  0.00     0.004 A 
ATOM     19  C   UNL d   1     -46.897  14.055  22.878  0.00  0.00     0.000 A 
ATOM     20  C   UNL d   1     -47.226  13.417  23.291  0.00  0.00     0.000 A 
ATOM     21  C   UNL d   1     -46.845  12.695  23.277  0.00  0.00     0.000 A 
ATOM     22  C   UNL d   1     -46.135  12.610  22.850  0.00  0.00     0.004 A 
ENDBRANCH  14  17
ENDBRANCH   1  12
BRANCH   8  23
ATOM     23  N   UNL d   1     -39.538  14.701  20.618  0.00  0.00    -0.304 N 
BRANCH  23  24
ATOM     24  C   UNL d   1     -39.253  14.653  19.830  0.00  0.00     0.080 C 
ATOM     25  C   UNL d   1     -38.551  14.270  19.640  0.00  0.00     0.021 C 
ENDBRANCH  23  24
BRANCH  23  26
ATOM     26  C   UNL d   1     -39.043  14.906  21.243  0.00  0.00     0.080 C 
ATOM     27  C   UNL d   1     -38.567  15.590  21.188  0.00  0.00     0.021 C 
ENDBRANCH  23  26
ENDBRANCH   8  23
TORSDOF 5
ENDMDL
MODEL 5
REMARK VINA RESULT:      -5.1      6.035      8.090
REMARK  5 active torsions:
REMARK  status: ('A' for Active; 'I' for Inactive)
REMARK    1  A    between atoms: C_2  and  C_1 
REMARK    2  A    between atoms: C_16  and  C_8 
REMARK    3  A    between atoms: N_15  and  C_13 
REMARK    4  A    between atoms: C_19  and  N_15 
REMARK    5  A    between atoms: C_20  and  N_15 
ROOT
ATOM      1  C   UNL d   1     -38.772  15.023  17.572  0.00  0.00     0.106 A 
ATOM      2  C   UNL d   1     -39.507  15.356  17.725  0.00  0.00     0.304 A 
ATOM      3  C   UNL d   1     -38.304  14.758  18.207  0.00  0.00     0.011 A 
ATOM      4  O   UNL d   1     -39.803  15.438  18.518  0.00  0.00    -0.273 OA
ATOM      5  C   UNL d   1     -39.304  15.160  19.135  0.00  0.00     0.105 A 
ATOM      6  C   UNL d   1     -38.568  14.826  18.983  0.00  0.00     0.023 A 
ATOM      7  C   UNL d   1     -39.599  15.241  19.929  0.00  0.00     0.042 A 
ATOM      8  C   UNL d   1     -39.099  14.963  20.551  0.00  0.00     0.066 A 
ATOM      9  O   UNL d   1     -39.988  15.628  17.066  0.00  0.00    -0.259 OA
ATOM     10  C   UNL d   1     -38.100  14.562  19.618  0.00  0.00     0.004 A 
ATOM     11  C   UNL d   1     -38.364  14.629  20.399  0.00  0.00     0.018 A 
ENDROOT
BRANCH   1  12
ATOM     12  C   UNL d   1     -38.509  14.956  16.785  0.00  0.00     0.210 A 
ATOM     13  O   UNL d   1     -38.575  14.312  16.264  0.00  0.00    -0.268 OA
ATOM     14  C   UNL d   1     -38.224  14.538  15.554  0.00  0.00     0.204 A 
ATOM     15  N   UNL d   1     -37.944  15.306  15.628  0.00  0.00    -0.121 NA
ATOM     16  N   UNL d   1     -38.116  15.574  16.388  0.00  0.00    -0.121 NA
BRANCH  14  17
ATOM     17  C   UNL d   1     -38.129  14.126  14.849  0.00  0.00     0.043 A 
ATOM     18  C   UNL d   1     -38.094  13.305  14.855  0.00  0.00     0.004 A 
ATOM     19  C   UNL d   1     -38.000  12.899  14.148  0.00  0.00     0.000 A 
ATOM     20  C   UNL d   1     -37.940  13.302  13.427  0.00  0.00     0.000 A 
ATOM     21  C   UNL d   1     -37.975  14.118  13.424  0.00  0.00     0.000 A 
ATOM     22  C   UNL d   1     -38.071  14.531  14.140  0.00  0.00     0.004 A 
ENDBRANCH  14  17
ENDBRANCH   1  12
BRANCH   8  23
ATOM     23  N   UNL d   1     -39.364  15.027  21.387  0.00  0.00    -0.304 N 
BRANCH  23  24
ATOM     24  C   UNL d   1     -39.200  15.742  21.796  0.00  0.00     0.080 C 
ATOM     25  C   UNL d   1     -39.499  15.897  22.545  0.00  0.00     0.021 C 
ENDBRANCH  23  24
BRANCH  23  26
ATOM     26  C   UNL d   1     -39.759  14.403  21.750  0.00  0.00     0.080 C 
ATOM     27  C   UNL d   1     -39.334  13.867  22.229  0.00  0.00     0.021 C 
ENDBRANCH  23  26
ENDBRANCH   8  23
TORSDOF 5
ENDMDL
