MODEL 1
REMARK VINA RESULT:      -4.7      0.000      0.000
REMARK  6 active torsions:
REMARK  status: ('A' for Active; 'I' for Inactive)
REMARK    1  A    between atoms: C_6  and  C_1 
REMARK    2  A    between atoms: C_7  and  C_3 
REMARK    3  A    between atoms: O_11  and  C_6 
REMARK    4  A    between atoms: O_12  and  C_7 
REMARK    5  A    between atoms: C_14  and  O_11 
REMARK    6  A    between atoms: C_15  and  O_12 
ROOT
ATOM      1  C   UNL d   1     -41.487-122.609 -51.517  0.00  0.00     0.083 A 
ATOM      2  C   UNL d   1     -41.539-123.037 -52.236  0.00  0.00     0.030 A 
ATOM      3  C   UNL d   1     -41.319-122.514 -52.838  0.00  0.00     0.145 A 
ATOM      4  N   UNL d   1     -41.137-121.789 -52.516  0.00  0.00    -0.240 NA
ATOM      5  C   UNL d   1     -41.242-121.850 -51.692  0.00  0.00     0.087 A 
ATOM      6  C   UNL d   1     -41.762-123.811 -52.309  0.00  0.00     0.002 C 
ATOM      7  C   UNL d   1     -41.124-121.255 -51.130  0.00  0.00     0.021 C 
ENDROOT
BRANCH   1   8
ATOM      8  C   UNL d   1     -41.651-122.889 -50.760  0.00  0.00     0.302 C 
ATOM      9  O   UNL d   1     -41.124-123.358 -50.386  0.00  0.00    -0.259 OA
BRANCH   8  10
ATOM     10  O   UNL d   1     -42.378-122.673 -50.395  0.00  0.00    -0.271 OA
BRANCH  10  11
ATOM     11  C   UNL d   1     -42.661-123.076 -49.766  0.00  0.00     0.126 C 
ATOM     12  C   UNL d   1     -43.064-122.687 -49.157  0.00  0.00     0.029 C 
ENDBRANCH  10  11
ENDBRANCH   8  10
ENDBRANCH   1   8
BRANCH   3  13
ATOM     13  C   UNL d   1     -41.298-122.727 -53.638  0.00  0.00     0.318 C 
ATOM     14  O   UNL d   1     -41.126-123.472 -53.866  0.00  0.00    -0.257 OA
BRANCH  13  15
ATOM     15  O   UNL d   1     -41.457-122.164 -54.202  0.00  0.00    -0.270 OA
BRANCH  15  16
ATOM     16  C   UNL d   1     -41.463-122.354 -54.999  0.00  0.00     0.126 C 
ATOM     17  C   UNL d   1     -41.978-121.989 -55.510  0.00  0.00     0.029 C 
ENDBRANCH  15  16
ENDBRANCH  13  15
ENDBRANCH   3  13
TORSDOF 6
ENDMDL
MODEL 2
REMARK VINA RESULT:      -3.1      1.339      1.980
REMARK  6 active torsions:
REMARK  status: ('A' for Active; 'I' for Inactive)
REMARK    1  A    between atoms: C_6  and  C_1 
REMARK    2  A    between atoms: C_7  and  C_3 
REMARK    3  A    between atoms: O_11  and  C_6 
REMARK    4  A    between atoms: O_12  and  C_7 
REMARK    5  A    between atoms: C_14  and  O_11 
REMARK    6  A    between atoms: C_15  and  O_12 
ROOT
ATOM      1  C   UNL d   1     -42.324-122.836 -50.143  0.00  0.00     0.083 A 
ATOM      2  C   UNL d   1     -41.747-122.910 -50.748  0.00  0.00     0.030 A 
ATOM      3  C   UNL d   1     -41.949-122.361 -51.333  0.00  0.00     0.145 A 
ATOM      4  N   UNL d   1     -42.620-121.958 -51.110  0.00  0.00    -0.240 NA
ATOM      5  C   UNL d   1     -42.852-122.256 -50.368  0.00  0.00     0.087 A 
ATOM      6  C   UNL d   1     -41.123-123.424 -50.744  0.00  0.00     0.002 C 
ATOM      7  C   UNL d   1     -43.505-122.017 -49.919  0.00  0.00     0.021 C 
ENDROOT
BRANCH   1   8
ATOM      8  C   UNL d   1     -42.364-123.265 -49.441  0.00  0.00     0.302 C 
ATOM      9  O   UNL d   1     -42.968-123.772 -49.317  0.00  0.00    -0.259 OA
BRANCH   8  10
ATOM     10  O   UNL d   1     -41.761-123.157 -48.864  0.00  0.00    -0.271 OA
BRANCH  10  11
ATOM     11  C   UNL d   1     -41.796-123.522 -48.154  0.00  0.00     0.126 C 
ATOM     12  C   UNL d   1     -41.273-123.323 -47.545  0.00  0.00     0.029 C 
ENDBRANCH  10  11
ENDBRANCH   8  10
ENDBRANCH   1   8
BRANCH   3  13
ATOM     13  C   UNL d   1     -41.511-122.261 -52.029  0.00  0.00     0.318 C 
ATOM     14  O   UNL d   1     -41.125-121.581 -52.185  0.00  0.00    -0.257 OA
BRANCH  13  15
ATOM     15  O   UNL d   1     -41.476-122.871 -52.565  0.00  0.00    -0.270 OA
BRANCH  15  16
ATOM     16  C   UNL d   1     -41.271-122.737 -53.347  0.00  0.00     0.126 C 
ATOM     17  C   UNL d   1     -41.460-123.274 -53.926  0.00  0.00     0.029 C 
ENDBRANCH  15  16
ENDBRANCH  13  15
ENDBRANCH   3  13
TORSDOF 6
ENDMDL
