MODEL 1
REMARK VINA RESULT:      64.1      0.000      0.000
REMARK  9 active torsions:
REMARK  status: ('A' for Active; 'I' for Inactive)
REMARK    1  A    between atoms: N_6  and  C_1 
REMARK    2  A    between atoms: N_2  and  C_10 
REMARK    3  A    between atoms: C_3  and  N_6 
REMARK    4  A    between atoms: N_4  and  C_3 
REMARK       I    between atoms: C_7  and  N_4 
REMARK    5  A    between atoms: C_12  and  C_7 
REMARK    6  A    between atoms: C_11  and  C_8 
REMARK    7  A    between atoms: C_15  and  C_11 
REMARK    8  A    between atoms: O_21  and  C_15 
REMARK    9  A    between atoms: C_25  and  O_21 
ROOT
ATOM      1  C   UNL d   1      60.513  49.156  51.056  0.00  0.00     0.277 C 
ATOM      2  S   UNL d   1      60.894  49.629  51.624  0.00  0.00    -0.023 SA
ENDROOT
BRANCH   1   3
ATOM      3  N   UNL d   1      60.938  48.566  50.668  0.00  0.00    -0.347 NA
BRANCH   3   4
ATOM      4  C   UNL d   1      61.372  47.981  50.280  0.00  0.00     0.248 A 
ATOM      5  N   UNL d   1      61.361  47.162  50.446  0.00  0.00    -0.210 NA
ATOM      6  C   UNL d   1      61.880  46.790  49.920  0.00  0.00     0.096 A 
ATOM      7  C   UNL d   1      62.209  47.369  49.436  0.00  0.00     0.059 A 
ATOM      8  S   UNL d   1      61.900  48.101  49.654  0.00  0.00    -0.033 SA
BRANCH   6   9
ATOM      9  C   UNL d   1      62.037  45.979  49.891  0.00  0.00     0.088 C 
BRANCH   9  10
ATOM     10  C   UNL d   1      61.444  45.450  49.677  0.00  0.00     0.302 C 
ATOM     11  O   UNL d   1      61.260  45.345  48.878  0.00  0.00    -0.259 OA
BRANCH  10  12
ATOM     12  O   UNL d   1      61.035  45.027  50.257  0.00  0.00    -0.271 OA
BRANCH  12  13
ATOM     13  C   UNL d   1      61.361  44.341  50.574  0.00  0.00     0.126 C 
ATOM     14  C   UNL d   1      61.219  44.142  51.363  0.00  0.00     0.029 C 
ENDBRANCH  12  13
ENDBRANCH  10  12
ENDBRANCH   9  10
ENDBRANCH   6   9
ENDBRANCH   3   4
ENDBRANCH   1   3
BRANCH   1  15
ATOM     15  N   UNL d   1      59.715  49.282  50.888  0.00  0.00    -0.168 NA
ATOM     16  C   UNL d   1      59.153  49.276  51.494  0.00  0.00     0.282 C 
ATOM     17  O   UNL d   1      59.390  49.143  52.275  0.00  0.00    -0.265 OA
BRANCH  16  18
ATOM     18  C   UNL d   1      58.355  49.401  51.326  0.00  0.00     0.060 A 
ATOM     19  C   UNL d   1      58.079  49.347  50.547  0.00  0.00     0.028 A 
ATOM     20  C   UNL d   1      57.284  49.473  50.381  0.00  0.00     0.127 A 
ATOM     21  C   UNL d   1      56.756  49.653  50.986  0.00  0.00     0.024 A 
ATOM     22  C   UNL d   1      57.029  49.707  51.763  0.00  0.00     0.002 A 
ATOM     23  C   UNL d   1      57.833  49.581  51.937  0.00  0.00     0.005 A 
BRANCH  20  24
ATOM     24  N   UNL d   1      57.022  49.416  49.598  0.00  0.00    -0.114 N 
ATOM     25  O   UNL d   1      56.284  49.705  49.378  0.00  0.00    -0.532 OA
ATOM     26  O   UNL d   1      57.510  49.063  49.034  0.00  0.00    -0.532 OA
ENDBRANCH  20  24
ENDBRANCH  16  18
ENDBRANCH   1  15
TORSDOF 9
ENDMDL
