MODEL 1
REMARK VINA RESULT:      29.5      0.000      0.000
REMARK  4 active torsions:
REMARK  status: ('A' for Active; 'I' for Inactive)
REMARK    1  A    between atoms: C_16  and  C_4 
REMARK    2  A    between atoms: C_8  and  S_14 
REMARK    3  A    between atoms: C_18  and  C_9 
REMARK    4  A    between atoms: S_14  and  C_16 
ROOT
ATOM      1  N   UNL d   1      14.246  12.623  -1.930  0.00  0.00    -0.218 NA
ATOM      2  C   UNL d   1      14.408  12.544  -1.118  0.00  0.00     0.215 A 
ATOM      3  C   UNL d   1      13.590  12.296  -2.260  0.00  0.00     0.104 A 
ATOM      4  N   UNL d   1      13.884  12.118  -0.637  0.00  0.00    -0.121 NA
ATOM      5  N   UNL d   1      13.206  11.779  -0.973  0.00  0.00    -0.143 NA
ATOM      6  C   UNL d   1      13.058  11.863  -1.767  0.00  0.00     0.141 A 
ENDROOT
BRANCH   2   7
ATOM      7  S   UNL d   1      15.077  12.880  -0.793  0.00  0.00    -0.045 SA
BRANCH   7   8
ATOM      8  C   UNL d   1      14.998  13.411  -0.178  0.00  0.00     0.060 C 
BRANCH   8   9
ATOM      9  C   UNL d   1      15.177  14.231  -0.298  0.00  0.00     0.124 A 
ATOM     10  N   UNL d   1      15.803  14.636  -0.014  0.00  0.00    -0.059 NA
ATOM     11  C   UNL d   1      15.746  15.413  -0.272  0.00  0.00     0.735 A 
ATOM     12  N   UNL d   1      15.059  15.466  -0.725  0.00  0.00    -0.136 N 
ATOM     13  N   UNL d   1      16.220  16.085  -0.162  0.00  0.00    -0.059 NA
ATOM     14  C   UNL d   1      14.708  14.727  -0.738  0.00  0.00     0.118 A 
ATOM     15  C   UNL d   1      14.844  16.181  -1.066  0.00  0.00     0.100 A 
ATOM     16  C   UNL d   1      15.318  16.852  -0.955  0.00  0.00     0.041 A 
ATOM     17  C   UNL d   1      16.005  16.805  -0.504  0.00  0.00     0.119 A 
ENDBRANCH   8   9
ENDBRANCH   7   8
ENDBRANCH   2   7
BRANCH   3  18
ATOM     18  C   UNL d   1      13.432  12.379  -3.078  0.00  0.00     0.019 A 
ATOM     19  C   UNL d   1      13.092  13.077  -3.340  0.00  0.00     0.002 A 
ATOM     20  C   UNL d   1      12.934  13.161  -4.158  0.00  0.00     0.000 A 
ATOM     21  C   UNL d   1      13.120  12.549  -4.680  0.00  0.00     0.000 A 
ATOM     22  C   UNL d   1      13.466  11.850  -4.384  0.00  0.00     0.000 A 
ATOM     23  C   UNL d   1      13.615  11.780  -3.584  0.00  0.00     0.002 A 
ENDBRANCH   3  18
TORSDOF 4
ENDMDL
