MODEL 1
REMARK VINA RESULT:     -10.0      0.000      0.000
REMARK  6 active torsions:
REMARK  status: ('A' for Active; 'I' for Inactive)
REMARK    1  A    between atoms: C_2  and  C_1 
REMARK       I    between atoms: N_3  and  C_2 
REMARK    2  A    between atoms: C_24  and  N_3 
REMARK    3  A    between atoms: C_4  and  C_10 
REMARK    4  A    between atoms: C_9  and  C_4 
REMARK    5  A    between atoms: C_8  and  C_9 
REMARK    6  A    between atoms: C_10  and  C_15 
ROOT
ATOM      1  C   UNL d   1     -47.460  13.716  22.698  0.00  0.00     0.039 A 
ATOM      2  C   UNL d   1     -48.963  14.170  22.164  0.00  0.00     0.084 A 
ATOM      3  C   UNL d   1     -48.027  14.064  23.246  0.00  0.00     0.005 A 
ATOM      4  C   UNL d   1     -47.669  13.613  21.920  0.00  0.00     0.005 A 
ATOM      5  C   UNL d   1     -48.754  14.280  22.973  0.00  0.00     0.019 A 
ATOM      6  C   UNL d   1     -48.398  13.831  21.652  0.00  0.00     0.019 A 
ENDROOT
BRANCH   2   7
ATOM      7  N   UNL d   1     -49.690  14.385  21.891  0.00  0.00    -0.212 NA
ATOM      8  C   UNL d   1     -50.310  13.865  21.882  0.00  0.00     0.259 C 
ATOM      9  O   UNL d   1     -51.064  14.076  21.602  0.00  0.00    -0.270 OA
BRANCH   8  10
ATOM     10  C   UNL d   1     -50.201  13.094  22.159  0.00  0.00     0.092 A 
ATOM     11  C   UNL d   1     -49.906  12.336  22.029  0.00  0.00     0.017 A 
ATOM     12  C   UNL d   1     -50.006  11.799  22.595  0.00  0.00     0.023 A 
ATOM     13  C   UNL d   1     -49.721  11.981  21.868  0.00  0.00    -0.027 A 
ATOM     14  C   UNL d   1     -50.396  11.993  23.299  0.00  0.00     0.009 A 
ATOM     15  C   UNL d   1     -50.017  12.740  21.999  0.00  0.00    -0.012 A 
ATOM     16  C   UNL d   1     -49.921  13.304  21.424  0.00  0.00    -0.018 A 
ATOM     17  C   UNL d   1     -50.402  12.908  22.709  0.00  0.00    -0.027 A 
ATOM     18  C   UNL d   1     -50.657  12.694  23.394  0.00  0.00     0.023 A 
ATOM     19  C   UNL d   1     -50.587  13.262  22.869  0.00  0.00     0.017 A 
ENDBRANCH   8  10
ENDBRANCH   2   7
BRANCH   1  20
ATOM     20  C   UNL d   1     -46.713  13.496  22.986  0.00  0.00     0.196 C 
ATOM     21  O   UNL d   1     -46.192  14.077  23.180  0.00  0.00    -0.287 OA
BRANCH  20  22
ATOM     22  C   UNL d   1     -46.517  12.700  23.069  0.00  0.00     0.044 C 
BRANCH  22  23
ATOM     23  C   UNL d   1     -45.725  12.471  23.145  0.00  0.00     0.028 C 
BRANCH  23  24
ATOM     24  C   UNL d   1     -45.539  11.689  23.337  0.00  0.00     0.100 A 
ATOM     25  O   UNL d   1     -44.805  11.341  23.350  0.00  0.00    -0.305 OA
ATOM     26  C   UNL d   1     -44.875  10.569  23.567  0.00  0.00     0.123 A 
ATOM     27  C   UNL d   1     -45.674  10.415  23.698  0.00  0.00     0.029 A 
ATOM     28  C   UNL d   1     -46.102  11.118  23.554  0.00  0.00     0.027 A 
ENDBRANCH  23  24
ENDBRANCH  22  23
ENDBRANCH  20  22
ENDBRANCH   1  20
TORSDOF 6
ENDMDL
MODEL 2
REMARK VINA RESULT:      -9.5      1.540      2.093
REMARK  6 active torsions:
REMARK  status: ('A' for Active; 'I' for Inactive)
REMARK    1  A    between atoms: C_2  and  C_1 
REMARK       I    between atoms: N_3  and  C_2 
REMARK    2  A    between atoms: C_24  and  N_3 
REMARK    3  A    between atoms: C_4  and  C_10 
REMARK    4  A    between atoms: C_9  and  C_4 
REMARK    5  A    between atoms: C_8  and  C_9 
REMARK    6  A    between atoms: C_10  and  C_15 
ROOT
ATOM      1  C   UNL d   1     -47.226  12.798  22.677  0.00  0.00     0.039 A 
ATOM      2  C   UNL d   1     -48.599  11.924  22.994  0.00  0.00     0.084 A 
ATOM      3  C   UNL d   1     -47.508  12.715  23.487  0.00  0.00     0.005 A 
ATOM      4  C   UNL d   1     -47.638  12.445  22.073  0.00  0.00     0.005 A 
ATOM      5  C   UNL d   1     -48.177  12.287  23.627  0.00  0.00     0.019 A 
ATOM      6  C   UNL d   1     -48.307  12.018  22.219  0.00  0.00     0.019 A 
ENDROOT
BRANCH   2   7
ATOM      7  N   UNL d   1     -49.268  11.497  23.133  0.00  0.00    -0.212 NA
ATOM      8  C   UNL d   1     -50.000  11.840  23.115  0.00  0.00     0.259 C 
ATOM      9  O   UNL d   1     -50.698  11.409  23.256  0.00  0.00    -0.270 OA
BRANCH   8  10
ATOM     10  C   UNL d   1     -50.070  12.647  22.951  0.00  0.00     0.092 A 
ATOM     11  C   UNL d   1     -50.014  13.426  23.214  0.00  0.00     0.017 A 
ATOM     12  C   UNL d   1     -50.180  14.001  22.705  0.00  0.00     0.023 A 
ATOM     13  C   UNL d   1     -49.956  13.786  23.445  0.00  0.00    -0.027 A 
ATOM     14  C   UNL d   1     -50.404  13.827  21.928  0.00  0.00     0.009 A 
ATOM     15  C   UNL d   1     -50.013  13.007  23.179  0.00  0.00    -0.012 A 
ATOM     16  C   UNL d   1     -49.845  12.403  23.694  0.00  0.00    -0.018 A 
ATOM     17  C   UNL d   1     -50.239  12.860  22.399  0.00  0.00    -0.027 A 
ATOM     18  C   UNL d   1     -50.449  13.106  21.710  0.00  0.00     0.023 A 
ATOM     19  C   UNL d   1     -50.297  12.500  22.170  0.00  0.00     0.017 A 
ENDBRANCH   8  10
ENDBRANCH   2   7
BRANCH   1  20
ATOM     20  C   UNL d   1     -46.536  13.240  22.540  0.00  0.00     0.196 C 
ATOM     21  O   UNL d   1     -46.558  14.033  22.673  0.00  0.00    -0.287 OA
BRANCH  20  22
ATOM     22  C   UNL d   1     -45.850  12.869  22.276  0.00  0.00     0.044 C 
BRANCH  22  23
ATOM     23  C   UNL d   1     -45.156  13.307  22.163  0.00  0.00     0.028 C 
BRANCH  23  24
ATOM     24  C   UNL d   1     -44.452  12.920  21.972  0.00  0.00     0.100 A 
ATOM     25  O   UNL d   1     -44.148  12.246  22.309  0.00  0.00    -0.305 OA
ATOM     26  C   UNL d   1     -43.449  12.058  21.958  0.00  0.00     0.123 A 
ATOM     27  C   UNL d   1     -43.296  12.625  21.379  0.00  0.00     0.029 A 
ATOM     28  C   UNL d   1     -43.926  13.175  21.381  0.00  0.00     0.027 A 
ENDBRANCH  23  24
ENDBRANCH  22  23
ENDBRANCH  20  22
ENDBRANCH   1  20
TORSDOF 6
ENDMDL
MODEL 3
REMARK VINA RESULT:      -9.1      1.521      4.638
REMARK  6 active torsions:
REMARK  status: ('A' for Active; 'I' for Inactive)
REMARK    1  A    between atoms: C_2  and  C_1 
REMARK       I    between atoms: N_3  and  C_2 
REMARK    2  A    between atoms: C_24  and  N_3 
REMARK    3  A    between atoms: C_4  and  C_10 
REMARK    4  A    between atoms: C_9  and  C_4 
REMARK    5  A    between atoms: C_8  and  C_9 
REMARK    6  A    between atoms: C_10  and  C_15 
ROOT
ATOM      1  C   UNL d   1     -48.950  11.991  22.903  0.00  0.00     0.039 A 
ATOM      2  C   UNL d   1     -47.351  11.559  22.990  0.00  0.00     0.084 A 
ATOM      3  C   UNL d   1     -48.568  11.898  23.670  0.00  0.00     0.005 A 
ATOM      4  C   UNL d   1     -48.520  11.865  22.226  0.00  0.00     0.005 A 
ATOM      5  C   UNL d   1     -47.790  11.687  23.698  0.00  0.00     0.019 A 
ATOM      6  C   UNL d   1     -47.742  11.654  22.260  0.00  0.00     0.019 A 
ENDROOT
BRANCH   2   7
ATOM      7  N   UNL d   1     -46.574  11.349  23.017  0.00  0.00    -0.212 NA
ATOM      8  C   UNL d   1     -45.986  11.905  23.028  0.00  0.00     0.259 C 
ATOM      9  O   UNL d   1     -45.179  11.700  23.055  0.00  0.00    -0.270 OA
BRANCH   8  10
ATOM     10  C   UNL d   1     -46.181  12.708  23.011  0.00  0.00     0.092 A 
ATOM     11  C   UNL d   1     -46.471  13.369  23.408  0.00  0.00     0.017 A 
ATOM     12  C   UNL d   1     -46.515  14.047  23.013  0.00  0.00     0.023 A 
ATOM     13  C   UNL d   1     -46.632  13.645  23.698  0.00  0.00    -0.027 A 
ATOM     14  C   UNL d   1     -46.276  14.092  22.222  0.00  0.00     0.009 A 
ATOM     15  C   UNL d   1     -46.341  12.985  23.299  0.00  0.00    -0.012 A 
ATOM     16  C   UNL d   1     -46.290  12.278  23.695  0.00  0.00    -0.018 A 
ATOM     17  C   UNL d   1     -46.109  13.056  22.510  0.00  0.00    -0.027 A 
ATOM     18  C   UNL d   1     -46.014  13.473  21.881  0.00  0.00     0.023 A 
ATOM     19  C   UNL d   1     -45.949  12.779  22.222  0.00  0.00     0.017 A 
ENDBRANCH   8  10
ENDBRANCH   2   7
BRANCH   1  20
ATOM     20  C   UNL d   1     -49.751  12.207  22.883  0.00  0.00     0.196 C 
ATOM     21  O   UNL d   1     -50.267  11.728  22.494  0.00  0.00    -0.287 OA
BRANCH  20  22
ATOM     22  C   UNL d   1     -50.005  12.897  23.254  0.00  0.00     0.044 C 
BRANCH  22  23
ATOM     23  C   UNL d   1     -50.600  13.361  22.911  0.00  0.00     0.028 C 
BRANCH  23  24
ATOM     24  C   UNL d   1     -50.626  14.173  23.061  0.00  0.00     0.100 A 
ATOM     25  O   UNL d   1     -51.064  14.561  23.624  0.00  0.00    -0.305 OA
ATOM     26  C   UNL d   1     -50.925  15.352  23.579  0.00  0.00     0.123 A 
ATOM     27  C   UNL d   1     -50.382  15.479  22.971  0.00  0.00     0.029 A 
ATOM     28  C   UNL d   1     -50.187  14.738  22.637  0.00  0.00     0.027 A 
ENDBRANCH  23  24
ENDBRANCH  22  23
ENDBRANCH  20  22
ENDBRANCH   1  20
TORSDOF 6
ENDMDL
MODEL 4
REMARK VINA RESULT:      -9.0      0.963      1.672
REMARK  6 active torsions:
REMARK  status: ('A' for Active; 'I' for Inactive)
REMARK    1  A    between atoms: C_2  and  C_1 
REMARK       I    between atoms: N_3  and  C_2 
REMARK    2  A    between atoms: C_24  and  N_3 
REMARK    3  A    between atoms: C_4  and  C_10 
REMARK    4  A    between atoms: C_9  and  C_4 
REMARK    5  A    between atoms: C_8  and  C_9 
REMARK    6  A    between atoms: C_10  and  C_15 
ROOT
ATOM      1  C   UNL d   1     -47.396  12.474  22.830  0.00  0.00     0.039 A 
ATOM      2  C   UNL d   1     -48.950  12.368  22.261  0.00  0.00     0.084 A 
ATOM      3  C   UNL d   1     -48.020  12.154  23.331  0.00  0.00     0.005 A 
ATOM      4  C   UNL d   1     -47.577  12.723  22.079  0.00  0.00     0.005 A 
ATOM      5  C   UNL d   1     -48.771  12.108  23.042  0.00  0.00     0.019 A 
ATOM      6  C   UNL d   1     -48.330  12.674  21.794  0.00  0.00     0.019 A 
ENDROOT
BRANCH   2   7
ATOM      7  N   UNL d   1     -49.700  12.323  21.970  0.00  0.00    -0.212 NA
ATOM      8  C   UNL d   1     -50.235  12.919  22.088  0.00  0.00     0.259 C 
ATOM      9  O   UNL d   1     -51.013  12.883  21.793  0.00  0.00    -0.270 OA
BRANCH   8  10
ATOM     10  C   UNL d   1     -50.013  13.591  22.514  0.00  0.00     0.092 A 
ATOM     11  C   UNL d   1     -49.888  13.950  23.245  0.00  0.00     0.017 A 
ATOM     12  C   UNL d   1     -49.648  14.698  23.253  0.00  0.00     0.023 A 
ATOM     13  C   UNL d   1     -49.853  14.042  23.665  0.00  0.00    -0.027 A 
ATOM     14  C   UNL d   1     -49.524  15.110  22.545  0.00  0.00     0.009 A 
ATOM     15  C   UNL d   1     -49.978  13.684  22.933  0.00  0.00    -0.012 A 
ATOM     16  C   UNL d   1     -50.227  12.912  22.910  0.00  0.00    -0.018 A 
ATOM     17  C   UNL d   1     -49.848  14.116  22.242  0.00  0.00    -0.027 A 
ATOM     18  C   UNL d   1     -49.646  14.759  21.889  0.00  0.00     0.023 A 
ATOM     19  C   UNL d   1     -49.884  14.023  21.823  0.00  0.00     0.017 A 
ENDBRANCH   8  10
ENDBRANCH   2   7
BRANCH   1  20
ATOM     20  C   UNL d   1     -46.625  12.518  23.136  0.00  0.00     0.196 C 
ATOM     21  O   UNL d   1     -46.354  13.232  23.387  0.00  0.00    -0.287 OA
BRANCH  20  22
ATOM     22  C   UNL d   1     -46.155  11.843  23.177  0.00  0.00     0.044 C 
BRANCH  22  23
ATOM     23  C   UNL d   1     -45.348  11.907  23.352  0.00  0.00     0.028 C 
BRANCH  23  24
ATOM     24  C   UNL d   1     -44.885  11.225  23.411  0.00  0.00     0.100 A 
ATOM     25  O   UNL d   1     -44.103  11.136  23.211  0.00  0.00    -0.305 OA
ATOM     26  C   UNL d   1     -43.870  10.380  23.357  0.00  0.00     0.123 A 
ATOM     27  C   UNL d   1     -44.518   9.970  23.661  0.00  0.00     0.029 A 
ATOM     28  C   UNL d   1     -45.165  10.497  23.698  0.00  0.00     0.027 A 
ENDBRANCH  23  24
ENDBRANCH  22  23
ENDBRANCH  20  22
ENDBRANCH   1  20
TORSDOF 6
ENDMDL
MODEL 5
REMARK VINA RESULT:      -7.9      8.522     10.018
REMARK  6 active torsions:
REMARK  status: ('A' for Active; 'I' for Inactive)
REMARK    1  A    between atoms: C_2  and  C_1 
REMARK       I    between atoms: N_3  and  C_2 
REMARK    2  A    between atoms: C_24  and  N_3 
REMARK    3  A    between atoms: C_4  and  C_10 
REMARK    4  A    between atoms: C_9  and  C_4 
REMARK    5  A    between atoms: C_8  and  C_9 
REMARK    6  A    between atoms: C_10  and  C_15 
ROOT
ATOM      1  C   UNL d   1     -40.482  14.805  19.953  0.00  0.00     0.039 A 
ATOM      2  C   UNL d   1     -40.529  15.167  18.335  0.00  0.00     0.084 A 
ATOM      3  C   UNL d   1     -40.904  14.290  19.406  0.00  0.00     0.005 A 
ATOM      4  C   UNL d   1     -40.108  15.467  19.668  0.00  0.00     0.005 A 
ATOM      5  C   UNL d   1     -40.919  14.478  18.622  0.00  0.00     0.019 A 
ATOM      6  C   UNL d   1     -40.126  15.651  18.883  0.00  0.00     0.019 A 
ENDROOT
BRANCH   2   7
ATOM      7  N   UNL d   1     -40.543  15.356  17.552  0.00  0.00    -0.212 NA
ATOM      8  C   UNL d   1     -40.014  15.036  17.030  0.00  0.00     0.259 C 
ATOM      9  O   UNL d   1     -40.019  15.223  16.219  0.00  0.00    -0.270 OA
BRANCH   8  10
ATOM     10  C   UNL d   1     -39.444  14.502  17.301  0.00  0.00     0.092 A 
ATOM     11  C   UNL d   1     -39.253  13.735  17.533  0.00  0.00     0.017 A 
ATOM     12  C   UNL d   1     -38.512  13.589  17.752  0.00  0.00     0.023 A 
ATOM     13  C   UNL d   1     -39.257  13.315  17.633  0.00  0.00    -0.027 A 
ATOM     14  C   UNL d   1     -37.944  14.191  17.750  0.00  0.00     0.009 A 
ATOM     15  C   UNL d   1     -39.446  14.084  17.401  0.00  0.00    -0.012 A 
ATOM     16  C   UNL d   1     -40.207  14.249  17.172  0.00  0.00    -0.018 A 
ATOM     17  C   UNL d   1     -38.861  14.666  17.407  0.00  0.00    -0.027 A 
ATOM     18  C   UNL d   1     -38.143  14.885  17.533  0.00  0.00     0.023 A 
ATOM     19  C   UNL d   1     -38.858  15.085  17.307  0.00  0.00     0.017 A 
ENDBRANCH   8  10
ENDBRANCH   2   7
BRANCH   1  20
ATOM     20  C   UNL d   1     -40.471  14.604  20.759  0.00  0.00     0.196 C 
ATOM     21  O   UNL d   1     -41.163  14.622  21.166  0.00  0.00    -0.287 OA
BRANCH  20  22
ATOM     22  C   UNL d   1     -39.764  14.393  21.125  0.00  0.00     0.044 C 
BRANCH  22  23
ATOM     23  C   UNL d   1     -39.771  14.057  21.882  0.00  0.00     0.028 C 
BRANCH  23  24
ATOM     24  C   UNL d   1     -39.058  13.898  22.267  0.00  0.00     0.100 A 
ATOM     25  O   UNL d   1     -38.673  14.360  22.813  0.00  0.00    -0.305 OA
ATOM     26  C   UNL d   1     -37.995  13.996  23.049  0.00  0.00     0.123 A 
ATOM     27  C   UNL d   1     -37.940  13.279  22.645  0.00  0.00     0.029 A 
ATOM     28  C   UNL d   1     -38.608  13.209  22.148  0.00  0.00     0.027 A 
ENDBRANCH  23  24
ENDBRANCH  22  23
ENDBRANCH  20  22
ENDBRANCH   1  20
TORSDOF 6
ENDMDL
MODEL 6
REMARK VINA RESULT:      -7.8      8.584     10.255
REMARK  6 active torsions:
REMARK  status: ('A' for Active; 'I' for Inactive)
REMARK    1  A    between atoms: C_2  and  C_1 
REMARK       I    between atoms: N_3  and  C_2 
REMARK    2  A    between atoms: C_24  and  N_3 
REMARK    3  A    between atoms: C_4  and  C_10 
REMARK    4  A    between atoms: C_9  and  C_4 
REMARK    5  A    between atoms: C_8  and  C_9 
REMARK    6  A    between atoms: C_10  and  C_15 
ROOT
ATOM      1  C   UNL d   1     -40.377  14.810  19.172  0.00  0.00     0.039 A 
ATOM      2  C   UNL d   1     -40.259  15.462  20.692  0.00  0.00     0.084 A 
ATOM      3  C   UNL d   1     -40.755  14.419  19.841  0.00  0.00     0.005 A 
ATOM      4  C   UNL d   1     -39.964  15.498  19.294  0.00  0.00     0.005 A 
ATOM      5  C   UNL d   1     -40.690  14.748  20.575  0.00  0.00     0.019 A 
ATOM      6  C   UNL d   1     -39.902  15.822  20.030  0.00  0.00     0.019 A 
ENDROOT
BRANCH   2   7
ATOM      7  N   UNL d   1     -40.194  15.791  21.425  0.00  0.00    -0.212 NA
ATOM      8  C   UNL d   1     -39.592  15.588  21.926  0.00  0.00     0.259 C 
ATOM      9  O   UNL d   1     -39.514  15.921  22.686  0.00  0.00    -0.270 OA
BRANCH   8  10
ATOM     10  C   UNL d   1     -39.029  15.033  21.688  0.00  0.00     0.092 A 
ATOM     11  C   UNL d   1     -38.343  14.864  21.263  0.00  0.00     0.017 A 
ATOM     12  C   UNL d   1     -38.074  14.126  21.273  0.00  0.00     0.023 A 
ATOM     13  C   UNL d   1     -37.989  14.881  21.016  0.00  0.00    -0.027 A 
ATOM     14  C   UNL d   1     -38.470  13.537  21.699  0.00  0.00     0.009 A 
ATOM     15  C   UNL d   1     -38.676  15.048  21.442  0.00  0.00    -0.012 A 
ATOM     16  C   UNL d   1     -38.965  15.806  21.440  0.00  0.00    -0.018 A 
ATOM     17  C   UNL d   1     -39.052  14.442  21.859  0.00  0.00    -0.027 A 
ATOM     18  C   UNL d   1     -39.095  13.716  22.080  0.00  0.00     0.023 A 
ATOM     19  C   UNL d   1     -39.405  14.427  22.105  0.00  0.00     0.017 A 
ENDBRANCH   8  10
ENDBRANCH   2   7
BRANCH   1  20
ATOM     20  C   UNL d   1     -40.448  14.466  18.420  0.00  0.00     0.196 C 
ATOM     21  O   UNL d   1     -41.122  14.062  18.246  0.00  0.00    -0.287 OA
BRANCH  20  22
ATOM     22  C   UNL d   1     -39.840  14.540  17.869  0.00  0.00     0.044 C 
BRANCH  22  23
ATOM     23  C   UNL d   1     -39.738  13.966  17.281  0.00  0.00     0.028 C 
BRANCH  23  24
ATOM     24  C   UNL d   1     -39.085  14.005  16.777  0.00  0.00     0.100 A 
ATOM     25  O   UNL d   1     -38.898  14.593  16.249  0.00  0.00    -0.305 OA
ATOM     26  C   UNL d   1     -38.213  14.410  15.869  0.00  0.00     0.123 A 
ATOM     27  C   UNL d   1     -37.949  13.685  16.159  0.00  0.00     0.029 A 
ATOM     28  C   UNL d   1     -38.495  13.421  16.735  0.00  0.00     0.027 A 
ENDBRANCH  23  24
ENDBRANCH  22  23
ENDBRANCH  20  22
ENDBRANCH   1  20
TORSDOF 6
ENDMDL
MODEL 7
REMARK VINA RESULT:      -7.4      1.641      2.143
REMARK  6 active torsions:
REMARK  status: ('A' for Active; 'I' for Inactive)
REMARK    1  A    between atoms: C_2  and  C_1 
REMARK       I    between atoms: N_3  and  C_2 
REMARK    2  A    between atoms: C_24  and  N_3 
REMARK    3  A    between atoms: C_4  and  C_10 
REMARK    4  A    between atoms: C_9  and  C_4 
REMARK    5  A    between atoms: C_8  and  C_9 
REMARK    6  A    between atoms: C_10  and  C_15 
ROOT
ATOM      1  C   UNL d   1     -46.428  13.301  22.524  0.00  0.00     0.039 A 
ATOM      2  C   UNL d   1     -47.892  14.058  22.342  0.00  0.00     0.084 A 
ATOM      3  C   UNL d   1     -46.872  13.214  21.790  0.00  0.00     0.005 A 
ATOM      4  C   UNL d   1     -46.733  13.757  23.122  0.00  0.00     0.005 A 
ATOM      5  C   UNL d   1     -47.583  13.587  21.716  0.00  0.00     0.019 A 
ATOM      6  C   UNL d   1     -47.445  14.128  23.042  0.00  0.00     0.019 A 
ENDROOT
BRANCH   2   7
ATOM      7  N   UNL d   1     -48.603  14.431  22.268  0.00  0.00    -0.212 NA
ATOM      8  C   UNL d   1     -49.298  14.055  22.442  0.00  0.00     0.259 C 
ATOM      9  O   UNL d   1     -50.037  14.431  22.370  0.00  0.00    -0.270 OA
BRANCH   8  10
ATOM     10  C   UNL d   1     -49.286  13.271  22.702  0.00  0.00     0.092 A 
ATOM     11  C   UNL d   1     -49.161  12.735  23.316  0.00  0.00     0.017 A 
ATOM     12  C   UNL d   1     -49.257  11.970  23.164  0.00  0.00     0.023 A 
ATOM     13  C   UNL d   1     -49.074  12.544  23.693  0.00  0.00    -0.027 A 
ATOM     14  C   UNL d   1     -49.478  11.713  22.408  0.00  0.00     0.009 A 
ATOM     15  C   UNL d   1     -49.199  13.079  23.078  0.00  0.00    -0.012 A 
ATOM     16  C   UNL d   1     -49.103  13.872  23.220  0.00  0.00    -0.018 A 
ATOM     17  C   UNL d   1     -49.419  12.798  22.333  0.00  0.00    -0.027 A 
ATOM     18  C   UNL d   1     -49.587  12.223  21.863  0.00  0.00     0.023 A 
ATOM     19  C   UNL d   1     -49.505  12.989  21.958  0.00  0.00     0.017 A 
ENDBRANCH   8  10
ENDBRANCH   2   7
BRANCH   1  20
ATOM     20  C   UNL d   1     -45.697  12.914  22.593  0.00  0.00     0.196 C 
ATOM     21  O   UNL d   1     -45.570  12.450  23.237  0.00  0.00    -0.287 OA
BRANCH  20  22
ATOM     22  C   UNL d   1     -45.120  13.007  22.013  0.00  0.00     0.044 C 
BRANCH  22  23
ATOM     23  C   UNL d   1     -44.405  12.592  22.065  0.00  0.00     0.028 C 
BRANCH  23  24
ATOM     24  C   UNL d   1     -43.741  12.865  21.657  0.00  0.00     0.100 A 
ATOM     25  O   UNL d   1     -43.155  13.356  21.931  0.00  0.00    -0.305 OA
ATOM     26  C   UNL d   1     -42.612  13.482  21.351  0.00  0.00     0.123 A 
ATOM     27  C   UNL d   1     -42.852  13.060  20.684  0.00  0.00     0.029 A 
ATOM     28  C   UNL d   1     -43.566  12.666  20.869  0.00  0.00     0.027 A 
ENDBRANCH  23  24
ENDBRANCH  22  23
ENDBRANCH  20  22
ENDBRANCH   1  20
TORSDOF 6
ENDMDL
