MODEL 1
REMARK VINA RESULT:      30.5      0.000      0.000
REMARK  4 active torsions:
REMARK  status: ('A' for Active; 'I' for Inactive)
REMARK    1  A    between atoms: C_7  and  C_3 
REMARK       I    between atoms: N_13  and  C_7 
REMARK    2  A    between atoms: C_14  and  N_13 
REMARK    3  A    between atoms: C_16  and  C_14 
REMARK    4  A    between atoms: C_15  and  C_16 
ROOT
ATOM      1  C   UNL d   1      13.559  12.361  -3.240  0.00  0.00     0.285 C 
ATOM      2  O   UNL d   1      13.828  11.823  -3.790  0.00  0.00    -0.265 OA
ATOM      3  N   UNL d   1      13.192  13.055  -3.484  0.00  0.00    -0.206 NA
ENDROOT
BRANCH   1   4
ATOM      4  C   UNL d   1      13.651  12.217  -2.430  0.00  0.00     0.133 A 
ATOM      5  C   UNL d   1      14.379  12.371  -2.074  0.00  0.00     0.272 A 
ATOM      6  N   UNL d   1      14.485  12.231  -1.264  0.00  0.00    -0.265 N 
ATOM      7  O   UNL d   1      15.008  12.663  -2.517  0.00  0.00    -0.266 OA
ATOM      8  C   UNL d   1      13.857  11.938  -0.821  0.00  0.00     0.181 A 
ATOM      9  C   UNL d   1      15.127  12.327  -0.769  0.00  0.00     0.123 A 
ATOM     10  N   UNL d   1      13.131  11.785  -1.174  0.00  0.00    -0.220 NA
ATOM     11  S   UNL d   1      14.112  11.852  -0.042  0.00  0.00    -0.049 SA
ATOM     12  C   UNL d   1      13.027  11.925  -1.980  0.00  0.00     0.111 A 
ATOM     13  C   UNL d   1      14.907  12.097  -0.015  0.00  0.00     0.043 A 
ENDBRANCH   1   4
BRANCH   3  14
ATOM     14  C   UNL d   1      13.096  13.207  -4.285  0.00  0.00     0.102 C 
BRANCH  14  15
ATOM     15  C   UNL d   1      12.792  13.929  -4.548  0.00  0.00     0.021 C 
BRANCH  15  16
ATOM     16  C   UNL d   1      13.284  14.592  -4.608  0.00  0.00     0.002 A 
ATOM     17  C   UNL d   1      13.492  15.010  -3.927  0.00  0.00     0.000 A 
ATOM     18  C   UNL d   1      13.978  15.665  -3.987  0.00  0.00     0.000 A 
ATOM     19  C   UNL d   1      14.266  15.914  -4.731  0.00  0.00     0.000 A 
ATOM     20  C   UNL d   1      14.054  15.492  -5.401  0.00  0.00     0.000 A 
ATOM     21  C   UNL d   1      13.565  14.832  -5.349  0.00  0.00     0.000 A 
ENDBRANCH  15  16
ENDBRANCH  14  15
ENDBRANCH   3  14
TORSDOF 4
ENDMDL
MODEL 2
REMARK VINA RESULT:      31.3      1.822      4.038
REMARK  4 active torsions:
REMARK  status: ('A' for Active; 'I' for Inactive)
REMARK    1  A    between atoms: C_7  and  C_3 
REMARK       I    between atoms: N_13  and  C_7 
REMARK    2  A    between atoms: C_14  and  N_13 
REMARK    3  A    between atoms: C_16  and  C_14 
REMARK    4  A    between atoms: C_15  and  C_16 
ROOT
ATOM      1  C   UNL d   1      13.475  12.109  -2.427  0.00  0.00     0.285 C 
ATOM      2  O   UNL d   1      12.813  11.858  -2.023  0.00  0.00    -0.265 OA
ATOM      3  N   UNL d   1      14.197  12.172  -2.040  0.00  0.00    -0.206 NA
ENDROOT
BRANCH   1   4
ATOM      4  C   UNL d   1      13.429  12.304  -3.230  0.00  0.00     0.133 A 
ATOM      5  C   UNL d   1      13.106  13.031  -3.451  0.00  0.00     0.272 A 
ATOM      6  N   UNL d   1      13.054  13.238  -4.251  0.00  0.00    -0.265 N 
ATOM      7  O   UNL d   1      12.832  13.557  -2.880  0.00  0.00    -0.266 OA
ATOM      8  C   UNL d   1      13.328  12.712  -4.822  0.00  0.00     0.181 A 
ATOM      9  C   UNL d   1      12.769  13.903  -4.630  0.00  0.00     0.123 A 
ATOM     10  N   UNL d   1      13.650  11.989  -4.603  0.00  0.00    -0.220 NA
ATOM     11  S   UNL d   1      13.211  13.055  -5.561  0.00  0.00    -0.049 SA
ATOM     12  C   UNL d   1      13.701  11.783  -3.806  0.00  0.00     0.111 A 
ATOM     13  C   UNL d   1      12.861  13.799  -5.436  0.00  0.00     0.043 A 
ENDBRANCH   1   4
BRANCH   3  14
ATOM     14  C   UNL d   1      14.253  11.981  -1.243  0.00  0.00     0.102 C 
BRANCH  14  15
ATOM     15  C   UNL d   1      14.156  12.557  -0.659  0.00  0.00     0.021 C 
BRANCH  15  16
ATOM     16  C   UNL d   1      14.787  13.049  -0.448  0.00  0.00     0.002 A 
ATOM     17  C   UNL d   1      14.657  13.857  -0.338  0.00  0.00     0.000 A 
ATOM     18  C   UNL d   1      15.282  14.342  -0.129  0.00  0.00     0.000 A 
ATOM     19  C   UNL d   1      16.049  14.027  -0.027  0.00  0.00     0.000 A 
ATOM     20  C   UNL d   1      16.168  13.223  -0.138  0.00  0.00     0.000 A 
ATOM     21  C   UNL d   1      15.544  12.728  -0.348  0.00  0.00     0.000 A 
ENDBRANCH  15  16
ENDBRANCH  14  15
ENDBRANCH   3  14
TORSDOF 4
ENDMDL
MODEL 3
REMARK VINA RESULT:      33.5      1.616      2.162
REMARK  4 active torsions:
REMARK  status: ('A' for Active; 'I' for Inactive)
REMARK    1  A    between atoms: C_7  and  C_3 
REMARK       I    between atoms: N_13  and  C_7 
REMARK    2  A    between atoms: C_14  and  N_13 
REMARK    3  A    between atoms: C_16  and  C_14 
REMARK    4  A    between atoms: C_15  and  C_16 
ROOT
ATOM      1  C   UNL d   1      13.611  12.497  -2.367  0.00  0.00     0.285 C 
ATOM      2  O   UNL d   1      13.007  13.041  -2.421  0.00  0.00    -0.265 OA
ATOM      3  N   UNL d   1      13.651  11.867  -2.893  0.00  0.00    -0.206 NA
ENDROOT
BRANCH   1   4
ATOM      4  C   UNL d   1      14.192  12.571  -1.783  0.00  0.00     0.133 A 
ATOM      5  C   UNL d   1      14.394  13.323  -1.508  0.00  0.00     0.272 A 
ATOM      6  N   UNL d   1      14.974  13.411  -0.923  0.00  0.00    -0.265 N 
ATOM      7  O   UNL d   1      14.023  13.992  -1.811  0.00  0.00    -0.266 OA
ATOM      8  C   UNL d   1      15.346  12.742  -0.620  0.00  0.00     0.181 A 
ATOM      9  C   UNL d   1      15.284  14.068  -0.551  0.00  0.00     0.123 A 
ATOM     10  N   UNL d   1      15.145  11.994  -0.892  0.00  0.00    -0.220 NA
ATOM     11  S   UNL d   1      15.891  12.988  -0.054  0.00  0.00    -0.049 SA
ATOM     12  C   UNL d   1      14.568  11.907  -1.475  0.00  0.00     0.111 A 
ATOM     13  C   UNL d   1      15.849  13.818  -0.014  0.00  0.00     0.043 A 
ENDBRANCH   1   4
BRANCH   3  14
ATOM     14  C   UNL d   1      13.079  11.784  -3.477  0.00  0.00     0.102 C 
BRANCH  14  15
ATOM     15  C   UNL d   1      12.854  12.425  -3.947  0.00  0.00     0.021 C 
BRANCH  15  16
ATOM     16  C   UNL d   1      13.101  12.472  -4.736  0.00  0.00     0.002 A 
ATOM     17  C   UNL d   1      13.264  11.779  -5.155  0.00  0.00     0.000 A 
ATOM     18  C   UNL d   1      13.509  11.827  -5.934  0.00  0.00     0.000 A 
ATOM     19  C   UNL d   1      13.595  12.568  -6.308  0.00  0.00     0.000 A 
ATOM     20  C   UNL d   1      13.430  13.250  -5.884  0.00  0.00     0.000 A 
ATOM     21  C   UNL d   1      13.184  13.211  -5.099  0.00  0.00     0.000 A 
ENDBRANCH  15  16
ENDBRANCH  14  15
ENDBRANCH   3  14
TORSDOF 4
ENDMDL
