MODEL 1
REMARK VINA RESULT:      61.2      0.000      0.000
REMARK  2 active torsions:
REMARK  status: ('A' for Active; 'I' for Inactive)
REMARK    1  A    between atoms: S_12  and  C_3 
REMARK    2  A    between atoms: C_14  and  S_12 
ROOT
ATOM      1  N   UNL d   1      58.797  49.270  55.250  0.00  0.00    -0.195 NA
ATOM      2  C   UNL d   1      59.111  49.330  54.491  0.00  0.00     0.086 C 
ATOM      3  C   UNL d   1      59.436  49.386  53.735  0.00  0.00     0.170 C 
ENDROOT
BRANCH   3   4
ATOM      4  S   UNL d   1      58.978  49.695  53.122  0.00  0.00    -0.060 SA
BRANCH   4   5
ATOM      5  C   UNL d   1      59.269  49.692  52.347  0.00  0.00     0.177 A 
ATOM      6  N   UNL d   1      58.745  49.692  51.711  0.00  0.00    -0.270 N 
ATOM      7  C   UNL d   1      59.023  49.689  50.935  0.00  0.00     0.151 A 
ATOM      8  C   UNL d   1      57.916  49.694  51.671  0.00  0.00     0.085 A 
ATOM      9  N   UNL d   1      58.383  49.690  50.422  0.00  0.00    -0.227 NA
ATOM     10  C   UNL d   1      59.841  49.687  50.807  0.00  0.00     0.052 A 
ATOM     11  C   UNL d   1      57.696  49.693  50.875  0.00  0.00     0.099 A 
ATOM     12  C   UNL d   1      56.900  49.695  50.671  0.00  0.00     0.021 A 
ATOM     13  C   UNL d   1      56.326  49.698  51.262  0.00  0.00     0.002 A 
ATOM     14  C   UNL d   1      56.545  49.699  52.057  0.00  0.00     0.002 A 
ATOM     15  C   UNL d   1      57.342  49.697  52.258  0.00  0.00     0.019 A 
ATOM     16  C   UNL d   1      60.128  49.684  50.035  0.00  0.00     0.004 A 
ATOM     17  C   UNL d   1      60.366  49.687  51.443  0.00  0.00     0.086 A 
ATOM     18  C   UNL d   1      60.945  49.681  49.896  0.00  0.00     0.000 A 
ATOM     19  C   UNL d   1      61.470  49.681  50.533  0.00  0.00     0.002 A 
ATOM     20  C   UNL d   1      61.178  49.684  51.308  0.00  0.00     0.019 A 
ATOM     21  N   UNL d   1      60.078  49.689  52.215  0.00  0.00    -0.222 NA
ENDBRANCH   4   5
ENDBRANCH   3   4
TORSDOF 2
ENDMDL
