MODEL 1
REMARK VINA RESULT:      -9.9      0.000      0.000
REMARK  3 active torsions:
REMARK  status: ('A' for Active; 'I' for Inactive)
REMARK    1  A    between atoms: C_8  and  C_4 
REMARK    2  A    between atoms: N_5  and  C_7 
REMARK    3  A    between atoms: C_12  and  C_6 
ROOT
ATOM      1  O   UNL d   1      53.122  32.393  53.787  0.00  0.00    -0.268 OA
ATOM      2  N   UNL d   1      54.380  31.997  53.573  0.00  0.00    -0.121 NA
ATOM      3  N   UNL d   1      54.393  32.810  53.713  0.00  0.00    -0.121 NA
ATOM      4  C   UNL d   1      53.605  31.739  53.617  0.00  0.00     0.204 A 
ATOM      5  C   UNL d   1      53.618  33.059  53.846  0.00  0.00     0.204 A 
ENDROOT
BRANCH   4   6
ATOM      6  C   UNL d   1      53.335  30.962  53.513  0.00  0.00     0.045 A 
ATOM      7  C   UNL d   1      53.448  30.403  54.109  0.00  0.00     0.027 A 
ATOM      8  C   UNL d   1      53.180  29.634  54.002  0.00  0.00     0.127 A 
ATOM      9  C   UNL d   1      52.798  29.421  53.300  0.00  0.00     0.024 A 
ATOM     10  C   UNL d   1      52.685  29.976  52.706  0.00  0.00     0.002 A 
ATOM     11  C   UNL d   1      52.953  30.749  52.812  0.00  0.00     0.004 A 
BRANCH   8  12
ATOM     12  N   UNL d   1      53.296  29.073  54.607  0.00  0.00    -0.114 N 
ATOM     13  O   UNL d   1      52.933  29.183  55.348  0.00  0.00    -0.532 OA
ATOM     14  O   UNL d   1      53.769  28.409  54.476  0.00  0.00    -0.532 OA
ENDBRANCH   8  12
ENDBRANCH   4   6
BRANCH   5  15
ATOM     15  C   UNL d   1      53.379  33.829  54.007  0.00  0.00     0.043 A 
ATOM     16  C   UNL d   1      53.539  34.166  54.741  0.00  0.00     0.004 A 
ATOM     17  C   UNL d   1      53.297  34.943  54.901  0.00  0.00     0.000 A 
ATOM     18  C   UNL d   1      52.896  35.376  54.325  0.00  0.00     0.000 A 
ATOM     19  C   UNL d   1      52.738  35.029  53.589  0.00  0.00     0.000 A 
ATOM     20  C   UNL d   1      52.976  34.259  53.424  0.00  0.00     0.004 A 
ENDBRANCH   5  15
TORSDOF 3
ENDMDL
MODEL 2
REMARK VINA RESULT:      -9.8      1.451      4.457
REMARK  3 active torsions:
REMARK  status: ('A' for Active; 'I' for Inactive)
REMARK    1  A    between atoms: C_8  and  C_4 
REMARK    2  A    between atoms: N_5  and  C_7 
REMARK    3  A    between atoms: C_12  and  C_6 
ROOT
ATOM      1  O   UNL d   1      52.917  32.185  53.548  0.00  0.00    -0.268 OA
ATOM      2  N   UNL d   1      54.128  32.710  53.347  0.00  0.00    -0.121 NA
ATOM      3  N   UNL d   1      54.209  31.890  53.357  0.00  0.00    -0.121 NA
ATOM      4  C   UNL d   1      53.339  32.895  53.463  0.00  0.00     0.204 A 
ATOM      5  C   UNL d   1      53.463  31.560  53.481  0.00  0.00     0.204 A 
ENDROOT
BRANCH   4   6
ATOM      6  C   UNL d   1      53.007  33.653  53.493  0.00  0.00     0.045 A 
ATOM      7  C   UNL d   1      53.204  34.166  54.109  0.00  0.00     0.027 A 
ATOM      8  C   UNL d   1      52.873  34.917  54.135  0.00  0.00     0.127 A 
ATOM      9  C   UNL d   1      52.344  35.159  53.547  0.00  0.00     0.024 A 
ATOM     10  C   UNL d   1      52.147  34.650  52.934  0.00  0.00     0.002 A 
ATOM     11  C   UNL d   1      52.479  33.895  52.905  0.00  0.00     0.004 A 
BRANCH   8  12
ATOM     12  N   UNL d   1      53.075  35.431  54.759  0.00  0.00    -0.114 N 
ATOM     13  O   UNL d   1      53.059  36.255  54.638  0.00  0.00    -0.532 OA
ATOM     14  O   UNL d   1      53.290  35.128  55.497  0.00  0.00    -0.532 OA
ENDBRANCH   8  12
ENDBRANCH   4   6
BRANCH   5  15
ATOM     15  C   UNL d   1      53.292  30.758  53.530  0.00  0.00     0.043 A 
ATOM     16  C   UNL d   1      53.521  30.326  54.191  0.00  0.00     0.004 A 
ATOM     17  C   UNL d   1      53.346  29.516  54.237  0.00  0.00     0.000 A 
ATOM     18  C   UNL d   1      52.943  29.146  53.621  0.00  0.00     0.000 A 
ATOM     19  C   UNL d   1      52.716  29.588  52.958  0.00  0.00     0.000 A 
ATOM     20  C   UNL d   1      52.886  30.392  52.906  0.00  0.00     0.004 A 
ENDBRANCH   5  15
TORSDOF 3
ENDMDL
MODEL 3
REMARK VINA RESULT:      -8.7      2.235      2.820
REMARK  3 active torsions:
REMARK  status: ('A' for Active; 'I' for Inactive)
REMARK    1  A    between atoms: C_8  and  C_4 
REMARK    2  A    between atoms: N_5  and  C_7 
REMARK    3  A    between atoms: C_12  and  C_6 
ROOT
ATOM      1  O   UNL d   1      51.675  33.163  52.947  0.00  0.00    -0.268 OA
ATOM      2  N   UNL d   1      52.771  33.911  53.095  0.00  0.00    -0.121 NA
ATOM      3  N   UNL d   1      52.156  34.411  52.867  0.00  0.00    -0.121 NA
ATOM      4  C   UNL d   1      52.481  33.147  53.145  0.00  0.00     0.204 A 
ATOM      5  C   UNL d   1      51.476  33.953  52.775  0.00  0.00     0.204 A 
ENDROOT
BRANCH   4   6
ATOM      6  C   UNL d   1      52.907  32.469  53.355  0.00  0.00     0.045 A 
ATOM      7  C   UNL d   1      52.693  31.735  53.046  0.00  0.00     0.027 A 
ATOM      8  C   UNL d   1      53.118  31.064  53.256  0.00  0.00     0.127 A 
ATOM      9  C   UNL d   1      53.758  31.123  53.776  0.00  0.00     0.024 A 
ATOM     10  C   UNL d   1      53.973  31.854  54.084  0.00  0.00     0.002 A 
ATOM     11  C   UNL d   1      53.548  32.528  53.874  0.00  0.00     0.004 A 
BRANCH   8  12
ATOM     12  N   UNL d   1      52.897  30.325  52.942  0.00  0.00    -0.114 N 
ATOM     13  O   UNL d   1      52.606  29.730  53.447  0.00  0.00    -0.532 OA
ATOM     14  O   UNL d   1      52.964  30.178  52.131  0.00  0.00    -0.532 OA
ENDBRANCH   8  12
ENDBRANCH   4   6
BRANCH   5  15
ATOM     15  C   UNL d   1      50.735  34.229  52.552  0.00  0.00     0.043 A 
ATOM     16  C   UNL d   1      50.483  34.152  51.772  0.00  0.00     0.004 A 
ATOM     17  C   UNL d   1      49.733  34.432  51.551  0.00  0.00     0.000 A 
ATOM     18  C   UNL d   1      49.244  34.786  52.111  0.00  0.00     0.000 A 
ATOM     19  C   UNL d   1      49.505  34.860  52.894  0.00  0.00     0.000 A 
ATOM     20  C   UNL d   1      50.247  34.585  53.121  0.00  0.00     0.004 A 
ENDBRANCH   5  15
TORSDOF 3
ENDMDL
MODEL 4
REMARK VINA RESULT:      -8.6      2.320      3.420
REMARK  3 active torsions:
REMARK  status: ('A' for Active; 'I' for Inactive)
REMARK    1  A    between atoms: C_8  and  C_4 
REMARK    2  A    between atoms: N_5  and  C_7 
REMARK    3  A    between atoms: C_12  and  C_6 
ROOT
ATOM      1  O   UNL d   1      51.729  33.551  53.045  0.00  0.00    -0.268 OA
ATOM      2  N   UNL d   1      52.739  34.405  52.863  0.00  0.00    -0.121 NA
ATOM      3  N   UNL d   1      52.055  34.760  52.570  0.00  0.00    -0.121 NA
ATOM      4  C   UNL d   1      52.544  33.666  53.154  0.00  0.00     0.204 A 
ATOM      5  C   UNL d   1      51.428  34.236  52.680  0.00  0.00     0.204 A 
ENDROOT
BRANCH   4   6
ATOM      6  C   UNL d   1      53.060  33.118  53.500  0.00  0.00     0.045 A 
ATOM      7  C   UNL d   1      53.532  33.341  54.139  0.00  0.00     0.027 A 
ATOM      8  C   UNL d   1      54.042  32.795  54.479  0.00  0.00     0.127 A 
ATOM      9  C   UNL d   1      54.083  32.024  54.184  0.00  0.00     0.024 A 
ATOM     10  C   UNL d   1      53.614  31.799  53.548  0.00  0.00     0.002 A 
ATOM     11  C   UNL d   1      53.101  32.346  53.205  0.00  0.00     0.004 A 
BRANCH   8  12
ATOM     12  N   UNL d   1      54.516  33.026  55.124  0.00  0.00    -0.114 N 
ATOM     13  O   UNL d   1      54.313  32.784  55.895  0.00  0.00    -0.532 OA
ATOM     14  O   UNL d   1      55.187  33.493  55.004  0.00  0.00    -0.532 OA
ENDBRANCH   8  12
ENDBRANCH   4   6
BRANCH   5  15
ATOM     15  C   UNL d   1      50.645  34.369  52.467  0.00  0.00     0.043 A 
ATOM     16  C   UNL d   1      50.389  34.191  51.705  0.00  0.00     0.004 A 
ATOM     17  C   UNL d   1      49.598  34.326  51.493  0.00  0.00     0.000 A 
ATOM     18  C   UNL d   1      49.071  34.637  52.045  0.00  0.00     0.000 A 
ATOM     19  C   UNL d   1      49.337  34.813  52.810  0.00  0.00     0.000 A 
ATOM     20  C   UNL d   1      50.120  34.682  53.027  0.00  0.00     0.004 A 
ENDBRANCH   5  15
TORSDOF 3
ENDMDL
MODEL 5
REMARK VINA RESULT:      -7.7      2.913      4.611
REMARK  3 active torsions:
REMARK  status: ('A' for Active; 'I' for Inactive)
REMARK    1  A    between atoms: C_8  and  C_4 
REMARK    2  A    between atoms: N_5  and  C_7 
REMARK    3  A    between atoms: C_12  and  C_6 
ROOT
ATOM      1  O   UNL d   1      52.117  33.846  53.555  0.00  0.00    -0.268 OA
ATOM      2  N   UNL d   1      52.354  35.063  53.059  0.00  0.00    -0.121 NA
ATOM      3  N   UNL d   1      53.013  34.841  53.504  0.00  0.00    -0.121 NA
ATOM      4  C   UNL d   1      51.805  34.457  53.088  0.00  0.00     0.204 A 
ATOM      5  C   UNL d   1      52.871  34.089  53.813  0.00  0.00     0.204 A 
ENDROOT
BRANCH   4   6
ATOM      6  C   UNL d   1      51.063  34.444  52.720  0.00  0.00     0.045 A 
ATOM      7  C   UNL d   1      50.434  34.867  53.044  0.00  0.00     0.027 A 
ATOM      8  C   UNL d   1      49.700  34.851  52.675  0.00  0.00     0.127 A 
ATOM      9  C   UNL d   1      49.591  34.413  51.982  0.00  0.00     0.024 A 
ATOM     10  C   UNL d   1      50.217  33.991  51.658  0.00  0.00     0.002 A 
ATOM     11  C   UNL d   1      50.955  34.006  52.026  0.00  0.00     0.004 A 
BRANCH   8  12
ATOM     12  N   UNL d   1      49.067  35.280  53.007  0.00  0.00    -0.114 N 
ATOM     13  O   UNL d   1      48.334  35.305  52.613  0.00  0.00    -0.532 OA
ATOM     14  O   UNL d   1      49.163  35.680  53.723  0.00  0.00    -0.532 OA
ENDBRANCH   8  12
ENDBRANCH   4   6
BRANCH   5  15
ATOM     15  C   UNL d   1      53.383  33.659  54.290  0.00  0.00     0.043 A 
ATOM     16  C   UNL d   1      53.803  34.034  54.889  0.00  0.00     0.004 A 
ATOM     17  C   UNL d   1      54.320  33.596  55.369  0.00  0.00     0.000 A 
ATOM     18  C   UNL d   1      54.411  32.787  55.244  0.00  0.00     0.000 A 
ATOM     19  C   UNL d   1      53.984  32.416  54.639  0.00  0.00     0.000 A 
ATOM     20  C   UNL d   1      53.470  32.844  54.159  0.00  0.00     0.004 A 
ENDBRANCH   5  15
TORSDOF 3
ENDMDL
MODEL 6
REMARK VINA RESULT:      -7.2      2.574      3.877
REMARK  3 active torsions:
REMARK  status: ('A' for Active; 'I' for Inactive)
REMARK    1  A    between atoms: C_8  and  C_4 
REMARK    2  A    between atoms: N_5  and  C_7 
REMARK    3  A    between atoms: C_12  and  C_6 
ROOT
ATOM      1  O   UNL d   1      51.336  34.249  53.136  0.00  0.00    -0.268 OA
ATOM      2  N   UNL d   1      51.282  32.971  53.520  0.00  0.00    -0.121 NA
ATOM      3  N   UNL d   1      50.559  33.158  53.171  0.00  0.00    -0.121 NA
ATOM      4  C   UNL d   1      51.760  33.635  53.500  0.00  0.00     0.204 A 
ATOM      5  C   UNL d   1      50.587  33.947  52.932  0.00  0.00     0.204 A 
ENDROOT
BRANCH   4   6
ATOM      6  C   UNL d   1      52.534  33.697  53.790  0.00  0.00     0.045 A 
ATOM      7  C   UNL d   1      53.097  33.129  53.587  0.00  0.00     0.027 A 
ATOM      8  C   UNL d   1      53.863  33.194  53.876  0.00  0.00     0.127 A 
ATOM      9  C   UNL d   1      54.070  33.825  54.369  0.00  0.00     0.024 A 
ATOM     10  C   UNL d   1      53.510  34.391  54.572  0.00  0.00     0.002 A 
ATOM     11  C   UNL d   1      52.740  34.328  54.282  0.00  0.00     0.004 A 
BRANCH   8  12
ATOM     12  N   UNL d   1      54.428  32.618  53.669  0.00  0.00    -0.114 N 
ATOM     13  O   UNL d   1      54.312  31.825  53.895  0.00  0.00    -0.532 OA
ATOM     14  O   UNL d   1      55.102  32.829  53.240  0.00  0.00    -0.532 OA
ENDBRANCH   8  12
ENDBRANCH   4   6
BRANCH   5  15
ATOM     15  C   UNL d   1      49.983  34.361  52.559  0.00  0.00     0.043 A 
ATOM     16  C   UNL d   1      49.493  34.858  52.995  0.00  0.00     0.004 A 
ATOM     17  C   UNL d   1      48.883  35.275  52.615  0.00  0.00     0.000 A 
ATOM     18  C   UNL d   1      48.770  35.189  51.803  0.00  0.00     0.000 A 
ATOM     19  C   UNL d   1      49.268  34.686  51.371  0.00  0.00     0.000 A 
ATOM     20  C   UNL d   1      49.874  34.270  51.742  0.00  0.00     0.004 A 
ENDBRANCH   5  15
TORSDOF 3
ENDMDL
