MODEL 1
REMARK VINA RESULT:      -6.0      0.000      0.000
REMARK  4 active torsions:
REMARK  status: ('A' for Active; 'I' for Inactive)
REMARK    1  A    between atoms: N_11  and  C_4 
REMARK    2  A    between atoms: C_22  and  N_15 
REMARK    3  A    between atoms: O_29  and  C_17 
REMARK    4  A    between atoms: C_21  and  C_22 
ROOT
ATOM      1  N   UNL d   1     -45.274  12.188  22.777  0.00  0.00    -0.195 N 
ATOM      2  C   UNL d   1     -44.529  11.921  22.623  0.00  0.00     0.168 A 
ATOM      3  C   UNL d   1     -44.033  12.345  22.170  0.00  0.00     0.073 A 
ATOM      4  C   UNL d   1     -45.756  11.752  23.231  0.00  0.00     0.153 A 
ATOM      5  N   UNL d   1     -45.029  13.305  22.028  0.00  0.00    -0.143 NA
ATOM      6  C   UNL d   1     -44.285  13.038  21.873  0.00  0.00     0.185 A 
ATOM      7  N   UNL d   1     -44.287  11.225  22.926  0.00  0.00    -0.227 NA
ATOM      8  C   UNL d   1     -43.297  12.081  22.017  0.00  0.00     0.007 A 
ATOM      9  N   UNL d   1     -43.794  13.479  21.413  0.00  0.00    -0.225 NA
ATOM     10  C   UNL d   1     -45.521  11.062  23.534  0.00  0.00     0.057 A 
ATOM     11  C   UNL d   1     -42.800  12.506  21.564  0.00  0.00     0.019 A 
ATOM     12  C   UNL d   1     -44.776  10.795  23.379  0.00  0.00     0.086 A 
ATOM     13  C   UNL d   1     -43.049  13.212  21.258  0.00  0.00     0.083 A 
ATOM     14  C   UNL d   1     -43.054  11.382  22.322  0.00  0.00     0.000 C 
ATOM     15  C   UNL d   1     -44.527  10.070  23.696  0.00  0.00     0.021 C 
ATOM     16  C   UNL d   1     -42.560  13.639  20.807  0.00  0.00     0.021 C 
ENDROOT
BRANCH   4  17
ATOM     17  N   UNL d   1     -46.522  12.034  23.386  0.00  0.00    -0.286 N 
ATOM     18  C   UNL d   1     -46.921  12.734  23.593  0.00  0.00     0.101 A 
ATOM     19  C   UNL d   1     -47.741  12.740  23.690  0.00  0.00     0.100 A 
ATOM     20  N   UNL d   1     -48.166  12.033  23.579  0.00  0.00    -0.300 N 
ATOM     21  C   UNL d   1     -47.782  11.340  23.375  0.00  0.00     0.100 A 
ATOM     22  C   UNL d   1     -46.955  11.332  23.276  0.00  0.00     0.101 A 
BRANCH  20  23
ATOM     23  C   UNL d   1     -48.977  12.035  23.675  0.00  0.00     0.080 C 
BRANCH  23  24
ATOM     24  C   UNL d   1     -49.476  12.394  23.105  0.00  0.00     0.020 A 
ATOM     25  C   UNL d   1     -49.571  12.065  22.354  0.00  0.00     0.033 A 
ATOM     26  C   UNL d   1     -50.069  12.424  21.789  0.00  0.00     0.162 A 
ATOM     27  F   UNL d   1     -50.162  12.092  21.038  0.00  0.00    -0.202 F 
ATOM     28  C   UNL d   1     -50.473  13.125  21.991  0.00  0.00     0.121 A 
ATOM     29  C   UNL d   1     -50.385  13.464  22.742  0.00  0.00     0.027 A 
ATOM     30  C   UNL d   1     -49.889  13.105  23.303  0.00  0.00     0.004 A 
BRANCH  28  31
ATOM     31  O   UNL d   1     -50.968  13.484  21.432  0.00  0.00    -0.326 OA
ATOM     32  C   UNL d   1     -50.847  14.268  21.206  0.00  0.00     0.181 C 
ENDBRANCH  28  31
ENDBRANCH  23  24
ENDBRANCH  20  23
ENDBRANCH   4  17
TORSDOF 4
ENDMDL
MODEL 2
REMARK VINA RESULT:      -4.6      2.731      6.131
REMARK  4 active torsions:
REMARK  status: ('A' for Active; 'I' for Inactive)
REMARK    1  A    between atoms: N_11  and  C_4 
REMARK    2  A    between atoms: C_22  and  N_15 
REMARK    3  A    between atoms: O_29  and  C_17 
REMARK    4  A    between atoms: C_21  and  C_22 
ROOT
ATOM      1  N   UNL d   1     -46.856  12.822  22.850  0.00  0.00    -0.195 N 
ATOM      2  C   UNL d   1     -47.575  13.158  22.991  0.00  0.00     0.168 A 
ATOM      3  C   UNL d   1     -48.205  12.709  23.168  0.00  0.00     0.073 A 
ATOM      4  C   UNL d   1     -46.238  13.286  22.675  0.00  0.00     0.153 A 
ATOM      5  N   UNL d   1     -47.395  11.583  23.063  0.00  0.00    -0.143 NA
ATOM      6  C   UNL d   1     -48.114  11.920  23.203  0.00  0.00     0.185 A 
ATOM      7  N   UNL d   1     -47.655  13.951  22.952  0.00  0.00    -0.227 NA
ATOM      8  C   UNL d   1     -48.916  13.042  23.306  0.00  0.00     0.007 A 
ATOM      9  N   UNL d   1     -48.743  11.452  23.381  0.00  0.00    -0.225 NA
ATOM     10  C   UNL d   1     -46.313  14.071  22.636  0.00  0.00     0.057 A 
ATOM     11  C   UNL d   1     -49.546  12.592  23.483  0.00  0.00     0.019 A 
ATOM     12  C   UNL d   1     -47.031  14.407  22.776  0.00  0.00     0.086 A 
ATOM     13  C   UNL d   1     -49.461  11.788  23.522  0.00  0.00     0.083 A 
ATOM     14  C   UNL d   1     -48.996  13.837  23.268  0.00  0.00     0.000 C 
ATOM     15  C   UNL d   1     -47.111  15.232  22.735  0.00  0.00     0.021 C 
ATOM     16  C   UNL d   1     -50.085  11.335  23.697  0.00  0.00     0.021 C 
ENDROOT
BRANCH   4  17
ATOM     17  N   UNL d   1     -45.500  12.931  22.532  0.00  0.00    -0.286 N 
ATOM     18  C   UNL d   1     -44.955  12.413  22.887  0.00  0.00     0.101 A 
ATOM     19  C   UNL d   1     -44.253  12.212  22.502  0.00  0.00     0.100 A 
ATOM     20  N   UNL d   1     -44.096  12.534  21.752  0.00  0.00    -0.300 N 
ATOM     21  C   UNL d   1     -44.626  13.044  21.395  0.00  0.00     0.100 A 
ATOM     22  C   UNL d   1     -45.335  13.249  21.780  0.00  0.00     0.101 A 
BRANCH  20  23
ATOM     23  C   UNL d   1     -43.402  12.337  21.369  0.00  0.00     0.080 C 
BRANCH  23  24
ATOM     24  C   UNL d   1     -42.773  12.887  21.308  0.00  0.00     0.020 A 
ATOM     25  C   UNL d   1     -42.099  12.818  21.780  0.00  0.00     0.033 A 
ATOM     26  C   UNL d   1     -41.474  13.367  21.718  0.00  0.00     0.162 A 
ATOM     27  F   UNL d   1     -40.801  13.295  22.192  0.00  0.00    -0.202 F 
ATOM     28  C   UNL d   1     -41.536  13.993  21.170  0.00  0.00     0.121 A 
ATOM     29  C   UNL d   1     -42.209  14.072  20.691  0.00  0.00     0.027 A 
ATOM     30  C   UNL d   1     -42.830  13.524  20.754  0.00  0.00     0.004 A 
BRANCH  28  31
ATOM     31  O   UNL d   1     -40.918  14.540  21.105  0.00  0.00    -0.326 OA
ATOM     32  C   UNL d   1     -41.063  15.309  20.843  0.00  0.00     0.181 C 
ENDBRANCH  28  31
ENDBRANCH  23  24
ENDBRANCH  20  23
ENDBRANCH   4  17
TORSDOF 4
ENDMDL
MODEL 3
REMARK VINA RESULT:      -4.3      1.247      2.432
REMARK  4 active torsions:
REMARK  status: ('A' for Active; 'I' for Inactive)
REMARK    1  A    between atoms: N_11  and  C_4 
REMARK    2  A    between atoms: C_22  and  N_15 
REMARK    3  A    between atoms: O_29  and  C_17 
REMARK    4  A    between atoms: C_21  and  C_22 
ROOT
ATOM      1  N   UNL d   1     -45.421  12.555  22.732  0.00  0.00    -0.195 N 
ATOM      2  C   UNL d   1     -44.720  12.190  22.576  0.00  0.00     0.168 A 
ATOM      3  C   UNL d   1     -44.574  11.459  22.852  0.00  0.00     0.073 A 
ATOM      4  C   UNL d   1     -45.550  13.285  22.448  0.00  0.00     0.153 A 
ATOM      5  N   UNL d   1     -45.835  11.461  23.439  0.00  0.00    -0.143 NA
ATOM      6  C   UNL d   1     -45.133  11.095  23.284  0.00  0.00     0.185 A 
ATOM      7  N   UNL d   1     -44.166  12.564  22.142  0.00  0.00    -0.227 NA
ATOM      8  C   UNL d   1     -43.880  11.098  22.698  0.00  0.00     0.007 A 
ATOM      9  N   UNL d   1     -45.000  10.356  23.570  0.00  0.00    -0.225 NA
ATOM     10  C   UNL d   1     -45.005  13.659  22.018  0.00  0.00     0.057 A 
ATOM     11  C   UNL d   1     -43.735  10.367  22.974  0.00  0.00     0.019 A 
ATOM     12  C   UNL d   1     -44.303  13.294  21.863  0.00  0.00     0.086 A 
ATOM     13  C   UNL d   1     -44.299   9.990  23.414  0.00  0.00     0.083 A 
ATOM     14  C   UNL d   1     -43.325  11.475  22.262  0.00  0.00     0.000 C 
ATOM     15  C   UNL d   1     -43.729  13.686  21.410  0.00  0.00     0.021 C 
ATOM     16  C   UNL d   1     -44.160   9.263  23.692  0.00  0.00     0.021 C 
ENDROOT
BRANCH   4  17
ATOM     17  N   UNL d   1     -46.276  13.654  22.613  0.00  0.00    -0.286 N 
ATOM     18  C   UNL d   1     -46.611  14.215  23.128  0.00  0.00     0.101 A 
ATOM     19  C   UNL d   1     -47.410  14.412  23.074  0.00  0.00     0.100 A 
ATOM     20  N   UNL d   1     -47.880  14.042  22.496  0.00  0.00    -0.300 N 
ATOM     21  C   UNL d   1     -47.559  13.489  21.986  0.00  0.00     0.100 A 
ATOM     22  C   UNL d   1     -46.753  13.288  22.038  0.00  0.00     0.101 A 
BRANCH  20  23
ATOM     23  C   UNL d   1     -48.672  14.235  22.440  0.00  0.00     0.080 C 
BRANCH  23  24
ATOM     24  C   UNL d   1     -49.265  13.688  22.667  0.00  0.00     0.020 A 
ATOM     25  C   UNL d   1     -49.575  13.148  22.126  0.00  0.00     0.033 A 
ATOM     26  C   UNL d   1     -50.166  12.604  22.355  0.00  0.00     0.162 A 
ATOM     27  F   UNL d   1     -50.475  12.064  21.810  0.00  0.00    -0.202 F 
ATOM     28  C   UNL d   1     -50.442  12.611  23.141  0.00  0.00     0.121 A 
ATOM     29  C   UNL d   1     -50.137  13.150  23.693  0.00  0.00     0.027 A 
ATOM     30  C   UNL d   1     -49.549  13.690  23.464  0.00  0.00     0.004 A 
BRANCH  28  31
ATOM     31  O   UNL d   1     -51.028  12.073  23.372  0.00  0.00    -0.326 OA
ATOM     32  C   UNL d   1     -50.823  11.343  23.698  0.00  0.00     0.181 C 
ENDBRANCH  28  31
ENDBRANCH  23  24
ENDBRANCH  20  23
ENDBRANCH   4  17
TORSDOF 4
ENDMDL
MODEL 4
REMARK VINA RESULT:      -4.3      2.472      5.953
REMARK  4 active torsions:
REMARK  status: ('A' for Active; 'I' for Inactive)
REMARK    1  A    between atoms: N_11  and  C_4 
REMARK    2  A    between atoms: C_22  and  N_15 
REMARK    3  A    between atoms: O_29  and  C_17 
REMARK    4  A    between atoms: C_21  and  C_22 
ROOT
ATOM      1  N   UNL d   1     -48.220  13.567  22.845  0.00  0.00    -0.195 N 
ATOM      2  C   UNL d   1     -49.010  13.724  22.877  0.00  0.00     0.168 A 
ATOM      3  C   UNL d   1     -49.528  13.158  23.081  0.00  0.00     0.073 A 
ATOM      4  C   UNL d   1     -47.717  14.145  22.639  0.00  0.00     0.153 A 
ATOM      5  N   UNL d   1     -48.462  12.275  23.223  0.00  0.00    -0.143 NA
ATOM      6  C   UNL d   1     -49.252  12.433  23.254  0.00  0.00     0.185 A 
ATOM      7  N   UNL d   1     -49.275  14.455  22.701  0.00  0.00    -0.227 NA
ATOM      8  C   UNL d   1     -50.309  13.313  23.112  0.00  0.00     0.007 A 
ATOM      9  N   UNL d   1     -49.764  11.849  23.462  0.00  0.00    -0.225 NA
ATOM     10  C   UNL d   1     -47.976  14.869  22.465  0.00  0.00     0.057 A 
ATOM     11  C   UNL d   1     -50.827  12.746  23.316  0.00  0.00     0.019 A 
ATOM     12  C   UNL d   1     -48.766  15.027  22.496  0.00  0.00     0.086 A 
ATOM     13  C   UNL d   1     -50.554  12.006  23.494  0.00  0.00     0.083 A 
ATOM     14  C   UNL d   1     -50.575  14.047  22.935  0.00  0.00     0.000 C 
ATOM     15  C   UNL d   1     -49.039  15.789  22.313  0.00  0.00     0.021 C 
ATOM     16  C   UNL d   1     -51.064  11.437  23.698  0.00  0.00     0.021 C 
ENDROOT
BRANCH   4  17
ATOM     17  N   UNL d   1     -46.904  13.974  22.610  0.00  0.00    -0.286 N 
ATOM     18  C   UNL d   1     -46.197  14.136  23.015  0.00  0.00     0.101 A 
ATOM     19  C   UNL d   1     -45.480  13.819  22.757  0.00  0.00     0.100 A 
ATOM     20  N   UNL d   1     -45.473  13.332  22.083  0.00  0.00    -0.300 N 
ATOM     21  C   UNL d   1     -46.164  13.166  21.678  0.00  0.00     0.100 A 
ATOM     22  C   UNL d   1     -46.889  13.486  21.936  0.00  0.00     0.101 A 
BRANCH  20  23
ATOM     23  C   UNL d   1     -44.766  13.016  21.825  0.00  0.00     0.080 C 
BRANCH  23  24
ATOM     24  C   UNL d   1     -44.420  12.360  22.216  0.00  0.00     0.020 A 
ATOM     25  C   UNL d   1     -43.606  12.230  22.190  0.00  0.00     0.033 A 
ATOM     26  C   UNL d   1     -43.263  11.576  22.580  0.00  0.00     0.162 A 
ATOM     27  F   UNL d   1     -42.447  11.449  22.553  0.00  0.00    -0.202 F 
ATOM     28  C   UNL d   1     -43.756  11.051  23.000  0.00  0.00     0.121 A 
ATOM     29  C   UNL d   1     -44.576  11.172  23.033  0.00  0.00     0.027 A 
ATOM     30  C   UNL d   1     -44.914  11.823  22.644  0.00  0.00     0.004 A 
BRANCH  28  31
ATOM     31  O   UNL d   1     -43.420  10.401  23.389  0.00  0.00    -0.326 OA
ATOM     32  C   UNL d   1     -43.880   9.744  23.583  0.00  0.00     0.181 C 
ENDBRANCH  28  31
ENDBRANCH  23  24
ENDBRANCH  20  23
ENDBRANCH   4  17
TORSDOF 4
ENDMDL
MODEL 5
REMARK VINA RESULT:      -3.4      2.092      5.647
REMARK  4 active torsions:
REMARK  status: ('A' for Active; 'I' for Inactive)
REMARK    1  A    between atoms: N_11  and  C_4 
REMARK    2  A    between atoms: C_22  and  N_15 
REMARK    3  A    between atoms: O_29  and  C_17 
REMARK    4  A    between atoms: C_21  and  C_22 
ROOT
ATOM      1  N   UNL d   1     -48.665  13.107  23.192  0.00  0.00    -0.195 N 
ATOM      2  C   UNL d   1     -49.469  13.112  23.137  0.00  0.00     0.168 A 
ATOM      3  C   UNL d   1     -49.855  13.770  22.918  0.00  0.00     0.073 A 
ATOM      4  C   UNL d   1     -48.295  12.440  23.412  0.00  0.00     0.153 A 
ATOM      5  N   UNL d   1     -48.630  14.418  22.809  0.00  0.00    -0.143 NA
ATOM      6  C   UNL d   1     -49.434  14.424  22.754  0.00  0.00     0.185 A 
ATOM      7  N   UNL d   1     -49.882  12.451  23.304  0.00  0.00    -0.227 NA
ATOM      8  C   UNL d   1     -50.651  13.776  22.864  0.00  0.00     0.007 A 
ATOM      9  N   UNL d   1     -49.811  15.098  22.531  0.00  0.00    -0.225 NA
ATOM     10  C   UNL d   1     -48.700  11.783  23.578  0.00  0.00     0.057 A 
ATOM     11  C   UNL d   1     -51.037  14.435  22.645  0.00  0.00     0.019 A 
ATOM     12  C   UNL d   1     -49.504  11.789  23.523  0.00  0.00     0.086 A 
ATOM     13  C   UNL d   1     -50.615  15.104  22.477  0.00  0.00     0.083 A 
ATOM     14  C   UNL d   1     -51.064  13.112  23.032  0.00  0.00     0.000 C 
ATOM     15  C   UNL d   1     -49.931  11.099  23.698  0.00  0.00     0.021 C 
ATOM     16  C   UNL d   1     -50.994  15.763  22.258  0.00  0.00     0.021 C 
ENDROOT
BRANCH   4  17
ATOM     17  N   UNL d   1     -47.466  12.443  23.466  0.00  0.00    -0.286 N 
ATOM     18  C   UNL d   1     -46.836  12.939  23.687  0.00  0.00     0.101 A 
ATOM     19  C   UNL d   1     -46.056  12.677  23.641  0.00  0.00     0.100 A 
ATOM     20  N   UNL d   1     -45.904  11.905  23.369  0.00  0.00    -0.300 N 
ATOM     21  C   UNL d   1     -46.517  11.409  23.149  0.00  0.00     0.100 A 
ATOM     22  C   UNL d   1     -47.305  11.672  23.195  0.00  0.00     0.101 A 
BRANCH  20  23
ATOM     23  C   UNL d   1     -45.132  11.642  23.322  0.00  0.00     0.080 C 
BRANCH  23  24
ATOM     24  C   UNL d   1     -44.609  11.947  22.744  0.00  0.00     0.020 A 
ATOM     25  C   UNL d   1     -44.833  12.572  22.253  0.00  0.00     0.033 A 
ATOM     26  C   UNL d   1     -44.309  12.874  21.678  0.00  0.00     0.162 A 
ATOM     27  F   UNL d   1     -44.537  13.500  21.188  0.00  0.00    -0.202 F 
ATOM     28  C   UNL d   1     -43.550  12.537  21.602  0.00  0.00     0.121 A 
ATOM     29  C   UNL d   1     -43.315  11.909  22.090  0.00  0.00     0.027 A 
ATOM     30  C   UNL d   1     -43.837  11.610  22.662  0.00  0.00     0.004 A 
BRANCH  28  31
ATOM     31  O   UNL d   1     -43.028  12.834  21.032  0.00  0.00    -0.326 OA
ATOM     32  C   UNL d   1     -42.268  13.075  21.244  0.00  0.00     0.181 C 
ENDBRANCH  28  31
ENDBRANCH  23  24
ENDBRANCH  20  23
ENDBRANCH   4  17
TORSDOF 4
ENDMDL
MODEL 6
REMARK VINA RESULT:      -3.1      3.188      6.485
REMARK  4 active torsions:
REMARK  status: ('A' for Active; 'I' for Inactive)
REMARK    1  A    between atoms: N_11  and  C_4 
REMARK    2  A    between atoms: C_22  and  N_15 
REMARK    3  A    between atoms: O_29  and  C_17 
REMARK    4  A    between atoms: C_21  and  C_22 
ROOT
ATOM      1  N   UNL d   1     -45.043  12.721  22.386  0.00  0.00    -0.195 N 
ATOM      2  C   UNL d   1     -45.551  12.275  22.825  0.00  0.00     0.168 A 
ATOM      3  C   UNL d   1     -46.297  12.516  22.950  0.00  0.00     0.073 A 
ATOM      4  C   UNL d   1     -44.301  12.464  22.271  0.00  0.00     0.153 A 
ATOM      5  N   UNL d   1     -46.026  13.652  22.194  0.00  0.00    -0.143 NA
ATOM      6  C   UNL d   1     -46.534  13.206  22.633  0.00  0.00     0.185 A 
ATOM      7  N   UNL d   1     -45.303  11.585  23.138  0.00  0.00    -0.227 NA
ATOM      8  C   UNL d   1     -46.800  12.076  23.384  0.00  0.00     0.007 A 
ATOM      9  N   UNL d   1     -47.286  13.464  22.751  0.00  0.00    -0.225 NA
ATOM     10  C   UNL d   1     -44.052  11.782  22.579  0.00  0.00     0.057 A 
ATOM     11  C   UNL d   1     -47.546  12.317  23.509  0.00  0.00     0.019 A 
ATOM     12  C   UNL d   1     -44.560  11.336  23.018  0.00  0.00     0.086 A 
ATOM     13  C   UNL d   1     -47.794  13.018  23.190  0.00  0.00     0.083 A 
ATOM     14  C   UNL d   1     -46.550  11.383  23.698  0.00  0.00     0.000 C 
ATOM     15  C   UNL d   1     -44.299  10.619  23.343  0.00  0.00     0.021 C 
ATOM     16  C   UNL d   1     -48.536  13.264  23.310  0.00  0.00     0.021 C 
ENDROOT
BRANCH   4  17
ATOM     17  N   UNL d   1     -43.784  12.930  21.817  0.00  0.00    -0.286 N 
ATOM     18  C   UNL d   1     -43.729  13.687  21.478  0.00  0.00     0.101 A 
ATOM     19  C   UNL d   1     -43.060  13.909  21.048  0.00  0.00     0.100 A 
ATOM     20  N   UNL d   1     -42.439  13.363  20.957  0.00  0.00    -0.300 N 
ATOM     21  C   UNL d   1     -42.484  12.617  21.287  0.00  0.00     0.100 A 
ATOM     22  C   UNL d   1     -43.157  12.391  21.722  0.00  0.00     0.101 A 
BRANCH  20  23
ATOM     23  C   UNL d   1     -41.776  13.580  20.532  0.00  0.00     0.080 C 
BRANCH  23  24
ATOM     24  C   UNL d   1     -41.169  14.037  20.885  0.00  0.00     0.020 A 
ATOM     25  C   UNL d   1     -40.632  13.698  21.411  0.00  0.00     0.033 A 
ATOM     26  C   UNL d   1     -40.028  14.156  21.762  0.00  0.00     0.162 A 
ATOM     27  F   UNL d   1     -39.491  13.813  22.289  0.00  0.00    -0.202 F 
ATOM     28  C   UNL d   1     -39.972  14.966  21.574  0.00  0.00     0.121 A 
ATOM     29  C   UNL d   1     -40.506  15.317  21.046  0.00  0.00     0.027 A 
ATOM     30  C   UNL d   1     -41.106  14.860  20.698  0.00  0.00     0.004 A 
BRANCH  28  31
ATOM     31  O   UNL d   1     -39.374  15.423  21.920  0.00  0.00    -0.326 OA
ATOM     32  C   UNL d   1     -38.906  15.922  21.458  0.00  0.00     0.181 C 
ENDBRANCH  28  31
ENDBRANCH  23  24
ENDBRANCH  20  23
ENDBRANCH   4  17
TORSDOF 4
ENDMDL
MODEL 7
REMARK VINA RESULT:      -3.0      5.937      9.859
REMARK  4 active torsions:
REMARK  status: ('A' for Active; 'I' for Inactive)
REMARK    1  A    between atoms: N_11  and  C_4 
REMARK    2  A    between atoms: C_22  and  N_15 
REMARK    3  A    between atoms: O_29  and  C_17 
REMARK    4  A    between atoms: C_21  and  C_22 
ROOT
ATOM      1  N   UNL d   1     -39.977  14.551  19.841  0.00  0.00    -0.195 N 
ATOM      2  C   UNL d   1     -40.129  14.310  20.595  0.00  0.00     0.168 A 
ATOM      3  C   UNL d   1     -40.814  13.950  20.775  0.00  0.00     0.073 A 
ATOM      4  C   UNL d   1     -39.287  14.908  19.681  0.00  0.00     0.153 A 
ATOM      5  N   UNL d   1     -41.194  14.073  19.442  0.00  0.00    -0.143 NA
ATOM      6  C   UNL d   1     -41.346  13.832  20.196  0.00  0.00     0.185 A 
ATOM      7  N   UNL d   1     -39.588  14.433  21.168  0.00  0.00    -0.227 NA
ATOM      8  C   UNL d   1     -40.965  13.711  21.520  0.00  0.00     0.007 A 
ATOM      9  N   UNL d   1     -42.045  13.469  20.362  0.00  0.00    -0.225 NA
ATOM     10  C   UNL d   1     -38.749  15.032  20.244  0.00  0.00     0.057 A 
ATOM     11  C   UNL d   1     -41.651  13.351  21.699  0.00  0.00     0.019 A 
ATOM     12  C   UNL d   1     -38.901  14.791  20.998  0.00  0.00     0.086 A 
ATOM     13  C   UNL d   1     -42.197  13.228  21.116  0.00  0.00     0.083 A 
ATOM     14  C   UNL d   1     -40.421  13.835  22.094  0.00  0.00     0.000 C 
ATOM     15  C   UNL d   1     -38.336  14.921  21.591  0.00  0.00     0.021 C 
ATOM     16  C   UNL d   1     -42.881  12.870  21.287  0.00  0.00     0.021 C 
ENDROOT
BRANCH   4  17
ATOM     17  N   UNL d   1     -39.138  15.154  18.901  0.00  0.00    -0.286 N 
ATOM     18  C   UNL d   1     -39.499  15.566  18.275  0.00  0.00     0.101 A 
ATOM     19  C   UNL d   1     -39.103  15.676  17.559  0.00  0.00     0.100 A 
ATOM     20  N   UNL d   1     -38.335  15.369  17.470  0.00  0.00    -0.300 N 
ATOM     21  C   UNL d   1     -37.972  14.963  18.080  0.00  0.00     0.100 A 
ATOM     22  C   UNL d   1     -38.369  14.850  18.803  0.00  0.00     0.101 A 
BRANCH  20  23
ATOM     23  C   UNL d   1     -37.941  15.476  16.763  0.00  0.00     0.080 C 
BRANCH  23  24
ATOM     24  C   UNL d   1     -37.941  14.878  16.176  0.00  0.00     0.020 A 
ATOM     25  C   UNL d   1     -37.941  14.079  16.382  0.00  0.00     0.033 A 
ATOM     26  C   UNL d   1     -37.941  13.485  15.795  0.00  0.00     0.162 A 
ATOM     27  F   UNL d   1     -37.941  12.686  16.005  0.00  0.00    -0.202 F 
ATOM     28  C   UNL d   1     -37.940  13.708  14.992  0.00  0.00     0.121 A 
ATOM     29  C   UNL d   1     -37.940  14.508  14.774  0.00  0.00     0.027 A 
ATOM     30  C   UNL d   1     -37.940  15.097  15.359  0.00  0.00     0.004 A 
BRANCH  28  31
ATOM     31  O   UNL d   1     -37.940  13.122  14.407  0.00  0.00    -0.326 OA
ATOM     32  C   UNL d   1     -38.022  13.322  13.611  0.00  0.00     0.181 C 
ENDBRANCH  28  31
ENDBRANCH  23  24
ENDBRANCH  20  23
ENDBRANCH   4  17
TORSDOF 4
ENDMDL
