MODEL 1
REMARK VINA RESULT:      32.6      0.000      0.000
REMARK  4 active torsions:
REMARK  status: ('A' for Active; 'I' for Inactive)
REMARK    1  A    between atoms: C_6  and  C_1 
REMARK    2  A    between atoms: C_9  and  N_3 
REMARK    3  A    between atoms: C_17  and  C_9 
REMARK    4  A    between atoms: O_15  and  C_10 
ROOT
ATOM      1  C   UNL d   1      58.718  49.689  50.607  0.00  0.00     0.148 A 
ATOM      2  N   UNL d   1      58.639  49.685  49.757  0.00  0.00    -0.227 NA
ATOM      3  N   UNL d   1      57.950  49.692  50.922  0.00  0.00    -0.289 N 
ATOM      4  C   UNL d   1      57.412  49.690  50.316  0.00  0.00     0.083 A 
ATOM      5  C   UNL d   1      57.847  49.686  49.581  0.00  0.00     0.099 A 
ATOM      6  C   UNL d   1      56.586  49.692  50.303  0.00  0.00     0.019 A 
ATOM      7  C   UNL d   1      57.400  49.683  48.868  0.00  0.00     0.021 A 
ATOM      8  C   UNL d   1      56.199  49.689  49.598  0.00  0.00     0.002 A 
ATOM      9  C   UNL d   1      56.619  49.685  48.888  0.00  0.00     0.002 A 
ENDROOT
BRANCH   1  10
ATOM     10  C   UNL d   1      59.445  49.690  51.009  0.00  0.00     0.035 A 
ATOM     11  C   UNL d   1      59.474  49.706  51.824  0.00  0.00     0.005 A 
ATOM     12  C   UNL d   1      60.188  49.708  52.246  0.00  0.00     0.024 A 
ATOM     13  C   UNL d   1      60.873  49.692  51.855  0.00  0.00     0.094 A 
ATOM     14  C   UNL d   1      60.859  49.674  51.011  0.00  0.00     0.024 A 
ATOM     15  C   UNL d   1      60.145  49.673  50.588  0.00  0.00     0.005 A 
BRANCH  13  16
ATOM     16  O   UNL d   1      61.703  49.683  51.864  0.00  0.00    -0.328 OA
ATOM     17  C   UNL d   1      62.108  49.413  52.537  0.00  0.00     0.181 C 
ENDBRANCH  13  16
ENDBRANCH   1  10
BRANCH   3  18
ATOM     18  C   UNL d   1      57.934  49.696  51.714  0.00  0.00     0.082 C 
BRANCH  18  19
ATOM     19  C   UNL d   1      57.233  49.670  52.133  0.00  0.00     0.019 C 
ATOM     20  C   UNL d   1      57.178  49.378  52.900  0.00  0.00     0.002 C 
ENDBRANCH  18  19
ENDBRANCH   3  18
TORSDOF 4
ENDMDL
