MODEL 1
REMARK VINA RESULT:      34.0      0.000      0.000
REMARK  6 active torsions:
REMARK  status: ('A' for Active; 'I' for Inactive)
REMARK       I    between atoms: C_2  and  N_1 
REMARK    1  A    between atoms: C_3  and  C_2 
REMARK    2  A    between atoms: C_12  and  C_4 
REMARK       I    between atoms: C_5  and  N_8 
REMARK    3  A    between atoms: C_6  and  C_5 
REMARK       I    between atoms: N_9  and  C_6 
REMARK    4  A    between atoms: N_8  and  C_12 
REMARK    5  A    between atoms: C_19  and  N_9 
REMARK    6  A    between atoms: C_21  and  C_19 
ROOT
ATOM      1  C   UNL d   1      44.765 -17.729  40.227  0.00  0.00     0.337 C 
ATOM      2  N   UNL d   1      45.078 -18.154  40.854  0.00  0.00    -0.199 NA
ATOM      3  O   UNL d   1      43.954 -17.603  40.183  0.00  0.00    -0.260 OA
ENDROOT
BRANCH   2   4
ATOM      4  C   UNL d   1      45.891 -18.280  40.899  0.00  0.00     0.146 C 
BRANCH   4   5
ATOM      5  C   UNL d   1      46.179 -19.018  41.152  0.00  0.00     0.190 A 
ATOM      6  N   UNL d   1      46.294 -19.233  41.937  0.00  0.00    -0.250 N 
ATOM      7  C   UNL d   1      46.173 -18.827  42.650  0.00  0.00     0.272 C 
ATOM      8  C   UNL d   1      46.585 -20.007  41.933  0.00  0.00     0.112 A 
ATOM      9  O   UNL d   1      45.881 -18.053  42.638  0.00  0.00    -0.266 OA
ATOM     10  C   UNL d   1      46.646 -20.259  41.153  0.00  0.00     0.144 A 
ATOM     11  O   UNL d   1      46.390 -19.634  40.672  0.00  0.00    -0.285 OA
BRANCH   7  12
ATOM     12  C   UNL d   1      46.340 -19.190  43.369  0.00  0.00     0.086 A 
ATOM     13  S   UNL d   1      46.411 -19.990  43.576  0.00  0.00    -0.082 SA
ATOM     14  C   UNL d   1      46.589 -20.023  44.393  0.00  0.00     0.036 A 
ATOM     15  C   UNL d   1      46.625 -19.247  44.672  0.00  0.00     0.008 A 
ATOM     16  C   UNL d   1      46.473 -18.733  44.048  0.00  0.00     0.012 A 
ENDBRANCH   7  12
ENDBRANCH   4   5
ENDBRANCH   2   4
BRANCH   1  17
ATOM     17  C   UNL d   1      45.259 -17.423  39.638  0.00  0.00     0.337 C 
ATOM     18  N   UNL d   1      44.942 -17.094  38.954  0.00  0.00    -0.202 NA
ATOM     19  O   UNL d   1      46.075 -17.450  39.738  0.00  0.00    -0.260 OA
BRANCH  18  20
ATOM     20  C   UNL d   1      45.434 -16.792  38.372  0.00  0.00     0.102 C 
BRANCH  20  21
ATOM     21  C   UNL d   1      45.133 -16.299  37.760  0.00  0.00     0.019 A 
ATOM     22  C   UNL d   1      44.425 -16.497  37.403  0.00  0.00     0.002 A 
ATOM     23  C   UNL d   1      44.127 -16.010  36.798  0.00  0.00     0.000 A 
ATOM     24  C   UNL d   1      44.536 -15.345  36.564  0.00  0.00     0.000 A 
ATOM     25  C   UNL d   1      45.262 -15.153  36.939  0.00  0.00     0.000 A 
ATOM     26  C   UNL d   1      45.554 -15.642  37.542  0.00  0.00     0.002 A 
ENDBRANCH  20  21
ENDBRANCH  18  20
ENDBRANCH   1  17
TORSDOF 6
ENDMDL
