MODEL 1
REMARK VINA RESULT:      -4.3      0.000      0.000
REMARK  2 active torsions:
REMARK  status: ('A' for Active; 'I' for Inactive)
REMARK    1  A    between atoms: O_3  and  C_1 
REMARK       I    between atoms: N_6  and  C_1 
REMARK    2  A    between atoms: C_5  and  O_3 
ROOT
ATOM      1  C   UNL d   1      56.709  -0.620  32.305  0.00  0.00     0.105 A 
ATOM      2  C   UNL d   1      56.599  -0.298  33.054  0.00  0.00     0.030 A 
ATOM      3  C   UNL d   1      57.278  -0.290  31.786  0.00  0.00     0.122 A 
ATOM      4  N   UNL d   1      56.258  -1.273  32.061  0.00  0.00    -0.242 NA
ATOM      5  C   UNL d   1      57.050   0.352  33.296  0.00  0.00     0.059 A 
ATOM      6  C   UNL d   1      57.725   0.355  32.027  0.00  0.00     0.027 A 
ATOM      7  C   UNL d   1      57.619   0.682  32.776  0.00  0.00     0.013 A 
ATOM      8 CL   UNL d   1      56.942   0.680  34.051  0.00  0.00    -0.082 Cl
ATOM      9  C   UNL d   1      56.039  -0.623  33.565  0.00  0.00     0.004 A 
ATOM     10  C   UNL d   1      55.698  -1.597  32.572  0.00  0.00     0.099 A 
ATOM     11  C   UNL d   1      55.589  -1.269  33.328  0.00  0.00     0.021 A 
ENDROOT
BRANCH   3  12
ATOM     12  O   UNL d   1      57.391  -0.615  31.026  0.00  0.00    -0.257 OA
BRANCH  12  13
ATOM     13  C   UNL d   1      57.713  -0.152  30.410  0.00  0.00     0.378 C 
ATOM     14  N   UNL d   1      58.194  -0.488  29.841  0.00  0.00    -0.249 N 
ATOM     15  C   UNL d   1      58.509  -0.026  29.234  0.00  0.00     0.104 C 
ATOM     16  C   UNL d   1      58.366  -1.295  29.871  0.00  0.00     0.104 C 
ATOM     17  O   UNL d   1      57.539   0.666  30.379  0.00  0.00    -0.237 OA
ENDBRANCH  12  13
ENDBRANCH   3  12
TORSDOF 2
ENDMDL
MODEL 2
REMARK VINA RESULT:      -3.4      9.453      9.996
REMARK  2 active torsions:
REMARK  status: ('A' for Active; 'I' for Inactive)
REMARK    1  A    between atoms: O_3  and  C_1 
REMARK       I    between atoms: N_6  and  C_1 
REMARK    2  A    between atoms: C_5  and  O_3 
ROOT
ATOM      1  C   UNL d   1      59.169  -9.595  33.076  0.00  0.00     0.105 A 
ATOM      2  C   UNL d   1      59.502  -9.701  32.331  0.00  0.00     0.030 A 
ATOM      3  C   UNL d   1      59.662  -9.482  33.744  0.00  0.00     0.122 A 
ATOM      4  N   UNL d   1      58.344  -9.600  33.170  0.00  0.00    -0.242 NA
ATOM      5  C   UNL d   1      60.324  -9.695  32.240  0.00  0.00     0.059 A 
ATOM      6  C   UNL d   1      60.478  -9.476  33.652  0.00  0.00     0.027 A 
ATOM      7  C   UNL d   1      60.817  -9.582  32.908  0.00  0.00     0.013 A 
ATOM      8 CL   UNL d   1      60.663  -9.801  31.490  0.00  0.00    -0.082 Cl
ATOM      9  C   UNL d   1      59.016  -9.812  31.674  0.00  0.00     0.004 A 
ATOM     10  C   UNL d   1      57.858  -9.712  32.512  0.00  0.00     0.099 A 
ATOM     11  C   UNL d   1      58.197  -9.818  31.761  0.00  0.00     0.021 A 
ENDROOT
BRANCH   3  12
ATOM     12  O   UNL d   1      59.327  -9.374  34.500  0.00  0.00    -0.257 OA
BRANCH  12  13
ATOM     13  C   UNL d   1      59.621  -8.786  35.015  0.00  0.00     0.378 C 
ATOM     14  N   UNL d   1      59.562  -8.872  35.826  0.00  0.00    -0.249 N 
ATOM     15  C   UNL d   1      59.854  -8.288  36.330  0.00  0.00     0.104 C 
ATOM     16  C   UNL d   1      59.209  -9.547  36.145  0.00  0.00     0.104 C 
ATOM     17  O   UNL d   1      59.979  -8.102  34.693  0.00  0.00    -0.237 OA
ENDBRANCH  12  13
ENDBRANCH   3  12
TORSDOF 2
ENDMDL
MODEL 3
REMARK VINA RESULT:      -3.4      1.665      3.642
REMARK  2 active torsions:
REMARK  status: ('A' for Active; 'I' for Inactive)
REMARK    1  A    between atoms: O_3  and  C_1 
REMARK       I    between atoms: N_6  and  C_1 
REMARK    2  A    between atoms: C_5  and  O_3 
ROOT
ATOM      1  C   UNL d   1      58.152  -0.952  29.929  0.00  0.00     0.105 A 
ATOM      2  C   UNL d   1      58.564  -0.658  29.281  0.00  0.00     0.030 A 
ATOM      3  C   UNL d   1      57.756  -0.426  30.448  0.00  0.00     0.122 A 
ATOM      4  N   UNL d   1      58.126  -1.769  30.073  0.00  0.00    -0.242 NA
ATOM      5  C   UNL d   1      58.588   0.156  29.139  0.00  0.00     0.059 A 
ATOM      6  C   UNL d   1      57.781   0.382  30.307  0.00  0.00     0.027 A 
ATOM      7  C   UNL d   1      58.192   0.682  29.658  0.00  0.00     0.013 A 
ATOM      8 CL   UNL d   1      59.003   0.457  28.486  0.00  0.00    -0.082 Cl
ATOM      9  C   UNL d   1      58.953  -1.176  28.770  0.00  0.00     0.004 A 
ATOM     10  C   UNL d   1      58.516  -2.287  29.562  0.00  0.00     0.099 A 
ATOM     11  C   UNL d   1      58.931  -1.987  28.908  0.00  0.00     0.021 A 
ENDROOT
BRANCH   3  12
ATOM     12  O   UNL d   1      57.337  -0.722  31.107  0.00  0.00    -0.257 OA
BRANCH  12  13
ATOM     13  C   UNL d   1      57.160  -0.225  31.755  0.00  0.00     0.378 C 
ATOM     14  N   UNL d   1      56.623  -0.457  32.325  0.00  0.00    -0.249 N 
ATOM     15  C   UNL d   1      56.452   0.037  32.963  0.00  0.00     0.104 C 
ATOM     16  C   UNL d   1      56.247  -1.190  32.264  0.00  0.00     0.104 C 
ATOM     17  O   UNL d   1      57.541   0.518  31.817  0.00  0.00    -0.237 OA
ENDBRANCH  12  13
ENDBRANCH   3  12
TORSDOF 2
ENDMDL
MODEL 4
REMARK VINA RESULT:      -3.2      1.246      1.754
REMARK  2 active torsions:
REMARK  status: ('A' for Active; 'I' for Inactive)
REMARK    1  A    between atoms: O_3  and  C_1 
REMARK       I    between atoms: N_6  and  C_1 
REMARK    2  A    between atoms: C_5  and  O_3 
ROOT
ATOM      1  C   UNL d   1      57.014   0.052  32.946  0.00  0.00     0.105 A 
ATOM      2  C   UNL d   1      56.392  -0.326  33.331  0.00  0.00     0.030 A 
ATOM      3  C   UNL d   1      57.138  -0.074  32.127  0.00  0.00     0.122 A 
ATOM      4  N   UNL d   1      57.520   0.558  33.367  0.00  0.00    -0.242 NA
ATOM      5  C   UNL d   1      55.889  -0.829  32.910  0.00  0.00     0.059 A 
ATOM      6  C   UNL d   1      56.638  -0.574  31.710  0.00  0.00     0.027 A 
ATOM      7  C   UNL d   1      56.013  -0.955  32.091  0.00  0.00     0.013 A 
ATOM      8 CL   UNL d   1      55.260  -1.212  33.295  0.00  0.00    -0.082 Cl
ATOM      9  C   UNL d   1      56.270  -0.202  34.137  0.00  0.00     0.004 A 
ATOM     10  C   UNL d   1      57.397   0.681  34.173  0.00  0.00     0.099 A 
ATOM     11  C   UNL d   1      56.769   0.299  34.559  0.00  0.00     0.021 A 
ENDROOT
BRANCH   3  12
ATOM     12  O   UNL d   1      57.768   0.308  31.735  0.00  0.00    -0.257 OA
BRANCH  12  13
ATOM     13  C   UNL d   1      57.800   0.324  30.900  0.00  0.00     0.378 C 
ATOM     14  N   UNL d   1      58.497   0.501  30.512  0.00  0.00    -0.249 N 
ATOM     15  C   UNL d   1      58.524   0.515  29.687  0.00  0.00     0.104 C 
ATOM     16  C   UNL d   1      59.181   0.666  30.945  0.00  0.00     0.104 C 
ATOM     17  O   UNL d   1      57.108   0.156  30.460  0.00  0.00    -0.237 OA
ENDBRANCH  12  13
ENDBRANCH   3  12
TORSDOF 2
ENDMDL
MODEL 5
REMARK VINA RESULT:      -2.9      1.986      4.277
REMARK  2 active torsions:
REMARK  status: ('A' for Active; 'I' for Inactive)
REMARK    1  A    between atoms: O_3  and  C_1 
REMARK       I    between atoms: N_6  and  C_1 
REMARK    2  A    between atoms: C_5  and  O_3 
ROOT
ATOM      1  C   UNL d   1      59.000  -0.435  29.594  0.00  0.00     0.105 A 
ATOM      2  C   UNL d   1      59.453  -0.915  29.103  0.00  0.00     0.030 A 
ATOM      3  C   UNL d   1      58.341  -0.754  30.001  0.00  0.00     0.122 A 
ATOM      4  N   UNL d   1      59.193   0.368  29.687  0.00  0.00    -0.242 NA
ATOM      5  C   UNL d   1      59.260  -1.714  29.011  0.00  0.00     0.059 A 
ATOM      6  C   UNL d   1      58.150  -1.547  29.910  0.00  0.00     0.027 A 
ATOM      7  C   UNL d   1      58.601  -2.033  29.419  0.00  0.00     0.013 A 
ATOM      8 CL   UNL d   1      59.715  -2.202  28.517  0.00  0.00    -0.082 Cl
ATOM      9  C   UNL d   1      60.102  -0.600  28.702  0.00  0.00     0.004 A 
ATOM     10  C   UNL d   1      59.841   0.682  29.286  0.00  0.00     0.099 A 
ATOM     11  C   UNL d   1      60.297   0.194  28.791  0.00  0.00     0.021 A 
ENDROOT
BRANCH   3  12
ATOM     12  O   UNL d   1      57.880  -0.269  30.500  0.00  0.00    -0.257 OA
BRANCH  12  13
ATOM     13  C   UNL d   1      57.358  -0.607  31.057  0.00  0.00     0.378 C 
ATOM     14  N   UNL d   1      56.993  -0.145  31.624  0.00  0.00    -0.249 N 
ATOM     15  C   UNL d   1      56.479  -0.484  32.172  0.00  0.00     0.104 C 
ATOM     16  C   UNL d   1      57.140   0.667  31.650  0.00  0.00     0.104 C 
ATOM     17  O   UNL d   1      57.209  -1.431  31.030  0.00  0.00    -0.237 OA
ENDBRANCH  12  13
ENDBRANCH   3  12
TORSDOF 2
ENDMDL
MODEL 6
REMARK VINA RESULT:      -2.7      2.021      3.937
REMARK  2 active torsions:
REMARK  status: ('A' for Active; 'I' for Inactive)
REMARK    1  A    between atoms: O_3  and  C_1 
REMARK       I    between atoms: N_6  and  C_1 
REMARK    2  A    between atoms: C_5  and  O_3 
ROOT
ATOM      1  C   UNL d   1      59.080   0.454  30.628  0.00  0.00     0.105 A 
ATOM      2  C   UNL d   1      59.439   0.454  29.888  0.00  0.00     0.030 A 
ATOM      3  C   UNL d   1      58.252   0.338  30.693  0.00  0.00     0.122 A 
ATOM      4  N   UNL d   1      59.535   0.568  31.313  0.00  0.00    -0.242 NA
ATOM      5  C   UNL d   1      58.984   0.340  29.207  0.00  0.00     0.059 A 
ATOM      6  C   UNL d   1      57.802   0.225  30.017  0.00  0.00     0.027 A 
ATOM      7  C   UNL d   1      58.157   0.224  29.272  0.00  0.00     0.013 A 
ATOM      8 CL   UNL d   1      59.343   0.339  28.458  0.00  0.00    -0.082 Cl
ATOM      9  C   UNL d   1      60.253   0.568  29.824  0.00  0.00     0.004 A 
ATOM     10  C   UNL d   1      60.349   0.682  31.249  0.00  0.00     0.099 A 
ATOM     11  C   UNL d   1      60.709   0.682  30.500  0.00  0.00     0.021 A 
ENDROOT
BRANCH   3  12
ATOM     12  O   UNL d   1      57.886   0.337  31.443  0.00  0.00    -0.257 OA
BRANCH  12  13
ATOM     13  C   UNL d   1      57.276  -0.206  31.617  0.00  0.00     0.378 C 
ATOM     14  N   UNL d   1      56.842  -0.142  32.306  0.00  0.00    -0.249 N 
ATOM     15  C   UNL d   1      56.241  -0.682  32.473  0.00  0.00     0.104 C 
ATOM     16  C   UNL d   1      57.006   0.465  32.841  0.00  0.00     0.104 C 
ATOM     17  O   UNL d   1      57.110  -0.822  31.074  0.00  0.00    -0.237 OA
ENDBRANCH  12  13
ENDBRANCH   3  12
TORSDOF 2
ENDMDL
MODEL 7
REMARK VINA RESULT:      -2.6      3.695      4.953
REMARK  2 active torsions:
REMARK  status: ('A' for Active; 'I' for Inactive)
REMARK    1  A    between atoms: O_3  and  C_1 
REMARK       I    between atoms: N_6  and  C_1 
REMARK    2  A    between atoms: C_5  and  O_3 
ROOT
ATOM      1  C   UNL d   1      59.786  -2.498  28.981  0.00  0.00     0.105 A 
ATOM      2  C   UNL d   1      59.638  -3.297  28.849  0.00  0.00     0.030 A 
ATOM      3  C   UNL d   1      59.180  -1.933  28.853  0.00  0.00     0.122 A 
ATOM      4  N   UNL d   1      60.534  -2.249  29.241  0.00  0.00    -0.242 NA
ATOM      5  C   UNL d   1      58.892  -3.543  28.590  0.00  0.00     0.059 A 
ATOM      6  C   UNL d   1      58.441  -2.178  28.596  0.00  0.00     0.027 A 
ATOM      7  C   UNL d   1      58.287  -2.977  28.463  0.00  0.00     0.013 A 
ATOM      8 CL   UNL d   1      58.739  -4.348  28.456  0.00  0.00    -0.082 Cl
ATOM      9  C   UNL d   1      60.234  -3.853  28.975  0.00  0.00     0.004 A 
ATOM     10  C   UNL d   1      61.130  -2.805  29.366  0.00  0.00     0.099 A 
ATOM     11  C   UNL d   1      60.977  -3.611  29.232  0.00  0.00     0.021 A 
ENDROOT
BRANCH   3  12
ATOM     12  O   UNL d   1      59.328  -1.122  28.986  0.00  0.00    -0.257 OA
BRANCH  12  13
ATOM     13  C   UNL d   1      58.720  -0.620  29.261  0.00  0.00     0.378 C 
ATOM     14  N   UNL d   1      58.699   0.169  29.046  0.00  0.00    -0.249 N 
ATOM     15  C   UNL d   1      58.097   0.660  29.321  0.00  0.00     0.104 C 
ATOM     16  C   UNL d   1      59.285   0.477  28.551  0.00  0.00     0.104 C 
ATOM     17  O   UNL d   1      58.127  -0.932  29.762  0.00  0.00    -0.237 OA
ENDBRANCH  12  13
ENDBRANCH   3  12
TORSDOF 2
ENDMDL
MODEL 8
REMARK VINA RESULT:      -2.3      1.406      1.883
REMARK  2 active torsions:
REMARK  status: ('A' for Active; 'I' for Inactive)
REMARK    1  A    between atoms: O_3  and  C_1 
REMARK       I    between atoms: N_6  and  C_1 
REMARK    2  A    between atoms: C_5  and  O_3 
ROOT
ATOM      1  C   UNL d   1      55.871   0.468  33.466  0.00  0.00     0.105 A 
ATOM      2  C   UNL d   1      55.913   0.541  34.284  0.00  0.00     0.030 A 
ATOM      3  C   UNL d   1      56.573   0.462  33.008  0.00  0.00     0.122 A 
ATOM      4  N   UNL d   1      55.133   0.401  33.090  0.00  0.00    -0.242 NA
ATOM      5  C   UNL d   1      56.649   0.608  34.656  0.00  0.00     0.059 A 
ATOM      6  C   UNL d   1      57.302   0.528  33.378  0.00  0.00     0.027 A 
ATOM      7  C   UNL d   1      57.351   0.601  34.199  0.00  0.00     0.013 A 
ATOM      8 CL   UNL d   1      56.696   0.681  35.482  0.00  0.00    -0.082 Cl
ATOM      9  C   UNL d   1      55.222   0.548  34.735  0.00  0.00     0.004 A 
ATOM     10  C   UNL d   1      54.442   0.408  33.541  0.00  0.00     0.099 A 
ATOM     11  C   UNL d   1      54.489   0.481  34.367  0.00  0.00     0.021 A 
ENDROOT
BRANCH   3  12
ATOM     12  O   UNL d   1      56.532   0.388  32.178  0.00  0.00    -0.257 OA
BRANCH  12  13
ATOM     13  C   UNL d   1      56.941  -0.226  31.785  0.00  0.00     0.378 C 
ATOM     14  N   UNL d   1      57.337  -0.084  31.085  0.00  0.00    -0.249 N 
ATOM     15  C   UNL d   1      57.739  -0.693  30.701  0.00  0.00     0.104 C 
ATOM     16  C   UNL d   1      57.334   0.674  30.756  0.00  0.00     0.104 C 
ATOM     17  O   UNL d   1      56.944  -0.994  32.118  0.00  0.00    -0.237 OA
ENDBRANCH  12  13
ENDBRANCH   3  12
TORSDOF 2
ENDMDL
MODEL 9
REMARK VINA RESULT:      -2.2      2.143      3.858
REMARK  2 active torsions:
REMARK  status: ('A' for Active; 'I' for Inactive)
REMARK    1  A    between atoms: O_3  and  C_1 
REMARK       I    between atoms: N_6  and  C_1 
REMARK    2  A    between atoms: C_5  and  O_3 
ROOT
ATOM      1  C   UNL d   1      56.616  -0.087  32.639  0.00  0.00     0.105 A 
ATOM      2  C   UNL d   1      56.679  -0.731  32.132  0.00  0.00     0.030 A 
ATOM      3  C   UNL d   1      56.135  -0.138  33.323  0.00  0.00     0.122 A 
ATOM      4  N   UNL d   1      57.027   0.615  32.476  0.00  0.00    -0.242 NA
ATOM      5  C   UNL d   1      56.269  -1.430  32.296  0.00  0.00     0.059 A 
ATOM      6  C   UNL d   1      55.728  -0.832  33.486  0.00  0.00     0.027 A 
ATOM      7  C   UNL d   1      55.788  -1.481  32.980  0.00  0.00     0.013 A 
ATOM      8 CL   UNL d   1      56.330  -2.083  31.786  0.00  0.00    -0.082 Cl
ATOM      9  C   UNL d   1      57.153  -0.682  31.458  0.00  0.00     0.004 A 
ATOM     10  C   UNL d   1      57.500   0.665  31.802  0.00  0.00     0.099 A 
ATOM     11  C   UNL d   1      57.563   0.013  31.292  0.00  0.00     0.021 A 
ENDROOT
BRANCH   3  12
ATOM     12  O   UNL d   1      56.068   0.514  33.839  0.00  0.00    -0.257 OA
BRANCH  12  13
ATOM     13  C   UNL d   1      55.441   0.559  34.389  0.00  0.00     0.378 C 
ATOM     14  N   UNL d   1      55.589   0.637  35.189  0.00  0.00    -0.249 N 
ATOM     15  C   UNL d   1      54.966   0.681  35.727  0.00  0.00     0.104 C 
ATOM     16  C   UNL d   1      56.368   0.673  35.462  0.00  0.00     0.104 C 
ATOM     17  O   UNL d   1      54.652   0.523  34.112  0.00  0.00    -0.237 OA
ENDBRANCH  12  13
ENDBRANCH   3  12
TORSDOF 2
ENDMDL
