MODEL 1
REMARK VINA RESULT:      20.1      0.000      0.000
REMARK  2 active torsions:
REMARK  status: ('A' for Active; 'I' for Inactive)
REMARK    1  A    between atoms: C_6  and  C_1 
REMARK    2  A    between atoms: C_7  and  C_4 
ROOT
ATOM      1  C   UNL d   1      57.634  49.551  50.259  0.00  0.00     0.169 A 
ATOM      2  C   UNL d   1      57.805  49.483  51.063  0.00  0.00     0.048 A 
ATOM      3  N   UNL d   1      59.015  49.708  49.969  0.00  0.00    -0.148 NA
ATOM      4  C   UNL d   1      59.191  49.641  50.773  0.00  0.00     0.105 A 
ATOM      5  N   UNL d   1      58.233  49.664  49.705  0.00  0.00    -0.142 NA
ENDROOT
BRANCH   4   6
ATOM      6  C   UNL d   1      59.881  49.657  51.227  0.00  0.00     0.019 A 
ATOM      7  C   UNL d   1      60.614  49.651  50.853  0.00  0.00     0.002 A 
ATOM      8  C   UNL d   1      61.301  49.667  51.298  0.00  0.00     0.000 A 
ATOM      9  C   UNL d   1      60.656  49.629  50.026  0.00  0.00     0.000 C 
ATOM     10  C   UNL d   1      61.261  49.688  52.126  0.00  0.00     0.000 A 
ATOM     11  C   UNL d   1      60.522  49.694  52.500  0.00  0.00     0.000 A 
ATOM     12  C   UNL d   1      61.952  49.704  52.574  0.00  0.00     0.000 C 
ATOM     13  C   UNL d   1      59.836  49.678  52.054  0.00  0.00     0.002 A 
ENDBRANCH   4   6
BRANCH   1  14
ATOM     14  C   UNL d   1      56.849  49.506  50.004  0.00  0.00     0.231 C 
ATOM     15  O   UNL d   1      56.662  49.664  49.217  0.00  0.00    -0.643 OA
ATOM     16  O   UNL d   1      56.253  49.302  50.536  0.00  0.00    -0.643 OA
ENDBRANCH   1  14
TORSDOF 2
ENDMDL
MODEL 2
REMARK VINA RESULT:      21.2      2.173      4.039
REMARK  2 active torsions:
REMARK  status: ('A' for Active; 'I' for Inactive)
REMARK    1  A    between atoms: C_6  and  C_1 
REMARK    2  A    between atoms: C_7  and  C_4 
ROOT
ATOM      1  C   UNL d   1      60.480  49.505  51.447  0.00  0.00     0.169 A 
ATOM      2  C   UNL d   1      60.306  49.473  50.641  0.00  0.00     0.048 A 
ATOM      3  N   UNL d   1      59.098  49.626  51.749  0.00  0.00    -0.148 NA
ATOM      4  C   UNL d   1      58.919  49.595  50.945  0.00  0.00     0.105 A 
ATOM      5  N   UNL d   1      59.882  49.582  52.008  0.00  0.00    -0.142 NA
ENDROOT
BRANCH   4   6
ATOM      6  C   UNL d   1      58.227  49.622  50.495  0.00  0.00     0.019 A 
ATOM      7  C   UNL d   1      57.498  49.678  50.873  0.00  0.00     0.002 A 
ATOM      8  C   UNL d   1      56.809  49.705  50.431  0.00  0.00     0.000 A 
ATOM      9  C   UNL d   1      57.463  49.706  51.699  0.00  0.00     0.000 C 
ATOM     10  C   UNL d   1      56.843  49.677  49.604  0.00  0.00     0.000 A 
ATOM     11  C   UNL d   1      57.577  49.620  49.226  0.00  0.00     0.000 A 
ATOM     12  C   UNL d   1      56.149  49.704  49.159  0.00  0.00     0.000 C 
ATOM     13  C   UNL d   1      58.266  49.593  49.667  0.00  0.00     0.002 A 
ENDBRANCH   4   6
BRANCH   1  14
ATOM     14  C   UNL d   1      61.267  49.459  51.696  0.00  0.00     0.231 C 
ATOM     15  O   UNL d   1      61.444  49.468  52.502  0.00  0.00    -0.643 OA
ATOM     16  O   UNL d   1      61.873  49.405  51.141  0.00  0.00    -0.643 OA
ENDBRANCH   1  14
TORSDOF 2
ENDMDL
