MODEL 1
REMARK VINA RESULT:      44.0      0.000      0.000
REMARK  4 active torsions:
REMARK  status: ('A' for Active; 'I' for Inactive)
REMARK    1  A    between atoms: O_2  and  P_1 
REMARK    2  A    between atoms: C_6  and  P_1 
REMARK    3  A    between atoms: C_3  and  O_2 
REMARK    4  A    between atoms: C_10  and  C_4 
ROOT
ATOM      1  C   UNL d   1     -57.542 -98.885 -44.789  0.00  0.00     0.103 A 
ATOM      2  C   UNL d   1     -58.330 -98.853 -44.537  0.00  0.00     0.023 A 
ATOM      3  C   UNL d   1     -58.938 -98.790 -45.060  0.00  0.00     0.002 A 
ATOM      4  C   UNL d   1     -57.390 -98.852 -45.600  0.00  0.00     0.025 A 
ATOM      5  C   UNL d   1     -58.781 -98.758 -45.874  0.00  0.00     0.000 A 
ATOM      6  C   UNL d   1     -57.998 -98.790 -46.125  0.00  0.00     0.002 A 
ATOM      7  C   UNL d   1     -57.818 -98.759 -46.936  0.00  0.00     0.000 C 
ENDROOT
BRANCH   1   8
ATOM      8  O   UNL d   1     -56.921 -98.949 -44.246  0.00  0.00    -0.269 OA
BRANCH   8   9
ATOM      9  P   UNL d   1     -56.388 -99.565 -44.313  0.00  0.00     0.370 P 
ATOM     10  O   UNL d   1     -56.989-100.104 -44.176  0.00  0.00    -0.257 OA
ATOM     11  N   UNL d   1     -55.776 -98.998 -44.453  0.00  0.00    -0.091 N 
BRANCH   9  12
ATOM     12  C   UNL d   1     -55.834-100.175 -44.383  0.00  0.00     0.077 A 
ATOM     13  C   UNL d   1     -55.678-100.642 -43.721  0.00  0.00     0.007 A 
ATOM     14  C   UNL d   1     -55.121-101.256 -43.790  0.00  0.00     0.000 A 
ATOM     15  C   UNL d   1     -54.729-101.396 -44.506  0.00  0.00     0.000 A 
ATOM     16  C   UNL d   1     -54.897-100.923 -45.148  0.00  0.00     0.000 A 
ATOM     17  C   UNL d   1     -55.442-100.315 -45.098  0.00  0.00     0.007 A 
ENDBRANCH   9  12
ENDBRANCH   8   9
ENDBRANCH   1   8
BRANCH   2  18
ATOM     18  C   UNL d   1     -58.500 -98.884 -43.736  0.00  0.00     0.002 C 
ATOM     19  C   UNL d   1     -59.261 -99.041 -43.480  0.00  0.00     0.000 C 
ATOM     20  C   UNL d   1     -57.899 -98.756 -43.188  0.00  0.00     0.000 C 
ENDBRANCH   2  18
TORSDOF 4
ENDMDL
