MODEL 1
REMARK VINA RESULT:      -5.3      0.000      0.000
REMARK  3 active torsions:
REMARK  status: ('A' for Active; 'I' for Inactive)
REMARK    1  A    between atoms: C_6  and  C_1 
REMARK    2  A    between atoms: C_7  and  C_2 
REMARK    3  A    between atoms: O_14  and  C_12 
ROOT
ATOM      1  C   UNL d   1      56.196  -0.618  32.653  0.00  0.00     0.084 A 
ATOM      2  C   UNL d   1      56.053   0.141  32.944  0.00  0.00     0.105 A 
ATOM      3  C   UNL d   1      56.673  -0.545  31.987  0.00  0.00     0.031 A 
ATOM      4  O   UNL d   1      56.442   0.682  32.457  0.00  0.00    -0.307 OA
ATOM      5  C   UNL d   1      56.823   0.253  31.867  0.00  0.00     0.100 A 
ATOM      6  C   UNL d   1      56.989  -1.100  31.474  0.00  0.00     0.026 A 
ATOM      7  C   UNL d   1      57.292   0.502  31.233  0.00  0.00     0.027 A 
ATOM      8  C   UNL d   1      57.459  -0.866  30.837  0.00  0.00     0.094 A 
ATOM      9  C   UNL d   1      57.612  -0.056  30.715  0.00  0.00     0.026 A 
ENDROOT
BRANCH   2  10
ATOM     10  C   UNL d   1      55.596   0.323  33.612  0.00  0.00     0.023 A 
ATOM     11  C   UNL d   1      55.967   0.413  34.343  0.00  0.00     0.002 A 
ATOM     12  C   UNL d   1      55.522   0.593  35.001  0.00  0.00     0.000 A 
ATOM     13  C   UNL d   1      54.706   0.682  34.928  0.00  0.00     0.000 A 
ATOM     14  C   UNL d   1      54.346   0.589  34.187  0.00  0.00     0.000 A 
ATOM     15  C   UNL d   1      54.783   0.413  33.542  0.00  0.00     0.002 A 
ENDBRANCH   2  10
BRANCH   1  16
ATOM     16  C   UNL d   1      55.914  -1.325  32.971  0.00  0.00     0.299 C 
ATOM     17  O   UNL d   1      56.355  -1.728  33.530  0.00  0.00    -0.264 OA
ATOM     18  N   UNL d   1      55.194  -1.630  32.732  0.00  0.00    -0.102 N 
ENDBRANCH   1  16
BRANCH   8  19
ATOM     19  O   UNL d   1      57.776  -1.422  30.323  0.00  0.00    -0.328 OA
ATOM     20  C   UNL d   1      58.400  -1.209  29.821  0.00  0.00     0.181 C 
ENDBRANCH   8  19
TORSDOF 3
ENDMDL
MODEL 2
REMARK VINA RESULT:      -2.8      1.654      4.406
REMARK  3 active torsions:
REMARK  status: ('A' for Active; 'I' for Inactive)
REMARK    1  A    between atoms: C_6  and  C_1 
REMARK    2  A    between atoms: C_7  and  C_2 
REMARK    3  A    between atoms: O_14  and  C_12 
ROOT
ATOM      1  C   UNL d   1      57.948  -0.656  30.517  0.00  0.00     0.084 A 
ATOM      2  C   UNL d   1      58.259   0.087  30.339  0.00  0.00     0.105 A 
ATOM      3  C   UNL d   1      57.398  -0.560  31.120  0.00  0.00     0.031 A 
ATOM      4  O   UNL d   1      57.899   0.642  30.833  0.00  0.00    -0.307 OA
ATOM      5  C   UNL d   1      57.368   0.236  31.314  0.00  0.00     0.100 A 
ATOM      6  C   UNL d   1      56.920  -1.094  31.518  0.00  0.00     0.026 A 
ATOM      7  C   UNL d   1      56.859   0.506  31.907  0.00  0.00     0.027 A 
ATOM      8  C   UNL d   1      56.407  -0.840  32.112  0.00  0.00     0.094 A 
ATOM      9  C   UNL d   1      56.376  -0.030  32.309  0.00  0.00     0.026 A 
ENDROOT
BRANCH   2  10
ATOM     10  C   UNL d   1      58.834   0.245  29.763  0.00  0.00     0.023 A 
ATOM     11  C   UNL d   1      58.599   0.526  29.023  0.00  0.00     0.002 A 
ATOM     12  C   UNL d   1      59.160   0.682  28.455  0.00  0.00     0.000 A 
ATOM     13  C   UNL d   1      59.957   0.558  28.625  0.00  0.00     0.000 A 
ATOM     14  C   UNL d   1      60.180   0.276  29.372  0.00  0.00     0.000 A 
ATOM     15  C   UNL d   1      59.629   0.122  29.930  0.00  0.00     0.002 A 
ENDBRANCH   2  10
BRANCH   1  16
ATOM     16  C   UNL d   1      58.152  -1.370  30.156  0.00  0.00     0.299 C 
ATOM     17  O   UNL d   1      57.754  -1.619  29.485  0.00  0.00    -0.264 OA
ATOM     18  N   UNL d   1      58.750  -1.835  30.462  0.00  0.00    -0.102 N 
ENDBRANCH   1  16
BRANCH   8  19
ATOM     19  O   UNL d   1      55.928  -1.374  32.511  0.00  0.00    -0.328 OA
ATOM     20  C   UNL d   1      55.497  -1.125  33.173  0.00  0.00     0.181 C 
ENDBRANCH   8  19
TORSDOF 3
ENDMDL
