MODEL 1
REMARK VINA RESULT:      45.7      0.000      0.000
REMARK  3 active torsions:
REMARK  status: ('A' for Active; 'I' for Inactive)
REMARK    1  A    between atoms: S_3  and  N_1 
REMARK    2  A    between atoms: C_7  and  C_4 
REMARK    3  A    between atoms: C_12  and  C_5 
ROOT
ATOM      1  N   UNL d   1      14.706  13.359  -1.049  0.00  0.00    -0.155 N 
ATOM      2  N   UNL d   1      15.018  13.995  -0.643  0.00  0.00    -0.156 NA
ATOM      3  C   UNL d   1      14.444  13.620  -1.771  0.00  0.00     0.096 A 
ATOM      4  C   UNL d   1      14.946  14.652  -1.123  0.00  0.00     0.103 A 
ATOM      5  C   UNL d   1      14.593  14.430  -1.820  0.00  0.00     0.041 A 
ENDROOT
BRANCH   3   6
ATOM      6  C   UNL d   1      14.090  13.158  -2.359  0.00  0.00     0.020 A 
ATOM      7  C   UNL d   1      13.821  13.511  -3.057  0.00  0.00     0.022 A 
ATOM      8  C   UNL d   1      13.467  13.049  -3.644  0.00  0.00     0.099 A 
ATOM      9  N   UNL d   1      13.200  13.402  -4.340  0.00  0.00    -0.241 NA
ATOM     10  C   UNL d   1      13.382  12.240  -3.534  0.00  0.00     0.099 A 
ATOM     11  C   UNL d   1      12.858  12.943  -4.901  0.00  0.00     0.120 A 
ATOM     12  C   UNL d   1      12.773  12.134  -4.791  0.00  0.00     0.120 A 
ATOM     13  N   UNL d   1      13.028  11.779  -4.120  0.00  0.00    -0.241 NA
ATOM     14  C   UNL d   1      13.650  11.888  -2.837  0.00  0.00     0.021 A 
ATOM     15  C   UNL d   1      14.004  12.349  -2.250  0.00  0.00     0.003 A 
ENDBRANCH   3   6
BRANCH   1  16
ATOM     16  S   UNL d   1      14.659  12.564  -0.776  0.00  0.00     0.266 S 
ATOM     17  O   UNL d   1      15.380  12.406  -1.194  0.00  0.00    -0.203 OA
ATOM     18  O   UNL d   1      14.640  11.779  -0.525  0.00  0.00    -0.203 OA
ATOM     19  C   UNL d   1      13.967  12.732  -0.379  0.00  0.00     0.165 C 
ENDBRANCH   1  16
BRANCH   4  20
ATOM     20  C   UNL d   1      15.187  15.408  -0.934  0.00  0.00     0.019 A 
ATOM     21  C   UNL d   1      15.546  15.564  -0.223  0.00  0.00     0.002 A 
ATOM     22  C   UNL d   1      15.800  16.336  -0.015  0.00  0.00     0.000 A 
ATOM     23  C   UNL d   1      15.678  16.953  -0.556  0.00  0.00     0.000 A 
ATOM     24  C   UNL d   1      15.309  16.775  -1.280  0.00  0.00     0.000 A 
ATOM     25  C   UNL d   1      15.918  17.705  -0.369  0.00  0.00     0.000 C 
ATOM     26  C   UNL d   1      15.067  16.028  -1.472  0.00  0.00     0.002 A 
ENDBRANCH   4  20
TORSDOF 3
ENDMDL
