MODEL 1
REMARK VINA RESULT:      -2.1      0.000      0.000
REMARK  4 active torsions:
REMARK  status: ('A' for Active; 'I' for Inactive)
REMARK    1  A    between atoms: C_6  and  C_1 
REMARK    2  A    between atoms: S_7  and  C_3 
REMARK    3  A    between atoms: C_17  and  S_7 
REMARK    4  A    between atoms: C_18  and  C_17 
ROOT
ATOM      1  C   UNL d   1      32.716  23.147 -21.779  0.00  0.00     0.087 A 
ATOM      2  N   UNL d   1      32.543  23.700 -22.356  0.00  0.00    -0.245 NA
ATOM      3  C   UNL d   1      32.999  22.459 -22.135  0.00  0.00     0.049 A 
ATOM      4  C   UNL d   1      33.004  22.579 -22.942  0.00  0.00     0.025 A 
ATOM      5  C   UNL d   1      32.722  23.346 -23.081  0.00  0.00     0.082 A 
ATOM      6  C   UNL d   1      33.230  22.085 -23.562  0.00  0.00     0.002 A 
ATOM      7  C   UNL d   1      32.661  23.634 -23.837  0.00  0.00     0.019 A 
ATOM      8  C   UNL d   1      33.168  22.376 -24.334  0.00  0.00     0.000 A 
ATOM      9  C   UNL d   1      32.886  23.142 -24.463  0.00  0.00     0.002 A 
ENDROOT
BRANCH   1  10
ATOM     10  C   UNL d   1      32.637  23.221 -20.969  0.00  0.00     0.018 A 
ATOM     11  C   UNL d   1      31.950  22.934 -20.592  0.00  0.00     0.002 A 
ATOM     12  C   UNL d   1      31.860  23.003 -19.786  0.00  0.00     0.011 A 
ATOM     13  C   UNL d   1      32.459  23.359 -19.350  0.00  0.00     0.058 A 
ATOM     14  C   UNL d   1      33.150  23.645 -19.742  0.00  0.00     0.011 A 
ATOM     15 CL   UNL d   1      32.371  23.428 -18.538  0.00  0.00    -0.082 Cl
ATOM     16  C   UNL d   1      33.236  23.576 -20.538  0.00  0.00     0.002 A 
ENDBRANCH   1  10
BRANCH   3  17
ATOM     17  S   UNL d   1      33.240  21.759 -21.763  0.00  0.00    -0.083 SA
BRANCH  17  18
ATOM     18  C   UNL d   1      32.980  21.011 -22.030  0.00  0.00     0.058 C 
BRANCH  18  19
ATOM     19  C   UNL d   1      33.217  20.312 -21.661  0.00  0.00     0.129 C 
ATOM     20  N   UNL d   1      33.064  19.572 -21.999  0.00  0.00    -0.146 N 
ENDBRANCH  18  19
ENDBRANCH  17  18
ENDBRANCH   3  17
TORSDOF 4
ENDMDL
MODEL 2
REMARK VINA RESULT:      -1.9      5.658      6.842
REMARK  4 active torsions:
REMARK  status: ('A' for Active; 'I' for Inactive)
REMARK    1  A    between atoms: C_6  and  C_1 
REMARK    2  A    between atoms: S_7  and  C_3 
REMARK    3  A    between atoms: C_17  and  S_7 
REMARK    4  A    between atoms: C_18  and  C_17 
ROOT
ATOM      1  C   UNL d   1      30.615  17.323 -24.547  0.00  0.00     0.087 A 
ATOM      2  N   UNL d   1      30.638  18.088 -24.835  0.00  0.00    -0.245 NA
ATOM      3  C   UNL d   1      31.383  17.064 -24.393  0.00  0.00     0.049 A 
ATOM      4  C   UNL d   1      31.895  17.670 -24.586  0.00  0.00     0.025 A 
ATOM      5  C   UNL d   1      31.436  18.304 -24.859  0.00  0.00     0.082 A 
ATOM      6  C   UNL d   1      32.716  17.720 -24.546  0.00  0.00     0.002 A 
ATOM      7  C   UNL d   1      31.787  18.997 -25.097  0.00  0.00     0.019 A 
ATOM      8  C   UNL d   1      33.076  18.425 -24.787  0.00  0.00     0.000 A 
ATOM      9  C   UNL d   1      32.611  19.051 -25.058  0.00  0.00     0.002 A 
ENDROOT
BRANCH   1  10
ATOM     10  C   UNL d   1      29.959  16.853 -24.416  0.00  0.00     0.018 A 
ATOM     11  C   UNL d   1      29.502  16.964 -23.726  0.00  0.00     0.002 A 
ATOM     12  C   UNL d   1      28.847  16.502 -23.585  0.00  0.00     0.011 A 
ATOM     13  C   UNL d   1      28.645  15.924 -24.134  0.00  0.00     0.058 A 
ATOM     14  C   UNL d   1      29.115  15.822 -24.827  0.00  0.00     0.011 A 
ATOM     15 CL   UNL d   1      27.985  15.458 -23.993  0.00  0.00    -0.082 Cl
ATOM     16  C   UNL d   1      29.761  16.279 -24.964  0.00  0.00     0.002 A 
ENDBRANCH   1  10
BRANCH   3  17
ATOM     17  S   UNL d   1      31.619  16.327 -24.097  0.00  0.00    -0.083 SA
BRANCH  17  18
ATOM     18  C   UNL d   1      32.253  16.258 -23.556  0.00  0.00     0.058 C 
BRANCH  18  19
ATOM     19  C   UNL d   1      32.526  15.521 -23.302  0.00  0.00     0.129 C 
ATOM     20  N   UNL d   1      33.046  15.453 -22.661  0.00  0.00    -0.146 N 
ENDBRANCH  18  19
ENDBRANCH  17  18
ENDBRANCH   3  17
TORSDOF 4
ENDMDL
MODEL 3
REMARK VINA RESULT:      -1.7      1.284      2.686
REMARK  4 active torsions:
REMARK  status: ('A' for Active; 'I' for Inactive)
REMARK    1  A    between atoms: C_6  and  C_1 
REMARK    2  A    between atoms: S_7  and  C_3 
REMARK    3  A    between atoms: C_17  and  S_7 
REMARK    4  A    between atoms: C_18  and  C_17 
ROOT
ATOM      1  C   UNL d   1      32.703  20.959 -21.565  0.00  0.00     0.087 A 
ATOM      2  N   UNL d   1      32.575  20.156 -21.474  0.00  0.00    -0.245 NA
ATOM      3  C   UNL d   1      32.971  21.108 -22.332  0.00  0.00     0.049 A 
ATOM      4  C   UNL d   1      33.012  20.395 -22.726  0.00  0.00     0.025 A 
ATOM      5  C   UNL d   1      32.767  19.805 -22.198  0.00  0.00     0.082 A 
ATOM      6  C   UNL d   1      33.241  20.214 -23.496  0.00  0.00     0.002 A 
ATOM      7  C   UNL d   1      32.747  19.027 -22.427  0.00  0.00     0.019 A 
ATOM      8  C   UNL d   1      33.221  19.422 -23.733  0.00  0.00     0.000 A 
ATOM      9  C   UNL d   1      32.976  18.841 -23.200  0.00  0.00     0.002 A 
ENDROOT
BRANCH   1  10
ATOM     10  C   UNL d   1      32.596  21.553 -21.014  0.00  0.00     0.018 A 
ATOM     11  C   UNL d   1      33.236  21.791 -20.534  0.00  0.00     0.002 A 
ATOM     12  C   UNL d   1      33.142  22.382 -19.982  0.00  0.00     0.011 A 
ATOM     13  C   UNL d   1      32.405  22.738 -19.906  0.00  0.00     0.058 A 
ATOM     14  C   UNL d   1      31.766  22.489 -20.397  0.00  0.00     0.011 A 
ATOM     15 CL   UNL d   1      32.308  23.333 -19.351  0.00  0.00    -0.082 Cl
ATOM     16  C   UNL d   1      31.862  21.906 -20.942  0.00  0.00     0.002 A 
ENDBRANCH   1  10
BRANCH   3  17
ATOM     17  S   UNL d   1      33.169  21.841 -22.664  0.00  0.00    -0.083 SA
BRANCH  17  18
ATOM     18  C   UNL d   1      32.927  22.049 -23.437  0.00  0.00     0.058 C 
BRANCH  18  19
ATOM     19  C   UNL d   1      32.937  22.832 -23.698  0.00  0.00     0.129 C 
ATOM     20  N   UNL d   1      33.188  23.028 -24.462  0.00  0.00    -0.146 N 
ENDBRANCH  18  19
ENDBRANCH  17  18
ENDBRANCH   3  17
TORSDOF 4
ENDMDL
MODEL 4
REMARK VINA RESULT:      -0.9      6.424      7.683
REMARK  4 active torsions:
REMARK  status: ('A' for Active; 'I' for Inactive)
REMARK    1  A    between atoms: C_6  and  C_1 
REMARK    2  A    between atoms: S_7  and  C_3 
REMARK    3  A    between atoms: C_17  and  S_7 
REMARK    4  A    between atoms: C_18  and  C_17 
ROOT
ATOM      1  C   UNL d   1      30.492  15.869 -23.649  0.00  0.00     0.087 A 
ATOM      2  N   UNL d   1      31.064  15.453 -23.240  0.00  0.00    -0.245 NA
ATOM      3  C   UNL d   1      30.854  16.431 -24.134  0.00  0.00     0.049 A 
ATOM      4  C   UNL d   1      31.661  16.368 -24.029  0.00  0.00     0.025 A 
ATOM      5  C   UNL d   1      31.793  15.764 -23.477  0.00  0.00     0.082 A 
ATOM      6  C   UNL d   1      32.286  16.784 -24.367  0.00  0.00     0.002 A 
ATOM      7  C   UNL d   1      32.547  15.565 -23.253  0.00  0.00     0.019 A 
ATOM      8  C   UNL d   1      33.056  16.585 -24.141  0.00  0.00     0.000 A 
ATOM      9  C   UNL d   1      33.178  15.981 -23.590  0.00  0.00     0.002 A 
ENDROOT
BRANCH   1  10
ATOM     10  C   UNL d   1      29.680  15.778 -23.616  0.00  0.00     0.018 A 
ATOM     11  C   UNL d   1      29.261  15.554 -24.302  0.00  0.00     0.002 A 
ATOM     12  C   UNL d   1      28.452  15.460 -24.280  0.00  0.00     0.011 A 
ATOM     13  C   UNL d   1      28.058  15.590 -23.571  0.00  0.00     0.058 A 
ATOM     14  C   UNL d   1      28.493  15.815 -22.884  0.00  0.00     0.011 A 
ATOM     15 CL   UNL d   1      27.243  15.496 -23.547  0.00  0.00    -0.082 Cl
ATOM     16  C   UNL d   1      29.291  15.908 -22.908  0.00  0.00     0.002 A 
ENDBRANCH   1  10
BRANCH   3  17
ATOM     17  S   UNL d   1      30.488  16.971 -24.643  0.00  0.00    -0.083 SA
BRANCH  17  18
ATOM     18  C   UNL d   1      30.672  17.787 -24.618  0.00  0.00     0.058 C 
BRANCH  18  19
ATOM     19  C   UNL d   1      30.282  18.334 -25.097  0.00  0.00     0.129 C 
ATOM     20  N   UNL d   1      30.163  19.115 -24.850  0.00  0.00    -0.146 N 
ENDBRANCH  18  19
ENDBRANCH  17  18
ENDBRANCH   3  17
TORSDOF 4
ENDMDL
MODEL 5
REMARK VINA RESULT:      -0.2      2.253      4.121
REMARK  4 active torsions:
REMARK  status: ('A' for Active; 'I' for Inactive)
REMARK    1  A    between atoms: C_6  and  C_1 
REMARK    2  A    between atoms: S_7  and  C_3 
REMARK    3  A    between atoms: C_17  and  S_7 
REMARK    4  A    between atoms: C_18  and  C_17 
ROOT
ATOM      1  C   UNL d   1      32.745  20.363 -22.006  0.00  0.00     0.087 A 
ATOM      2  N   UNL d   1      32.547  20.448 -21.218  0.00  0.00    -0.245 NA
ATOM      3  C   UNL d   1      32.935  21.101 -22.323  0.00  0.00     0.049 A 
ATOM      4  C   UNL d   1      32.855  21.656 -21.729  0.00  0.00     0.025 A 
ATOM      5  C   UNL d   1      32.615  21.254 -21.045  0.00  0.00     0.082 A 
ATOM      6  C   UNL d   1      32.971  22.471 -21.730  0.00  0.00     0.002 A 
ATOM      7  C   UNL d   1      32.488  21.656 -20.352  0.00  0.00     0.019 A 
ATOM      8  C   UNL d   1      32.842  22.884 -21.025  0.00  0.00     0.000 A 
ATOM      9  C   UNL d   1      32.603  22.476 -20.348  0.00  0.00     0.002 A 
ENDROOT
BRANCH   1  10
ATOM     10  C   UNL d   1      32.766  19.677 -22.450  0.00  0.00     0.018 A 
ATOM     11  C   UNL d   1      32.319  19.626 -23.154  0.00  0.00     0.002 A 
ATOM     12  C   UNL d   1      32.333  18.948 -23.604  0.00  0.00     0.011 A 
ATOM     13  C   UNL d   1      32.794  18.316 -23.353  0.00  0.00     0.058 A 
ATOM     14  C   UNL d   1      33.241  18.379 -22.641  0.00  0.00     0.011 A 
ATOM     15 CL   UNL d   1      32.808  17.632 -23.806  0.00  0.00    -0.082 Cl
ATOM     16  C   UNL d   1      33.226  19.049 -22.198  0.00  0.00     0.002 A 
ENDBRANCH   1  10
BRANCH   3  17
ATOM     17  S   UNL d   1      33.166  21.274 -23.099  0.00  0.00    -0.083 SA
BRANCH  17  18
ATOM     18  C   UNL d   1      32.850  21.929 -23.513  0.00  0.00     0.058 C 
BRANCH  18  19
ATOM     19  C   UNL d   1      33.235  22.256 -24.166  0.00  0.00     0.129 C 
ATOM     20  N   UNL d   1      32.856  22.799 -24.662  0.00  0.00    -0.146 N 
ENDBRANCH  18  19
ENDBRANCH  17  18
ENDBRANCH   3  17
TORSDOF 4
ENDMDL
MODEL 6
REMARK VINA RESULT:       0.2      1.935      3.855
REMARK  4 active torsions:
REMARK  status: ('A' for Active; 'I' for Inactive)
REMARK    1  A    between atoms: C_6  and  C_1 
REMARK    2  A    between atoms: S_7  and  C_3 
REMARK    3  A    between atoms: C_17  and  S_7 
REMARK    4  A    between atoms: C_18  and  C_17 
ROOT
ATOM      1  C   UNL d   1      32.961  21.160 -21.674  0.00  0.00     0.087 A 
ATOM      2  N   UNL d   1      32.809  21.135 -20.871  0.00  0.00    -0.245 NA
ATOM      3  C   UNL d   1      33.074  21.944 -21.907  0.00  0.00     0.049 A 
ATOM      4  C   UNL d   1      32.993  22.416 -21.247  0.00  0.00     0.025 A 
ATOM      5  C   UNL d   1      32.829  21.918 -20.605  0.00  0.00     0.082 A 
ATOM      6  C   UNL d   1      33.048  23.233 -21.154  0.00  0.00     0.002 A 
ATOM      7  C   UNL d   1      32.717  22.224 -19.861  0.00  0.00     0.019 A 
ATOM      8  C   UNL d   1      32.934  23.548 -20.397  0.00  0.00     0.000 A 
ATOM      9  C   UNL d   1      32.772  23.044 -19.764  0.00  0.00     0.002 A 
ENDROOT
BRANCH   1  10
ATOM     10  C   UNL d   1      33.004  20.536 -22.199  0.00  0.00     0.018 A 
ATOM     11  C   UNL d   1      32.845  19.761 -21.933  0.00  0.00     0.002 A 
ATOM     12  C   UNL d   1      32.885  19.131 -22.448  0.00  0.00     0.011 A 
ATOM     13  C   UNL d   1      33.083  19.273 -23.233  0.00  0.00     0.058 A 
ATOM     14  C   UNL d   1      33.241  20.061 -23.489  0.00  0.00     0.011 A 
ATOM     15 CL   UNL d   1      33.123  18.639 -23.752  0.00  0.00    -0.082 Cl
ATOM     16  C   UNL d   1      33.201  20.681 -22.980  0.00  0.00     0.002 A 
ENDBRANCH   1  10
BRANCH   3  17
ATOM     17  S   UNL d   1      33.241  22.226 -22.668  0.00  0.00    -0.083 SA
BRANCH  17  18
ATOM     18  C   UNL d   1      32.963  22.971 -22.928  0.00  0.00     0.058 C 
BRANCH  18  19
ATOM     19  C   UNL d   1      33.141  23.262 -23.679  0.00  0.00     0.129 C 
ATOM     20  N   UNL d   1      32.586  23.691 -24.119  0.00  0.00    -0.146 N 
ENDBRANCH  18  19
ENDBRANCH  17  18
ENDBRANCH   3  17
TORSDOF 4
ENDMDL
MODEL 7
REMARK VINA RESULT:       0.5      2.990      4.524
REMARK  4 active torsions:
REMARK  status: ('A' for Active; 'I' for Inactive)
REMARK    1  A    between atoms: C_6  and  C_1 
REMARK    2  A    between atoms: S_7  and  C_3 
REMARK    3  A    between atoms: C_17  and  S_7 
REMARK    4  A    between atoms: C_18  and  C_17 
ROOT
ATOM      1  C   UNL d   1      32.809  19.518 -24.050  0.00  0.00     0.087 A 
ATOM      2  N   UNL d   1      32.780  19.934 -24.754  0.00  0.00    -0.245 NA
ATOM      3  C   UNL d   1      32.970  20.039 -23.430  0.00  0.00     0.049 A 
ATOM      4  C   UNL d   1      33.043  20.788 -23.745  0.00  0.00     0.025 A 
ATOM      5  C   UNL d   1      32.927  20.725 -24.563  0.00  0.00     0.082 A 
ATOM      6  C   UNL d   1      33.201  21.513 -23.388  0.00  0.00     0.002 A 
ATOM      7  C   UNL d   1      32.965  21.382 -25.038  0.00  0.00     0.019 A 
ATOM      8  C   UNL d   1      33.241  22.185 -23.869  0.00  0.00     0.000 A 
ATOM      9  C   UNL d   1      33.123  22.113 -24.684  0.00  0.00     0.002 A 
ENDROOT
BRANCH   1  10
ATOM     10  C   UNL d   1      32.701  18.716 -23.933  0.00  0.00     0.018 A 
ATOM     11  C   UNL d   1      32.044  18.447 -23.494  0.00  0.00     0.002 A 
ATOM     12  C   UNL d   1      31.927  17.651 -23.371  0.00  0.00     0.011 A 
ATOM     13  C   UNL d   1      32.467  17.118 -23.687  0.00  0.00     0.058 A 
ATOM     14  C   UNL d   1      33.127  17.402 -24.129  0.00  0.00     0.011 A 
ATOM     15 CL   UNL d   1      32.351  16.316 -23.564  0.00  0.00    -0.082 Cl
ATOM     16  C   UNL d   1      33.241  18.189 -24.249  0.00  0.00     0.002 A 
ENDBRANCH   1  10
BRANCH   3  17
ATOM     17  S   UNL d   1      33.047  19.857 -22.626  0.00  0.00    -0.083 SA
BRANCH  17  18
ATOM     18  C   UNL d   1      33.192  20.454 -22.057  0.00  0.00     0.058 C 
BRANCH  18  19
ATOM     19  C   UNL d   1      33.236  20.282 -21.251  0.00  0.00     0.129 C 
ATOM     20  N   UNL d   1      33.024  20.841 -20.679  0.00  0.00    -0.146 N 
ENDBRANCH  18  19
ENDBRANCH  17  18
ENDBRANCH   3  17
TORSDOF 4
ENDMDL
MODEL 8
REMARK VINA RESULT:       0.6      1.175      1.594
REMARK  4 active torsions:
REMARK  status: ('A' for Active; 'I' for Inactive)
REMARK    1  A    between atoms: C_6  and  C_1 
REMARK    2  A    between atoms: S_7  and  C_3 
REMARK    3  A    between atoms: C_17  and  S_7 
REMARK    4  A    between atoms: C_18  and  C_17 
ROOT
ATOM      1  C   UNL d   1      32.858  21.822 -22.344  0.00  0.00     0.087 A 
ATOM      2  N   UNL d   1      32.780  22.395 -22.922  0.00  0.00    -0.245 NA
ATOM      3  C   UNL d   1      33.040  21.098 -22.698  0.00  0.00     0.049 A 
ATOM      4  C   UNL d   1      33.076  21.216 -23.504  0.00  0.00     0.025 A 
ATOM      5  C   UNL d   1      32.916  22.017 -23.645  0.00  0.00     0.082 A 
ATOM      6  C   UNL d   1      33.235  20.695 -24.122  0.00  0.00     0.002 A 
ATOM      7  C   UNL d   1      32.911  22.311 -24.401  0.00  0.00     0.019 A 
ATOM      8  C   UNL d   1      33.231  20.992 -24.894  0.00  0.00     0.000 A 
ATOM      9  C   UNL d   1      33.070  21.791 -25.025  0.00  0.00     0.002 A 
ENDROOT
BRANCH   1  10
ATOM     10  C   UNL d   1      32.778  21.906 -21.535  0.00  0.00     0.018 A 
ATOM     11  C   UNL d   1      33.238  22.474 -21.131  0.00  0.00     0.002 A 
ATOM     12  C   UNL d   1      33.167  22.567 -20.325  0.00  0.00     0.011 A 
ATOM     13  C   UNL d   1      32.634  22.092 -19.918  0.00  0.00     0.058 A 
ATOM     14  C   UNL d   1      32.175  21.522 -20.337  0.00  0.00     0.011 A 
ATOM     15 CL   UNL d   1      32.561  22.185 -19.107  0.00  0.00    -0.082 Cl
ATOM     16  C   UNL d   1      32.246  21.432 -21.132  0.00  0.00     0.002 A 
ENDBRANCH   1  10
BRANCH   3  17
ATOM     17  S   UNL d   1      33.167  20.370 -22.323  0.00  0.00    -0.083 SA
BRANCH  17  18
ATOM     18  C   UNL d   1      33.072  19.647 -22.733  0.00  0.00     0.058 C 
BRANCH  18  19
ATOM     19  C   UNL d   1      33.183  18.920 -22.359  0.00  0.00     0.129 C 
ATOM     20  N   UNL d   1      32.878  18.220 -22.679  0.00  0.00    -0.146 N 
ENDBRANCH  18  19
ENDBRANCH  17  18
ENDBRANCH   3  17
TORSDOF 4
ENDMDL
