MODEL 1
REMARK VINA RESULT:      -2.8      0.000      0.000
REMARK  1 active torsions:
REMARK  status: ('A' for Active; 'I' for Inactive)
REMARK    1  A    between atoms: N_13  and  C_2 
ROOT
ATOM      1  C   UNL d   1      33.236  21.969 -22.235  0.00  0.00     0.024 A 
ATOM      2  C   UNL d   1      33.238  22.432 -22.919  0.00  0.00     0.138 A 
ATOM      3  C   UNL d   1      33.239  22.071 -23.663  0.00  0.00     0.282 A 
ATOM      4  C   UNL d   1      33.234  21.149 -22.294  0.00  0.00     0.021 A 
ATOM      5  N   UNL d   1      33.237  21.249 -23.713  0.00  0.00    -0.271 N 
ATOM      6  C   UNL d   1      33.235  20.783 -23.032  0.00  0.00     0.067 A 
ATOM      7  C   UNL d   1      33.235  22.330 -21.497  0.00  0.00     0.005 A 
ATOM      8  C   UNL d   1      33.232  20.688 -21.600  0.00  0.00     0.040 A 
ATOM      9  C   UNL d   1      33.231  21.052 -20.859  0.00  0.00     0.196 A 
ATOM     10  C   UNL d   1      33.233  21.874 -20.810  0.00  0.00     0.039 A 
ATOM     11  O   UNL d   1      33.241  22.526 -24.350  0.00  0.00    -0.265 OA
ATOM     12  O   UNL d   1      33.229  20.597 -20.171  0.00  0.00    -0.287 OA
ATOM     13  C   UNL d   1      33.238  20.890 -24.461  0.00  0.00     0.102 C 
ATOM     14  C   UNL d   1      33.234  19.968 -23.092  0.00  0.00     0.018 A 
ATOM     15  C   UNL d   1      33.231  19.865 -21.661  0.00  0.00     0.003 A 
ATOM     16  C   UNL d   1      33.236  23.155 -21.445  0.00  0.00     0.000 A 
ATOM     17  C   UNL d   1      33.232  22.244 -20.069  0.00  0.00     0.003 A 
ATOM     18  C   UNL d   1      33.232  19.495 -22.400  0.00  0.00     0.002 A 
ATOM     19  C   UNL d   1      33.235  23.522 -20.707  0.00  0.00     0.000 A 
ATOM     20  C   UNL d   1      33.233  23.066 -20.020  0.00  0.00     0.000 A 
ENDROOT
BRANCH   2  21
ATOM     21  N   UNL d   1      33.239  23.252 -22.866  0.00  0.00    -0.238 NA
ATOM     22  C   UNL d   1      32.664  23.693 -23.260  0.00  0.00     0.120 C 
ENDBRANCH   2  21
TORSDOF 1
ENDMDL
MODEL 2
REMARK VINA RESULT:      -2.6      0.690      2.657
REMARK  1 active torsions:
REMARK  status: ('A' for Active; 'I' for Inactive)
REMARK    1  A    between atoms: N_13  and  C_2 
ROOT
ATOM      1  C   UNL d   1      33.231  21.187 -22.453  0.00  0.00     0.024 A 
ATOM      2  C   UNL d   1      33.231  21.703 -23.098  0.00  0.00     0.138 A 
ATOM      3  C   UNL d   1      33.227  22.520 -22.973  0.00  0.00     0.282 A 
ATOM      4  C   UNL d   1      33.228  21.488 -21.686  0.00  0.00     0.021 A 
ATOM      5  N   UNL d   1      33.224  22.812 -22.204  0.00  0.00    -0.271 N 
ATOM      6  C   UNL d   1      33.225  22.300 -21.557  0.00  0.00     0.067 A 
ATOM      7  C   UNL d   1      33.234  20.376 -22.577  0.00  0.00     0.005 A 
ATOM      8  C   UNL d   1      33.228  20.961 -21.041  0.00  0.00     0.040 A 
ATOM      9  C   UNL d   1      33.232  20.145 -21.168  0.00  0.00     0.196 A 
ATOM     10  C   UNL d   1      33.235  19.854 -21.938  0.00  0.00     0.039 A 
ATOM     11  O   UNL d   1      33.227  23.041 -23.613  0.00  0.00    -0.265 OA
ATOM     12  O   UNL d   1      33.232  19.624 -20.528  0.00  0.00    -0.287 OA
ATOM     13  C   UNL d   1      33.221  23.633 -22.083  0.00  0.00     0.102 C 
ATOM     14  C   UNL d   1      33.222  22.600 -20.796  0.00  0.00     0.018 A 
ATOM     15  C   UNL d   1      33.225  21.264 -20.273  0.00  0.00     0.003 A 
ATOM     16  C   UNL d   1      33.237  20.080 -23.350  0.00  0.00     0.000 A 
ATOM     17  C   UNL d   1      33.238  19.038 -22.071  0.00  0.00     0.003 A 
ATOM     18  C   UNL d   1      33.222  22.080 -20.139  0.00  0.00     0.002 A 
ATOM     19  C   UNL d   1      33.241  19.267 -23.481  0.00  0.00     0.000 A 
ATOM     20  C   UNL d   1      33.241  18.746 -22.841  0.00  0.00     0.000 A 
ENDROOT
BRANCH   2  21
ATOM     21  N   UNL d   1      33.234  21.408 -23.865  0.00  0.00    -0.238 NA
ATOM     22  C   UNL d   1      33.227  21.926 -24.507  0.00  0.00     0.120 C 
ENDBRANCH   2  21
TORSDOF 1
ENDMDL
MODEL 3
REMARK VINA RESULT:      -2.4      1.173      3.262
REMARK  1 active torsions:
REMARK  status: ('A' for Active; 'I' for Inactive)
REMARK    1  A    between atoms: N_13  and  C_2 
ROOT
ATOM      1  C   UNL d   1      33.231  21.075 -22.712  0.00  0.00     0.024 A 
ATOM      2  C   UNL d   1      33.231  21.439 -21.971  0.00  0.00     0.138 A 
ATOM      3  C   UNL d   1      33.229  22.264 -21.916  0.00  0.00     0.282 A 
ATOM      4  C   UNL d   1      33.230  21.534 -23.396  0.00  0.00     0.021 A 
ATOM      5  N   UNL d   1      33.229  22.715 -22.605  0.00  0.00    -0.271 N 
ATOM      6  C   UNL d   1      33.229  22.355 -23.347  0.00  0.00     0.067 A 
ATOM      7  C   UNL d   1      33.232  20.255 -22.765  0.00  0.00     0.005 A 
ATOM      8  C   UNL d   1      33.231  21.159 -24.140  0.00  0.00     0.040 A 
ATOM      9  C   UNL d   1      33.232  20.335 -24.191  0.00  0.00     0.196 A 
ATOM     10  C   UNL d   1      33.233  19.884 -23.502  0.00  0.00     0.039 A 
ATOM     11  O   UNL d   1      33.229  22.635 -21.179  0.00  0.00    -0.265 OA
ATOM     12  O   UNL d   1      33.232  19.963 -24.928  0.00  0.00    -0.287 OA
ATOM     13  C   UNL d   1      33.227  23.543 -22.545  0.00  0.00     0.102 C 
ATOM     14  C   UNL d   1      33.228  22.812 -24.025  0.00  0.00     0.018 A 
ATOM     15  C   UNL d   1      33.230  21.620 -24.824  0.00  0.00     0.003 A 
ATOM     16  C   UNL d   1      33.233  19.800 -22.075  0.00  0.00     0.000 A 
ATOM     17  C   UNL d   1      33.234  19.058 -23.549  0.00  0.00     0.003 A 
ATOM     18  C   UNL d   1      33.229  22.446 -24.779  0.00  0.00     0.002 A 
ATOM     19  C   UNL d   1      33.234  18.978 -22.122  0.00  0.00     0.000 A 
ATOM     20  C   UNL d   1      33.235  18.607 -22.859  0.00  0.00     0.000 A 
ENDROOT
BRANCH   2  21
ATOM     21  N   UNL d   1      33.231  20.986 -21.286  0.00  0.00    -0.238 NA
ATOM     22  C   UNL d   1      32.730  21.181 -20.660  0.00  0.00     0.120 C 
ENDBRANCH   2  21
TORSDOF 1
ENDMDL
MODEL 4
REMARK VINA RESULT:      -2.3      1.301      2.545
REMARK  1 active torsions:
REMARK  status: ('A' for Active; 'I' for Inactive)
REMARK    1  A    between atoms: N_13  and  C_2 
ROOT
ATOM      1  C   UNL d   1      33.237  21.236 -23.064  0.00  0.00     0.024 A 
ATOM      2  C   UNL d   1      33.239  20.603 -23.595  0.00  0.00     0.138 A 
ATOM      3  C   UNL d   1      33.239  19.827 -23.311  0.00  0.00     0.282 A 
ATOM      4  C   UNL d   1      33.235  21.093 -22.254  0.00  0.00     0.021 A 
ATOM      5  N   UNL d   1      33.237  19.692 -22.499  0.00  0.00    -0.271 N 
ATOM      6  C   UNL d   1      33.235  20.322 -21.966  0.00  0.00     0.067 A 
ATOM      7  C   UNL d   1      33.237  22.007 -23.347  0.00  0.00     0.005 A 
ATOM      8  C   UNL d   1      33.233  21.737 -21.725  0.00  0.00     0.040 A 
ATOM      9  C   UNL d   1      33.233  22.512 -22.011  0.00  0.00     0.196 A 
ATOM     10  C   UNL d   1      33.235  22.645 -22.823  0.00  0.00     0.039 A 
ATOM     11  O   UNL d   1      33.241  19.189 -23.835  0.00  0.00    -0.265 OA
ATOM     12  O   UNL d   1      33.231  23.149 -21.487  0.00  0.00    -0.287 OA
ATOM     13  C   UNL d   1      33.237  18.912 -22.219  0.00  0.00     0.102 C 
ATOM     14  C   UNL d   1      33.233  20.178 -21.161  0.00  0.00     0.018 A 
ATOM     15  C   UNL d   1      33.231  21.592 -20.912  0.00  0.00     0.003 A 
ATOM     16  C   UNL d   1      33.239  22.144 -24.163  0.00  0.00     0.000 A 
ATOM     17  C   UNL d   1      33.235  23.419 -23.115  0.00  0.00     0.003 A 
ATOM     18  C   UNL d   1      33.231  20.818 -20.620  0.00  0.00     0.002 A 
ATOM     19  C   UNL d   1      33.239  22.915 -24.452  0.00  0.00     0.000 A 
ATOM     20  C   UNL d   1      33.237  23.552 -23.928  0.00  0.00     0.000 A 
ENDROOT
BRANCH   2  21
ATOM     21  N   UNL d   1      33.241  20.741 -24.405  0.00  0.00    -0.238 NA
ATOM     22  C   UNL d   1      33.171  20.109 -24.931  0.00  0.00     0.120 C 
ENDBRANCH   2  21
TORSDOF 1
ENDMDL
MODEL 5
REMARK VINA RESULT:      -2.3      5.170      6.620
REMARK  1 active torsions:
REMARK  status: ('A' for Active; 'I' for Inactive)
REMARK    1  A    between atoms: N_13  and  C_2 
ROOT
ATOM      1  C   UNL d   1      30.529  16.583 -23.798  0.00  0.00     0.024 A 
ATOM      2  C   UNL d   1      31.002  16.063 -23.364  0.00  0.00     0.138 A 
ATOM      3  C   UNL d   1      31.824  16.156 -23.362  0.00  0.00     0.282 A 
ATOM      4  C   UNL d   1      30.877  17.193 -24.228  0.00  0.00     0.021 A 
ATOM      5  N   UNL d   1      32.163  16.768 -23.794  0.00  0.00    -0.271 N 
ATOM      6  C   UNL d   1      31.694  17.290 -24.229  0.00  0.00     0.067 A 
ATOM      7  C   UNL d   1      29.714  16.490 -23.800  0.00  0.00     0.005 A 
ATOM      8  C   UNL d   1      30.394  17.713 -24.663  0.00  0.00     0.040 A 
ATOM      9  C   UNL d   1      29.573  17.618 -24.664  0.00  0.00     0.196 A 
ATOM     10  C   UNL d   1      29.235  17.005 -24.231  0.00  0.00     0.039 A 
ATOM     11  O   UNL d   1      32.302  15.640 -22.930  0.00  0.00    -0.265 OA
ATOM     12  O   UNL d   1      29.094  18.134 -25.095  0.00  0.00    -0.287 OA
ATOM     13  C   UNL d   1      32.987  16.858 -23.789  0.00  0.00     0.102 C 
ATOM     14  C   UNL d   1      32.041  17.895 -24.655  0.00  0.00     0.018 A 
ATOM     15  C   UNL d   1      30.744  18.325 -25.094  0.00  0.00     0.003 A 
ATOM     16  C   UNL d   1      29.371  15.875 -23.366  0.00  0.00     0.000 A 
ATOM     17  C   UNL d   1      28.413  16.906 -24.228  0.00  0.00     0.003 A 
ATOM     18  C   UNL d   1      31.564  18.425 -25.097  0.00  0.00     0.002 A 
ATOM     19  C   UNL d   1      28.553  15.777 -23.364  0.00  0.00     0.000 A 
ATOM     20  C   UNL d   1      28.075  16.292 -23.795  0.00  0.00     0.000 A 
ENDROOT
BRANCH   2  21
ATOM     21  N   UNL d   1      30.660  15.453 -22.934  0.00  0.00    -0.238 NA
ATOM     22  C   UNL d   1      30.705  15.453 -22.110  0.00  0.00     0.120 C 
ENDBRANCH   2  21
TORSDOF 1
ENDMDL
MODEL 6
REMARK VINA RESULT:      -2.1      5.253      6.111
REMARK  1 active torsions:
REMARK  status: ('A' for Active; 'I' for Inactive)
REMARK    1  A    between atoms: N_13  and  C_2 
ROOT
ATOM      1  C   UNL d   1      30.636  17.071 -24.161  0.00  0.00     0.024 A 
ATOM      2  C   UNL d   1      30.194  17.613 -24.601  0.00  0.00     0.138 A 
ATOM      3  C   UNL d   1      29.370  17.616 -24.544  0.00  0.00     0.282 A 
ATOM      4  C   UNL d   1      30.254  16.536 -23.666  0.00  0.00     0.021 A 
ATOM      5  N   UNL d   1      28.996  17.077 -24.047  0.00  0.00    -0.271 N 
ATOM      6  C   UNL d   1      29.433  16.535 -23.605  0.00  0.00     0.067 A 
ATOM      7  C   UNL d   1      31.455  17.068 -24.219  0.00  0.00     0.005 A 
ATOM      8  C   UNL d   1      30.706  15.992 -23.225  0.00  0.00     0.040 A 
ATOM      9  C   UNL d   1      31.530  15.991 -23.284  0.00  0.00     0.196 A 
ATOM     10  C   UNL d   1      31.903  16.530 -23.782  0.00  0.00     0.039 A 
ATOM     11  O   UNL d   1      28.922  18.154 -24.981  0.00  0.00    -0.265 OA
ATOM     12  O   UNL d   1      31.978  15.453 -22.847  0.00  0.00    -0.287 OA
ATOM     13  C   UNL d   1      28.168  17.084 -23.992  0.00  0.00     0.102 C 
ATOM     14  C   UNL d   1      29.053  16.004 -23.114  0.00  0.00     0.018 A 
ATOM     15  C   UNL d   1      30.322  15.456 -22.729  0.00  0.00     0.003 A 
ATOM     16  C   UNL d   1      31.832  17.609 -24.718  0.00  0.00     0.000 A 
ATOM     17  C   UNL d   1      32.728  16.533 -23.845  0.00  0.00     0.003 A 
ATOM     18  C   UNL d   1      29.498  15.453 -22.666  0.00  0.00     0.002 A 
ATOM     19  C   UNL d   1      32.653  17.611 -24.779  0.00  0.00     0.000 A 
ATOM     20  C   UNL d   1      33.101  17.073 -24.343  0.00  0.00     0.000 A 
ENDROOT
BRANCH   2  21
ATOM     21  N   UNL d   1      30.570  18.149 -25.097  0.00  0.00    -0.238 NA
ATOM     22  C   UNL d   1      30.346  18.943 -25.093  0.00  0.00     0.120 C 
ENDBRANCH   2  21
TORSDOF 1
ENDMDL
MODEL 7
REMARK VINA RESULT:      -1.9      4.784      6.027
REMARK  1 active torsions:
REMARK  status: ('A' for Active; 'I' for Inactive)
REMARK    1  A    between atoms: N_13  and  C_2 
ROOT
ATOM      1  C   UNL d   1      30.797  17.165 -24.246  0.00  0.00     0.024 A 
ATOM      2  C   UNL d   1      31.268  17.738 -24.609  0.00  0.00     0.138 A 
ATOM      3  C   UNL d   1      32.085  17.742 -24.482  0.00  0.00     0.282 A 
ATOM      4  C   UNL d   1      31.141  16.598 -23.758  0.00  0.00     0.021 A 
ATOM      5  N   UNL d   1      32.421  17.171 -23.992  0.00  0.00    -0.271 N 
ATOM      6  C   UNL d   1      31.953  16.597 -23.628  0.00  0.00     0.067 A 
ATOM      7  C   UNL d   1      29.985  17.162 -24.373  0.00  0.00     0.005 A 
ATOM      8  C   UNL d   1      30.659  16.024 -23.395  0.00  0.00     0.040 A 
ATOM      9  C   UNL d   1      29.843  16.023 -23.524  0.00  0.00     0.196 A 
ATOM     10  C   UNL d   1      29.508  16.593 -24.014  0.00  0.00     0.039 A 
ATOM     11  O   UNL d   1      32.563  18.310 -24.841  0.00  0.00    -0.265 OA
ATOM     12  O   UNL d   1      29.365  15.454 -23.165  0.00  0.00    -0.287 OA
ATOM     13  C   UNL d   1      33.241  17.178 -23.867  0.00  0.00     0.102 C 
ATOM     14  C   UNL d   1      32.297  16.035 -23.143  0.00  0.00     0.018 A 
ATOM     15  C   UNL d   1      31.005  15.456 -22.906  0.00  0.00     0.003 A 
ATOM     16  C   UNL d   1      29.646  17.734 -24.864  0.00  0.00     0.000 A 
ATOM     17  C   UNL d   1      28.691  16.596 -24.146  0.00  0.00     0.003 A 
ATOM     18  C   UNL d   1      31.821  15.453 -22.773  0.00  0.00     0.002 A 
ATOM     19  C   UNL d   1      28.833  17.736 -24.995  0.00  0.00     0.000 A 
ATOM     20  C   UNL d   1      28.356  17.167 -24.636  0.00  0.00     0.000 A 
ENDROOT
BRANCH   2  21
ATOM     21  N   UNL d   1      30.930  18.305 -25.097  0.00  0.00    -0.238 NA
ATOM     22  C   UNL d   1      31.219  19.078 -25.094  0.00  0.00     0.120 C 
ENDBRANCH   2  21
TORSDOF 1
ENDMDL
MODEL 8
REMARK VINA RESULT:      -1.8      0.962      3.522
REMARK  1 active torsions:
REMARK  status: ('A' for Active; 'I' for Inactive)
REMARK    1  A    between atoms: N_13  and  C_2 
ROOT
ATOM      1  C   UNL d   1      33.212  21.268 -22.491  0.00  0.00     0.024 A 
ATOM      2  C   UNL d   1      33.212  20.553 -22.077  0.00  0.00     0.138 A 
ATOM      3  C   UNL d   1      33.202  20.554 -21.251  0.00  0.00     0.282 A 
ATOM      4  C   UNL d   1      33.203  21.981 -22.079  0.00  0.00     0.021 A 
ATOM      5  N   UNL d   1      33.193  21.271 -20.846  0.00  0.00    -0.271 N 
ATOM      6  C   UNL d   1      33.193  21.988 -21.256  0.00  0.00     0.067 A 
ATOM      7  C   UNL d   1      33.222  21.266 -23.312  0.00  0.00     0.005 A 
ATOM      8  C   UNL d   1      33.203  22.698 -22.503  0.00  0.00     0.040 A 
ATOM      9  C   UNL d   1      33.213  22.694 -23.329  0.00  0.00     0.196 A 
ATOM     10  C   UNL d   1      33.222  21.976 -23.732  0.00  0.00     0.039 A 
ATOM     11  O   UNL d   1      33.202  19.844 -20.831  0.00  0.00    -0.265 OA
ATOM     12  O   UNL d   1      33.214  23.404 -23.749  0.00  0.00    -0.287 OA
ATOM     13  C   UNL d   1      33.183  21.268 -20.017  0.00  0.00     0.102 C 
ATOM     14  C   UNL d   1      33.184  22.695 -20.846  0.00  0.00     0.018 A 
ATOM     15  C   UNL d   1      33.194  23.412 -22.089  0.00  0.00     0.003 A 
ATOM     16  C   UNL d   1      33.231  20.546 -23.719  0.00  0.00     0.000 A 
ATOM     17  C   UNL d   1      33.232  21.967 -24.559  0.00  0.00     0.003 A 
ATOM     18  C   UNL d   1      33.185  23.422 -21.262  0.00  0.00     0.002 A 
ATOM     19  C   UNL d   1      33.240  20.538 -24.543  0.00  0.00     0.000 A 
ATOM     20  C   UNL d   1      33.241  21.248 -24.962  0.00  0.00     0.000 A 
ENDROOT
BRANCH   2  21
ATOM     21  N   UNL d   1      33.221  19.839 -22.483  0.00  0.00    -0.238 NA
ATOM     22  C   UNL d   1      33.033  19.138 -22.091  0.00  0.00     0.120 C 
ENDBRANCH   2  21
TORSDOF 1
ENDMDL
MODEL 9
REMARK VINA RESULT:      -0.4      4.617      5.854
REMARK  1 active torsions:
REMARK  status: ('A' for Active; 'I' for Inactive)
REMARK    1  A    between atoms: N_13  and  C_2 
ROOT
ATOM      1  C   UNL d   1      30.558  17.285 -23.976  0.00  0.00     0.024 A 
ATOM      2  C   UNL d   1      30.142  17.893 -24.351  0.00  0.00     0.138 A 
ATOM      3  C   UNL d   1      30.553  18.507 -24.721  0.00  0.00     0.282 A 
ATOM      4  C   UNL d   1      31.381  17.292 -23.971  0.00  0.00     0.021 A 
ATOM      5  N   UNL d   1      31.377  18.507 -24.711  0.00  0.00    -0.271 N 
ATOM      6  C   UNL d   1      31.795  17.901 -24.338  0.00  0.00     0.067 A 
ATOM      7  C   UNL d   1      30.148  16.675 -23.609  0.00  0.00     0.005 A 
ATOM      8  C   UNL d   1      31.793  16.676 -23.591  0.00  0.00     0.040 A 
ATOM      9  C   UNL d   1      31.379  16.063 -23.223  0.00  0.00     0.196 A 
ATOM     10  C   UNL d   1      30.556  16.065 -23.233  0.00  0.00     0.039 A 
ATOM     11  O   UNL d   1      30.145  19.118 -25.097  0.00  0.00    -0.265 OA
ATOM     12  O   UNL d   1      31.788  15.453 -22.846  0.00  0.00    -0.287 OA
ATOM     13  C   UNL d   1      31.785  19.125 -25.083  0.00  0.00     0.102 C 
ATOM     14  C   UNL d   1      32.613  17.909 -24.334  0.00  0.00     0.018 A 
ATOM     15  C   UNL d   1      32.618  16.684 -23.587  0.00  0.00     0.003 A 
ATOM     16  C   UNL d   1      29.321  16.674 -23.617  0.00  0.00     0.000 A 
ATOM     17  C   UNL d   1      30.138  15.453 -22.865  0.00  0.00     0.003 A 
ATOM     18  C   UNL d   1      33.038  17.295 -23.955  0.00  0.00     0.002 A 
ATOM     19  C   UNL d   1      28.906  16.065 -23.251  0.00  0.00     0.000 A 
ATOM     20  C   UNL d   1      29.314  15.455 -22.875  0.00  0.00     0.000 A 
ENDROOT
BRANCH   2  21
ATOM     21  N   UNL d   1      29.321  17.890 -24.358  0.00  0.00    -0.238 NA
ATOM     22  C   UNL d   1      28.914  18.011 -25.066  0.00  0.00     0.120 C 
ENDBRANCH   2  21
TORSDOF 1
ENDMDL
