MODEL 1
REMARK VINA RESULT:      -1.9      0.000      0.000
REMARK  5 active torsions:
REMARK  status: ('A' for Active; 'I' for Inactive)
REMARK    1  A    between atoms: N_6  and  C_1 
REMARK    2  A    between atoms: C_12  and  C_2 
REMARK       I    between atoms: C_9  and  N_6 
REMARK       I    between atoms: C_11  and  N_7 
REMARK    3  A    between atoms: C_8  and  C_9 
REMARK    4  A    between atoms: O_24  and  C_11 
REMARK    5  A    between atoms: C_25  and  O_24 
ROOT
ATOM      1  C   UNL d   1      57.879  -0.997  30.488  0.00  0.00     0.119 A 
ATOM      2  C   UNL d   1      57.791  -0.180  30.569  0.00  0.00     0.084 A 
ATOM      3  C   UNL d   1      57.042  -0.769  31.497  0.00  0.00     0.049 A 
ATOM      4  C   UNL d   1      57.267  -0.047  31.201  0.00  0.00     0.016 A 
ATOM      5  S   UNL d   1      57.410  -1.366  31.069  0.00  0.00    -0.066 SA
ATOM      6  N   UNL d   1      56.222  -0.110  32.471  0.00  0.00    -0.251 N 
ATOM      7  C   UNL d   1      55.693  -0.135  33.114  0.00  0.00     0.378 C 
ATOM      8  C   UNL d   1      56.508  -0.805  32.146  0.00  0.00     0.091 A 
ATOM      9  C   UNL d   1      56.980   0.663  31.526  0.00  0.00     0.020 A 
ATOM     10  C   UNL d   1      56.457   0.619  32.163  0.00  0.00     0.085 A 
ATOM     11  O   UNL d   1      55.459  -0.864  33.422  0.00  0.00    -0.237 OA
ENDROOT
BRANCH   1  12
ATOM     12  N   UNL d   1      58.349  -1.384  29.930  0.00  0.00    -0.201 NA
ATOM     13  C   UNL d   1      58.546  -2.175  30.034  0.00  0.00     0.286 C 
ATOM     14  O   UNL d   1      58.273  -2.589  30.701  0.00  0.00    -0.265 OA
BRANCH  13  15
ATOM     15  C   UNL d   1      59.015  -2.561  29.477  0.00  0.00     0.088 A 
ATOM     16  S   UNL d   1      59.846  -2.502  29.395  0.00  0.00    -0.071 SA
ATOM     17  C   UNL d   1      60.073  -2.989  28.759  0.00  0.00     0.087 A 
ATOM     18 CL   UNL d   1      60.859  -3.099  28.479  0.00  0.00    -0.075 Cl
ATOM     19  C   UNL d   1      59.393  -3.342  28.455  0.00  0.00     0.019 A 
ATOM     20  C   UNL d   1      58.747  -3.074  28.903  0.00  0.00     0.013 A 
ENDBRANCH  13  15
ENDBRANCH   1  12
BRANCH   2  21
ATOM     21  C   UNL d   1      58.156   0.395  30.108  0.00  0.00     0.299 C 
ATOM     22  O   UNL d   1      58.891   0.682  30.320  0.00  0.00    -0.264 OA
ATOM     23  N   UNL d   1      57.778   0.681  29.430  0.00  0.00    -0.102 N 
ENDBRANCH   2  21
BRANCH   7  24
ATOM     24  O   UNL d   1      55.404   0.563  33.443  0.00  0.00    -0.257 OA
BRANCH  24  25
ATOM     25  C   UNL d   1      54.760   0.545  33.958  0.00  0.00     0.128 C 
ATOM     26  C   UNL d   1      54.870   0.599  34.771  0.00  0.00     0.029 C 
ENDBRANCH  24  25
ENDBRANCH   7  24
TORSDOF 5
ENDMDL
MODEL 2
REMARK VINA RESULT:      -0.7      2.153      5.177
REMARK  5 active torsions:
REMARK  status: ('A' for Active; 'I' for Inactive)
REMARK    1  A    between atoms: N_6  and  C_1 
REMARK    2  A    between atoms: C_12  and  C_2 
REMARK       I    between atoms: C_9  and  N_6 
REMARK       I    between atoms: C_11  and  N_7 
REMARK    3  A    between atoms: C_8  and  C_9 
REMARK    4  A    between atoms: O_24  and  C_11 
REMARK    5  A    between atoms: C_25  and  O_24 
ROOT
ATOM      1  C   UNL d   1      57.689  -0.824  30.697  0.00  0.00     0.119 A 
ATOM      2  C   UNL d   1      58.278  -0.518  30.206  0.00  0.00     0.084 A 
ATOM      3  C   UNL d   1      58.303  -1.844  30.102  0.00  0.00     0.049 A 
ATOM      4  C   UNL d   1      58.656  -1.161  29.839  0.00  0.00     0.016 A 
ATOM      5  S   UNL d   1      57.704  -1.654  30.632  0.00  0.00    -0.066 SA
ATOM      6  N   UNL d   1      59.193  -2.615  29.284  0.00  0.00    -0.251 N 
ATOM      7  C   UNL d   1      59.469  -3.348  28.999  0.00  0.00     0.378 C 
ATOM      8  C   UNL d   1      58.574  -2.588  29.821  0.00  0.00     0.091 A 
ATOM      9  C   UNL d   1      59.285  -1.181  29.293  0.00  0.00     0.020 A 
ATOM     10  C   UNL d   1      59.545  -1.917  29.022  0.00  0.00     0.085 A 
ATOM     11  O   UNL d   1      59.117  -4.047  29.261  0.00  0.00    -0.237 OA
ENDROOT
BRANCH   1  12
ATOM     12  N   UNL d   1      57.174  -0.386  31.170  0.00  0.00    -0.201 NA
ATOM     13  C   UNL d   1      56.817  -0.736  31.824  0.00  0.00     0.286 C 
ATOM     14  O   UNL d   1      56.975  -1.530  32.010  0.00  0.00    -0.265 OA
BRANCH  13  15
ATOM     15  C   UNL d   1      56.302  -0.298  32.297  0.00  0.00     0.088 A 
ATOM     16  S   UNL d   1      56.054  -0.488  33.073  0.00  0.00    -0.071 SA
ATOM     17  C   UNL d   1      55.537   0.113  33.327  0.00  0.00     0.087 A 
ATOM     18 CL   UNL d   1      55.153   0.150  34.074  0.00  0.00    -0.075 Cl
ATOM     19  C   UNL d   1      55.468   0.663  32.715  0.00  0.00     0.019 A 
ATOM     20  C   UNL d   1      55.943   0.402  32.086  0.00  0.00     0.013 A 
ENDBRANCH  13  15
ENDBRANCH   1  12
BRANCH   2  21
ATOM     21  C   UNL d   1      58.456   0.278  30.100  0.00  0.00     0.299 C 
ATOM     22  O   UNL d   1      58.156   0.682  29.457  0.00  0.00    -0.264 OA
ATOM     23  N   UNL d   1      58.940   0.668  30.646  0.00  0.00    -0.102 N 
ENDBRANCH   2  21
BRANCH   7  24
ATOM     24  O   UNL d   1      60.091  -3.378  28.459  0.00  0.00    -0.257 OA
BRANCH  24  25
ATOM     25  C   UNL d   1      60.818  -3.700  28.679  0.00  0.00     0.128 C 
ATOM     26  C   UNL d   1      61.002  -4.481  28.501  0.00  0.00     0.029 C 
ENDBRANCH  24  25
ENDBRANCH   7  24
TORSDOF 5
ENDMDL
