MODEL 1
REMARK VINA RESULT:      43.7      0.000      0.000
REMARK  4 active torsions:
REMARK  status: ('A' for Active; 'I' for Inactive)
REMARK    1  A    between atoms: C_2  and  N_1 
REMARK       I    between atoms: C_4  and  N_1 
REMARK    2  A    between atoms: C_3  and  C_2 
REMARK    3  A    between atoms: N_5  and  C_2 
REMARK    4  A    between atoms: C_6  and  C_4 
ROOT
ATOM      1  C   UNL d   1      60.121  49.701  50.901  0.00  0.00     0.170 C 
ENDROOT
BRANCH   1   2
ATOM      2  N   UNL d   1      60.698  49.704  50.288  0.00  0.00    -0.191 NA
ATOM      3  C   UNL d   1      61.160  49.008  50.131  0.00  0.00     0.280 C 
ATOM      4  O   UNL d   1      61.760  48.998  49.500  0.00  0.00    -0.265 OA
BRANCH   3   5
ATOM      5  C   UNL d   1      61.028  48.330  50.596  0.00  0.00     0.058 A 
ATOM      6  C   UNL d   1      61.203  48.315  51.412  0.00  0.00     0.007 A 
ATOM      7  C   UNL d   1      61.064  47.630  51.855  0.00  0.00     0.030 A 
ATOM      8  C   UNL d   1      60.752  46.950  51.505  0.00  0.00     0.140 A 
ATOM      9  C   UNL d   1      60.576  46.965  50.689  0.00  0.00     0.030 A 
ATOM     10  F   UNL d   1      60.620  46.321  51.893  0.00  0.00    -0.204 F 
ATOM     11  C   UNL d   1      60.717  47.668  50.226  0.00  0.00     0.007 A 
ENDBRANCH   3   5
ENDBRANCH   1   2
BRANCH   1  12
ATOM     12  C   UNL d   1      60.215  49.699  51.682  0.00  0.00     0.249 C 
ATOM     13 CL   UNL d   1      60.141  49.698  52.678  0.00  0.00    -0.075 Cl
ATOM     14 CL   UNL d   1      59.476  49.703  52.095  0.00  0.00    -0.075 Cl
ATOM     15 CL   UNL d   1      60.771  49.695  51.788  0.00  0.00    -0.075 Cl
ENDBRANCH   1  12
BRANCH   1  16
ATOM     16  N   UNL d   1      59.339  49.700  50.701  0.00  0.00    -0.286 N 
ATOM     17  C   UNL d   1      59.103  49.691  49.930  0.00  0.00     0.108 A 
ATOM     18  C   UNL d   1      58.310  49.690  49.735  0.00  0.00     0.142 A 
ATOM     19  O   UNL d   1      57.758  49.698  50.327  0.00  0.00    -0.300 OA
ATOM     20  C   UNL d   1      57.988  49.706  51.089  0.00  0.00     0.142 A 
ATOM     21  C   UNL d   1      58.779  49.708  51.272  0.00  0.00     0.108 A 
ENDBRANCH   1  16
TORSDOF 4
ENDMDL
