MODEL 1
REMARK VINA RESULT:      -5.5      0.000      0.000
REMARK  0 active torsions:
REMARK  status: ('A' for Active; 'I' for Inactive)
ROOT
ATOM      1  N   UNL d   1     -41.637-123.221 -54.355  0.00  0.00    -0.183 NA
ATOM      2  C   UNL d   1     -41.876-122.574 -54.811  0.00  0.00     0.339 A 
ATOM      3  N   UNL d   1     -41.858-121.758 -53.643  0.00  0.00    -0.201 NA
ATOM      4  C   UNL d   1     -41.986-121.849 -54.458  0.00  0.00     0.337 A 
ATOM      5  C   UNL d   1     -41.510-123.134 -53.546  0.00  0.00     0.184 A 
ATOM      6  C   UNL d   1     -41.619-122.409 -53.193  0.00  0.00     0.121 A 
ATOM      7  N   UNL d   1     -41.271-123.781 -53.091  0.00  0.00    -0.223 NA
ATOM      8  C   UNL d   1     -41.492-122.318 -52.379  0.00  0.00     0.031 A 
ATOM      9  O   UNL d   1     -42.005-122.658 -55.627  0.00  0.00    -0.260 OA
ATOM     10  O   UNL d   1     -42.227-121.195 -54.915  0.00  0.00    -0.260 OA
ATOM     11  C   UNL d   1     -41.253-122.969 -51.927  0.00  0.00     0.055 A 
ATOM     12  C   UNL d   1     -41.143-123.695 -52.280  0.00  0.00     0.107 A 
ATOM     13 BR   UNL d   1     -41.123-122.889 -51.117  0.00  0.00    -0.048 Br
ENDROOT
TORSDOF 0
ENDMDL
MODEL 2
REMARK VINA RESULT:      -5.5      2.094      2.713
REMARK  0 active torsions:
REMARK  status: ('A' for Active; 'I' for Inactive)
ROOT
ATOM      1  N   UNL d   1     -41.485-123.560 -52.817  0.00  0.00    -0.183 NA
ATOM      2  C   UNL d   1     -41.309-123.148 -52.123  0.00  0.00     0.339 A 
ATOM      3  N   UNL d   1     -41.502-121.918 -52.815  0.00  0.00    -0.201 NA
ATOM      4  C   UNL d   1     -41.317-122.334 -52.122  0.00  0.00     0.337 A 
ATOM      5  C   UNL d   1     -41.669-123.150 -53.508  0.00  0.00     0.184 A 
ATOM      6  C   UNL d   1     -41.678-122.336 -53.507  0.00  0.00     0.121 A 
ATOM      7  N   UNL d   1     -41.845-123.562 -54.201  0.00  0.00    -0.223 NA
ATOM      8  C   UNL d   1     -41.862-121.920 -54.199  0.00  0.00     0.031 A 
ATOM      9  O   UNL d   1     -41.123-123.558 -51.425  0.00  0.00    -0.260 OA
ATOM     10  O   UNL d   1     -41.140-121.916 -51.423  0.00  0.00    -0.260 OA
ATOM     11  C   UNL d   1     -42.038-122.338 -54.893  0.00  0.00     0.055 A 
ATOM     12  C   UNL d   1     -42.029-123.152 -54.894  0.00  0.00     0.107 A 
ATOM     13 BR   UNL d   1     -42.223-121.935 -55.587  0.00  0.00    -0.048 Br
ENDROOT
TORSDOF 0
ENDMDL
MODEL 3
REMARK VINA RESULT:      -4.7      2.235      3.029
REMARK  0 active torsions:
REMARK  status: ('A' for Active; 'I' for Inactive)
ROOT
ATOM      1  N   UNL d   1     -41.263-121.826 -52.213  0.00  0.00    -0.183 NA
ATOM      2  C   UNL d   1     -41.200-122.139 -51.451  0.00  0.00     0.339 A 
ATOM      3  N   UNL d   1     -41.236-123.453 -51.999  0.00  0.00    -0.201 NA
ATOM      4  C   UNL d   1     -41.187-122.946 -51.345  0.00  0.00     0.337 A 
ATOM      5  C   UNL d   1     -41.312-122.327 -52.865  0.00  0.00     0.184 A 
ATOM      6  C   UNL d   1     -41.299-123.134 -52.759  0.00  0.00     0.121 A 
ATOM      7  N   UNL d   1     -41.375-122.013 -53.626  0.00  0.00    -0.223 NA
ATOM      8  C   UNL d   1     -41.348-123.641 -53.412  0.00  0.00     0.031 A 
ATOM      9  O   UNL d   1     -41.151-121.637 -50.791  0.00  0.00    -0.260 OA
ATOM     10  O   UNL d   1     -41.124-123.264 -50.577  0.00  0.00    -0.260 OA
ATOM     11  C   UNL d   1     -41.411-123.322 -54.174  0.00  0.00     0.055 A 
ATOM     12  C   UNL d   1     -41.424-122.515 -54.280  0.00  0.00     0.107 A 
ATOM     13 BR   UNL d   1     -41.461-123.817 -54.831  0.00  0.00    -0.048 Br
ENDROOT
TORSDOF 0
ENDMDL
MODEL 4
REMARK VINA RESULT:      -3.9      3.726      4.594
REMARK  0 active torsions:
REMARK  status: ('A' for Active; 'I' for Inactive)
ROOT
ATOM      1  N   UNL d   1     -42.649-122.687 -49.310  0.00  0.00    -0.183 NA
ATOM      2  C   UNL d   1     -42.275-123.093 -48.694  0.00  0.00     0.339 A 
ATOM      3  N   UNL d   1     -41.137-123.290 -49.528  0.00  0.00    -0.201 NA
ATOM      4  C   UNL d   1     -41.526-123.392 -48.802  0.00  0.00     0.337 A 
ATOM      5  C   UNL d   1     -42.266-122.585 -50.032  0.00  0.00     0.184 A 
ATOM      6  C   UNL d   1     -41.516-122.883 -50.140  0.00  0.00     0.121 A 
ATOM      7  N   UNL d   1     -42.639-122.180 -50.647  0.00  0.00    -0.223 NA
ATOM      8  C   UNL d   1     -41.127-122.782 -50.865  0.00  0.00     0.031 A 
ATOM      9  O   UNL d   1     -42.659-123.199 -47.965  0.00  0.00    -0.260 OA
ATOM     10  O   UNL d   1     -41.147-123.801 -48.183  0.00  0.00    -0.260 OA
ATOM     11  C   UNL d   1     -41.506-122.375 -51.479  0.00  0.00     0.055 A 
ATOM     12  C   UNL d   1     -42.256-122.076 -51.371  0.00  0.00     0.107 A 
ATOM     13 BR   UNL d   1     -41.129-122.268 -52.204  0.00  0.00    -0.048 Br
ENDROOT
TORSDOF 0
ENDMDL
MODEL 5
REMARK VINA RESULT:      -3.6      3.496      4.188
REMARK  0 active torsions:
REMARK  status: ('A' for Active; 'I' for Inactive)
ROOT
ATOM      1  N   UNL d   1     -42.929-122.642 -50.067  0.00  0.00    -0.183 NA
ATOM      2  C   UNL d   1     -42.443-122.352 -50.669  0.00  0.00     0.339 A 
ATOM      3  N   UNL d   1     -41.298-122.651 -49.876  0.00  0.00    -0.201 NA
ATOM      4  C   UNL d   1     -41.634-122.357 -50.575  0.00  0.00     0.337 A 
ATOM      5  C   UNL d   1     -42.598-122.935 -49.372  0.00  0.00     0.184 A 
ATOM      6  C   UNL d   1     -41.789-122.940 -49.277  0.00  0.00     0.121 A 
ATOM      7  N   UNL d   1     -43.084-123.224 -48.770  0.00  0.00    -0.223 NA
ATOM      8  C   UNL d   1     -41.453-123.234 -48.579  0.00  0.00     0.031 A 
ATOM      9  O   UNL d   1     -42.772-122.056 -51.372  0.00  0.00    -0.260 OA
ATOM     10  O   UNL d   1     -41.142-122.065 -51.181  0.00  0.00    -0.260 OA
ATOM     11  C   UNL d   1     -41.945-123.523 -47.979  0.00  0.00     0.055 A 
ATOM     12  C   UNL d   1     -42.753-123.518 -48.073  0.00  0.00     0.107 A 
ATOM     13 BR   UNL d   1     -41.621-123.817 -47.280  0.00  0.00    -0.048 Br
ENDROOT
TORSDOF 0
ENDMDL
