MODEL 1
REMARK VINA RESULT:      22.8      0.000      0.000
REMARK  3 active torsions:
REMARK  status: ('A' for Active; 'I' for Inactive)
REMARK    1  A    between atoms: C_2  and  S_1 
REMARK    2  A    between atoms: N_6  and  S_1 
REMARK    3  A    between atoms: N_3  and  C_5 
ROOT
ATOM      1  C   UNL d   1     -57.358 -98.987 -44.352  0.00  0.00     0.106 A 
ATOM      2  C   UNL d   1     -57.849 -98.999 -43.689  0.00  0.00     0.036 A 
ATOM      3  C   UNL d   1     -58.662 -98.889 -43.779  0.00  0.00     0.127 A 
ATOM      4  C   UNL d   1     -57.680 -98.865 -45.103  0.00  0.00     0.012 A 
ATOM      5  C   UNL d   1     -58.984 -98.768 -44.530  0.00  0.00     0.024 A 
ATOM      6  C   UNL d   1     -58.493 -98.756 -45.193  0.00  0.00     0.002 A 
ATOM      7  C   UNL d   1     -57.183 -98.853 -45.774  0.00  0.00     0.001 C 
ENDROOT
BRANCH   1   8
ATOM      8  S   UNL d   1     -56.534 -99.097 -44.267  0.00  0.00     0.272 S 
ATOM      9  O   UNL d   1     -56.144 -98.781 -43.612  0.00  0.00    -0.200 OA
ATOM     10  O   UNL d   1     -56.111 -99.520 -44.836  0.00  0.00    -0.200 OA
BRANCH   8  11
ATOM     11  N   UNL d   1     -55.743 -99.311 -44.366  0.00  0.00    -0.226 N 
ATOM     12  C   UNL d   1     -55.492-100.079 -44.176  0.00  0.00     0.111 C 
ATOM     13  C   UNL d   1     -55.202 -98.756 -44.655  0.00  0.00     0.111 C 
ENDBRANCH   8  11
ENDBRANCH   1   8
BRANCH   3  14
ATOM     14  N   UNL d   1     -59.153 -98.902 -43.115  0.00  0.00    -0.114 N 
ATOM     15  O   UNL d   1     -59.959 -99.059 -43.204  0.00  0.00    -0.532 OA
ATOM     16  O   UNL d   1     -58.840 -98.757 -42.365  0.00  0.00    -0.532 OA
ENDBRANCH   3  14
TORSDOF 3
ENDMDL
MODEL 2
REMARK VINA RESULT:      24.3      1.052      3.021
REMARK  3 active torsions:
REMARK  status: ('A' for Active; 'I' for Inactive)
REMARK    1  A    between atoms: C_2  and  S_1 
REMARK    2  A    between atoms: N_6  and  S_1 
REMARK    3  A    between atoms: N_3  and  C_5 
ROOT
ATOM      1  C   UNL d   1     -57.626 -98.779 -44.609  0.00  0.00     0.106 A 
ATOM      2  C   UNL d   1     -56.897 -98.788 -44.221  0.00  0.00     0.036 A 
ATOM      3  C   UNL d   1     -56.199 -98.783 -44.660  0.00  0.00     0.127 A 
ATOM      4  C   UNL d   1     -57.655 -98.765 -45.434  0.00  0.00     0.012 A 
ATOM      5  C   UNL d   1     -56.228 -98.768 -45.485  0.00  0.00     0.024 A 
ATOM      6  C   UNL d   1     -56.957 -98.759 -45.874  0.00  0.00     0.002 A 
ATOM      7  C   UNL d   1     -58.392 -98.756 -45.826  0.00  0.00     0.001 C 
ENDROOT
BRANCH   1   8
ATOM      8  S   UNL d   1     -58.336 -98.785 -44.169  0.00  0.00     0.272 S 
ATOM      9  O   UNL d   1     -58.307 -98.793 -43.344  0.00  0.00    -0.200 OA
ATOM     10  O   UNL d   1     -59.065 -98.782 -44.557  0.00  0.00    -0.200 OA
BRANCH   8  11
ATOM     11  N   UNL d   1     -59.126 -98.789 -43.928  0.00  0.00    -0.226 N 
ATOM     12  C   UNL d   1     -59.315 -98.762 -43.120  0.00  0.00     0.111 C 
ATOM     13  C   UNL d   1     -59.727 -98.819 -44.495  0.00  0.00     0.111 C 
ENDBRANCH   8  11
ENDBRANCH   1   8
BRANCH   3  14
ATOM     14  N   UNL d   1     -55.470 -98.792 -44.272  0.00  0.00    -0.114 N 
ATOM     15  O   UNL d   1     -55.444 -98.756 -43.448  0.00  0.00    -0.532 OA
ATOM     16  O   UNL d   1     -54.770 -98.836 -44.707  0.00  0.00    -0.532 OA
ENDBRANCH   3  14
TORSDOF 3
ENDMDL
MODEL 3
REMARK VINA RESULT:      24.5      1.554      2.184
REMARK  3 active torsions:
REMARK  status: ('A' for Active; 'I' for Inactive)
REMARK    1  A    between atoms: C_2  and  S_1 
REMARK    2  A    between atoms: N_6  and  S_1 
REMARK    3  A    between atoms: N_3  and  C_5 
ROOT
ATOM      1  C   UNL d   1     -55.805 -99.990 -44.351  0.00  0.00     0.106 A 
ATOM      2  C   UNL d   1     -56.594 -99.982 -44.111  0.00  0.00     0.036 A 
ATOM      3  C   UNL d   1     -57.088 -99.364 -44.347  0.00  0.00     0.127 A 
ATOM      4  C   UNL d   1     -55.510 -99.382 -44.826  0.00  0.00     0.012 A 
ATOM      5  C   UNL d   1     -56.793 -98.756 -44.823  0.00  0.00     0.024 A 
ATOM      6  C   UNL d   1     -56.004 -98.764 -45.063  0.00  0.00     0.002 A 
ATOM      7  C   UNL d   1     -54.711 -99.391 -45.069  0.00  0.00     0.001 C 
ENDROOT
BRANCH   1   8
ATOM      8  S   UNL d   1     -55.300-100.613 -44.115  0.00  0.00     0.272 S 
ATOM      9  O   UNL d   1     -54.738-100.482 -43.524  0.00  0.00    -0.200 OA
ATOM     10  O   UNL d   1     -55.362-101.355 -44.470  0.00  0.00    -0.200 OA
BRANCH   8  11
ATOM     11  N   UNL d   1     -54.910-101.335 -44.028  0.00  0.00    -0.226 N 
ATOM     12  C   UNL d   1     -54.715-101.786 -44.698  0.00  0.00     0.111 C 
ATOM     13  C   UNL d   1     -54.715-101.606 -43.272  0.00  0.00     0.111 C 
ENDBRANCH   8  11
ENDBRANCH   1   8
BRANCH   3  14
ATOM     14  N   UNL d   1     -57.878 -99.356 -44.107  0.00  0.00    -0.114 N 
ATOM     15  O   UNL d   1     -58.064 -99.207 -43.317  0.00  0.00    -0.532 OA
ATOM     16  O   UNL d   1     -58.479 -99.496 -44.656  0.00  0.00    -0.532 OA
ENDBRANCH   3  14
TORSDOF 3
ENDMDL
MODEL 4
REMARK VINA RESULT:      24.6      1.349      1.822
REMARK  3 active torsions:
REMARK  status: ('A' for Active; 'I' for Inactive)
REMARK    1  A    between atoms: C_2  and  S_1 
REMARK    2  A    between atoms: N_6  and  S_1 
REMARK    3  A    between atoms: N_3  and  C_5 
ROOT
ATOM      1  C   UNL d   1     -57.316 -98.784 -44.557  0.00  0.00     0.106 A 
ATOM      2  C   UNL d   1     -57.792 -98.784 -45.232  0.00  0.00     0.036 A 
ATOM      3  C   UNL d   1     -58.614 -98.770 -45.154  0.00  0.00     0.127 A 
ATOM      4  C   UNL d   1     -57.661 -98.771 -43.807  0.00  0.00     0.012 A 
ATOM      5  C   UNL d   1     -58.959 -98.756 -44.404  0.00  0.00     0.024 A 
ATOM      6  C   UNL d   1     -58.483 -98.757 -43.729  0.00  0.00     0.002 A 
ATOM      7  C   UNL d   1     -57.180 -98.771 -43.125  0.00  0.00     0.001 C 
ENDROOT
BRANCH   1   8
ATOM      8  S   UNL d   1     -56.484 -98.799 -44.630  0.00  0.00     0.272 S 
ATOM      9  O   UNL d   1     -56.014 -98.787 -43.951  0.00  0.00    -0.200 OA
ATOM     10  O   UNL d   1     -56.133 -98.824 -45.376  0.00  0.00    -0.200 OA
BRANCH   8  11
ATOM     11  N   UNL d   1     -55.707 -98.817 -44.909  0.00  0.00    -0.226 N 
ATOM     12  C   UNL d   1     -55.072 -98.785 -44.375  0.00  0.00     0.111 C 
ATOM     13  C   UNL d   1     -55.566 -98.868 -45.722  0.00  0.00     0.111 C 
ENDBRANCH   8  11
ENDBRANCH   1   8
BRANCH   3  14
ATOM     14  N   UNL d   1     -59.089 -98.770 -45.828  0.00  0.00    -0.114 N 
ATOM     15  O   UNL d   1     -58.740 -98.759 -46.576  0.00  0.00    -0.532 OA
ATOM     16  O   UNL d   1     -59.912 -98.780 -45.755  0.00  0.00    -0.532 OA
ENDBRANCH   3  14
TORSDOF 3
ENDMDL
