MODEL 1
REMARK VINA RESULT:      58.2      0.000      0.000
REMARK  5 active torsions:
REMARK  status: ('A' for Active; 'I' for Inactive)
REMARK    1  A    between atoms: S_3  and  C_1 
REMARK    2  A    between atoms: C_7  and  S_3 
REMARK    3  A    between atoms: N_11  and  C_4 
REMARK    4  A    between atoms: C_10  and  C_5 
REMARK    5  A    between atoms: C_24  and  N_11 
ROOT
ATOM      1  C   UNL d   1      14.031  15.875  -4.611  0.00  0.00     0.042 A 
ATOM      2  C   UNL d   1      14.496  16.455  -4.245  0.00  0.00     0.006 A 
ATOM      3  C   UNL d   1      13.667  16.009  -5.328  0.00  0.00     0.006 A 
ATOM      4  C   UNL d   1      14.223  17.328  -5.350  0.00  0.00     0.094 A 
ATOM      5  C   UNL d   1      14.591  17.190  -4.622  0.00  0.00     0.024 A 
ATOM      6  C   UNL d   1      13.761  16.737  -5.703  0.00  0.00     0.024 A 
ATOM      7  O   UNL d   1      14.331  18.075  -5.714  0.00  0.00    -0.328 OA
ATOM      8  C   UNL d   1      14.426  18.810  -6.091  0.00  0.00     0.181 C 
ENDROOT
BRANCH   1   9
ATOM      9  C   UNL d   1      13.931  15.135  -4.239  0.00  0.00     0.186 A 
ATOM     10  N   UNL d   1      14.232  14.968  -3.490  0.00  0.00    -0.206 NA
ATOM     11  C   UNL d   1      14.027  14.185  -3.298  0.00  0.00     0.224 A 
ATOM     12  C   UNL d   1      13.604  13.883  -3.933  0.00  0.00     0.265 A 
ATOM     13  O   UNL d   1      13.536  14.453  -4.517  0.00  0.00    -0.260 OA
BRANCH  11  14
ATOM     14  S   UNL d   1      14.157  13.702  -2.653  0.00  0.00     0.231 S 
ATOM     15  O   UNL d   1      13.596  14.354  -2.393  0.00  0.00    -0.215 OA
ATOM     16  O   UNL d   1      14.695  13.064  -2.870  0.00  0.00    -0.215 OA
BRANCH  14  17
ATOM     17  C   UNL d   1      14.289  13.209  -1.989  0.00  0.00     0.090 A 
ATOM     18  C   UNL d   1      14.154  12.409  -2.040  0.00  0.00     0.012 A 
ATOM     19  C   UNL d   1      14.285  11.932  -1.385  0.00  0.00     0.007 A 
ATOM     20  C   UNL d   1      14.549  12.267  -0.688  0.00  0.00     0.035 A 
ATOM     21  C   UNL d   1      14.689  13.076  -0.627  0.00  0.00     0.007 A 
ATOM     22 BR   UNL d   1      14.685  11.781  -0.014  0.00  0.00    -0.049 Br
ATOM     23  C   UNL d   1      14.558  13.552  -1.282  0.00  0.00     0.012 A 
ENDBRANCH  14  17
ENDBRANCH  11  14
BRANCH  12  24
ATOM     24  N   UNL d   1      13.305  13.107  -3.940  0.00  0.00    -0.373 NA
BRANCH  24  25
ATOM     25  C   UNL d   1      12.902  12.416  -4.120  0.00  0.00     0.164 C 
ATOM     26  C   UNL d   1      12.774  11.781  -4.630  0.00  0.00     0.037 C 
ENDBRANCH  24  25
ENDBRANCH  12  24
ENDBRANCH   1   9
TORSDOF 5
ENDMDL
