MODEL 1
REMARK VINA RESULT:     106.3      0.000      0.000
REMARK  4 active torsions:
REMARK  status: ('A' for Active; 'I' for Inactive)
REMARK    1  A    between atoms: C_18  and  N_4 
REMARK    2  A    between atoms: C_11  and  C_6 
REMARK       I    between atoms: N_15  and  C_11 
REMARK    3  A    between atoms: C_26  and  N_15 
REMARK    4  A    between atoms: C_17  and  C_26 
ROOT
ATOM      1  C   UNL d   1     -50.479  26.635  33.676  0.00  0.00     0.155 A 
ATOM      2  C   UNL d   1     -50.937  27.314  33.587  0.00  0.00     0.091 A 
ATOM      3  N   UNL d   1     -50.847  25.894  33.655  0.00  0.00    -0.210 NA
ATOM      4  N   UNL d   1     -49.677  26.699  33.782  0.00  0.00    -0.275 N 
ATOM      5  C   UNL d   1     -49.313  27.430  33.802  0.00  0.00     0.175 A 
ATOM      6  C   UNL d   1     -49.770  28.108  33.714  0.00  0.00     0.094 A 
ATOM      7  N   UNL d   1     -52.123  26.512  33.458  0.00  0.00    -0.258 N 
ATOM      8  C   UNL d   1     -51.658  25.823  33.548  0.00  0.00     0.152 A 
ATOM      9  C   UNL d   1     -51.768  27.261  33.477  0.00  0.00     0.269 A 
ATOM     10  C   UNL d   1     -50.583  28.059  33.606  0.00  0.00     0.016 A 
ATOM     11  C   UNL d   1     -52.016  25.089  33.529  0.00  0.00     0.035 A 
ATOM     12  N   UNL d   1     -48.492  27.498  33.911  0.00  0.00    -0.128 N 
ATOM     13  C   UNL d   1     -52.937  26.456  33.350  0.00  0.00     0.084 A 
ATOM     14  O   UNL d   1     -52.214  27.938  33.390  0.00  0.00    -0.266 OA
ATOM     15  C   UNL d   1     -53.290  25.709  33.332  0.00  0.00     0.019 A 
ATOM     16  C   UNL d   1     -52.825  25.020  33.422  0.00  0.00     0.005 A 
ATOM     17  C   UNL d   1     -51.555  24.405  33.618  0.00  0.00     0.003 C 
ENDROOT
BRANCH   6  18
ATOM     18  C   UNL d   1     -49.407  28.855  33.734  0.00  0.00     0.282 C 
ATOM     19  N   UNL d   1     -48.677  28.953  34.106  0.00  0.00    -0.204 NA
ATOM     20  O   UNL d   1     -49.780  29.503  33.378  0.00  0.00    -0.265 OA
BRANCH  19  21
ATOM     21  C   UNL d   1     -48.319  29.691  34.125  0.00  0.00     0.127 C 
BRANCH  21  22
ATOM     22  C   UNL d   1     -47.758  29.870  34.710  0.00  0.00     0.119 A 
ATOM     23  O   UNL d   1     -47.363  30.591  34.803  0.00  0.00    -0.304 OA
ATOM     24  C   UNL d   1     -46.859  30.519  35.455  0.00  0.00     0.123 A 
ATOM     25  C   UNL d   1     -46.945  29.759  35.760  0.00  0.00     0.029 A 
ATOM     26  C   UNL d   1     -47.504  29.357  35.297  0.00  0.00     0.028 A 
ENDBRANCH  21  22
ENDBRANCH  19  21
ENDBRANCH   6  18
BRANCH   4  27
ATOM     27  C   UNL d   1     -49.215  26.015  33.871  0.00  0.00     0.067 A 
ATOM     28  C   UNL d   1     -48.768  25.827  34.537  0.00  0.00     0.018 A 
ATOM     29  C   UNL d   1     -48.398  25.102  34.394  0.00  0.00     0.002 A 
ATOM     30  C   UNL d   1     -48.620  24.840  33.631  0.00  0.00     0.002 A 
ATOM     31  C   UNL d   1     -49.123  25.411  33.319  0.00  0.00     0.018 A 
ENDBRANCH   4  27
TORSDOF 4
ENDMDL
MODEL 2
REMARK VINA RESULT:     108.4      2.137      5.147
REMARK  4 active torsions:
REMARK  status: ('A' for Active; 'I' for Inactive)
REMARK    1  A    between atoms: C_18  and  N_4 
REMARK    2  A    between atoms: C_11  and  C_6 
REMARK       I    between atoms: N_15  and  C_11 
REMARK    3  A    between atoms: C_26  and  N_15 
REMARK    4  A    between atoms: C_17  and  C_26 
ROOT
ATOM      1  C   UNL d   1     -49.683  27.722  35.792  0.00  0.00     0.155 A 
ATOM      2  C   UNL d   1     -49.458  27.794  35.003  0.00  0.00     0.091 A 
ATOM      3  N   UNL d   1     -49.257  28.130  36.373  0.00  0.00    -0.210 NA
ATOM      4  N   UNL d   1     -50.316  27.255  35.990  0.00  0.00    -0.275 N 
ATOM      5  C   UNL d   1     -50.737  26.852  35.418  0.00  0.00     0.175 A 
ATOM      6  C   UNL d   1     -50.512  26.924  34.631  0.00  0.00     0.094 A 
ATOM      7  N   UNL d   1     -48.387  28.677  35.377  0.00  0.00    -0.258 N 
ATOM      8  C   UNL d   1     -48.616  28.604  36.177  0.00  0.00     0.152 A 
ATOM      9  C   UNL d   1     -48.804  28.275  34.784  0.00  0.00     0.269 A 
ATOM     10  C   UNL d   1     -49.874  27.393  34.414  0.00  0.00     0.016 A 
ATOM     11  C   UNL d   1     -48.199  29.005  36.755  0.00  0.00     0.035 A 
ATOM     12  N   UNL d   1     -51.386  26.373  35.619  0.00  0.00    -0.128 N 
ATOM     13  C   UNL d   1     -47.745  29.149  35.166  0.00  0.00     0.084 A 
ATOM     14  O   UNL d   1     -48.587  28.341  34.000  0.00  0.00    -0.266 OA
ATOM     15  C   UNL d   1     -47.330  29.550  35.758  0.00  0.00     0.019 A 
ATOM     16  C   UNL d   1     -47.559  29.477  36.559  0.00  0.00     0.005 A 
ATOM     17  C   UNL d   1     -48.426  28.932  37.550  0.00  0.00     0.003 C 
ENDROOT
BRANCH   6  18
ATOM     18  C   UNL d   1     -50.936  26.517  34.043  0.00  0.00     0.282 C 
ATOM     19  N   UNL d   1     -50.978  25.693  34.055  0.00  0.00    -0.204 NA
ATOM     20  O   UNL d   1     -51.316  26.942  33.442  0.00  0.00    -0.265 OA
BRANCH  19  21
ATOM     21  C   UNL d   1     -51.396  25.292  33.475  0.00  0.00     0.127 C 
BRANCH  21  22
ATOM     22  C   UNL d   1     -51.363  24.464  33.431  0.00  0.00     0.119 A 
ATOM     23  O   UNL d   1     -50.683  23.998  33.498  0.00  0.00    -0.304 OA
ATOM     24  C   UNL d   1     -50.911  23.207  33.420  0.00  0.00     0.123 A 
ATOM     25  C   UNL d   1     -51.727  23.188  33.306  0.00  0.00     0.029 A 
ATOM     26  C   UNL d   1     -52.006  23.969  33.312  0.00  0.00     0.028 A 
ENDBRANCH  21  22
ENDBRANCH  19  21
ENDBRANCH   6  18
BRANCH   4  27
ATOM     27  C   UNL d   1     -50.543  27.183  36.785  0.00  0.00     0.067 A 
ATOM     28  C   UNL d   1     -50.815  27.799  37.261  0.00  0.00     0.018 A 
ATOM     29  C   UNL d   1     -50.978  27.486  38.007  0.00  0.00     0.002 A 
ATOM     30  C   UNL d   1     -50.805  26.668  37.994  0.00  0.00     0.002 A 
ATOM     31  C   UNL d   1     -50.538  26.493  37.236  0.00  0.00     0.018 A 
ENDBRANCH   4  27
TORSDOF 4
ENDMDL
