MODEL 1
REMARK VINA RESULT:      36.9      0.000      0.000
REMARK  3 active torsions:
REMARK  status: ('A' for Active; 'I' for Inactive)
REMARK    1  A    between atoms: N_9  and  C_3 
REMARK    2  A    between atoms: C_12  and  C_5 
REMARK    3  A    between atoms: C_17  and  N_10 
ROOT
ATOM      1  N   UNL d   1      46.072 -17.349  43.081  0.00  0.00    -0.196 N 
ATOM      2  C   UNL d   1      46.168 -18.155  42.932  0.00  0.00     0.167 A 
ATOM      3  C   UNL d   1      45.950 -17.084  43.850  0.00  0.00     0.152 A 
ATOM      4  N   UNL d   1      46.123 -16.947  42.366  0.00  0.00    -0.163 NA
ATOM      5  C   UNL d   1      46.279 -18.254  42.125  0.00  0.00     0.055 A 
ATOM      6  C   UNL d   1      46.252 -17.513  41.773  0.00  0.00     0.104 A 
ATOM      7  N   UNL d   1      46.142 -18.695  43.552  0.00  0.00    -0.227 NA
ATOM      8  C   UNL d   1      45.923 -17.625  44.479  0.00  0.00     0.057 A 
ATOM      9  C   UNL d   1      46.019 -18.431  44.330  0.00  0.00     0.086 A 
ATOM     10  C   UNL d   1      46.338 -17.354  40.968  0.00  0.00     0.023 C 
ATOM     11  C   UNL d   1      45.993 -18.976  44.954  0.00  0.00     0.021 C 
ENDROOT
BRANCH   3  12
ATOM     12  N   UNL d   1      45.853 -16.270  44.000  0.00  0.00    -0.286 N 
ATOM     13  C   UNL d   1      45.126 -15.987  44.285  0.00  0.00     0.101 A 
ATOM     14  C   UNL d   1      45.030 -15.181  44.434  0.00  0.00     0.100 A 
ATOM     15  N   UNL d   1      45.661 -14.659  44.297  0.00  0.00    -0.301 N 
ATOM     16  C   UNL d   1      46.379 -14.943  44.015  0.00  0.00     0.100 A 
ATOM     17  C   UNL d   1      46.475 -15.748  43.866  0.00  0.00     0.101 A 
BRANCH  15  18
ATOM     18  C   UNL d   1      45.564 -13.849  44.447  0.00  0.00     0.064 A 
ATOM     19  C   UNL d   1      46.123 -13.442  44.896  0.00  0.00     0.018 A 
ATOM     20  C   UNL d   1      45.880 -12.654  44.950  0.00  0.00     0.002 A 
ATOM     21  C   UNL d   1      45.176 -12.579  44.535  0.00  0.00     0.002 A 
ATOM     22  C   UNL d   1      44.979 -13.306  44.226  0.00  0.00     0.018 A 
ENDBRANCH  15  18
ENDBRANCH   3  12
BRANCH   5  23
ATOM     23  C   UNL d   1      46.401 -18.921  41.661  0.00  0.00     0.004 A 
ATOM     24  C   UNL d   1      46.403 -18.856  40.830  0.00  0.00     0.000 A 
ATOM     25  C   UNL d   1      46.526 -19.524  40.367  0.00  0.00     0.000 A 
ATOM     26  C   UNL d   1      46.647 -20.260  40.721  0.00  0.00     0.000 A 
ATOM     27  C   UNL d   1      46.646 -20.330  41.543  0.00  0.00     0.000 A 
ATOM     28  C   UNL d   1      46.523 -19.657  42.015  0.00  0.00     0.000 A 
ENDBRANCH   5  23
TORSDOF 3
ENDMDL
