MODEL 1
REMARK VINA RESULT:      62.6      0.000      0.000
REMARK  5 active torsions:
REMARK  status: ('A' for Active; 'I' for Inactive)
REMARK    1  A    between atoms: N_3  and  S_1 
REMARK    2  A    between atoms: C_5  and  S_1 
REMARK    3  A    between atoms: C_2  and  C_6 
REMARK       I    between atoms: N_4  and  C_2 
REMARK    4  A    between atoms: C_11  and  N_3 
REMARK    5  A    between atoms: O_18  and  C_14 
ROOT
ATOM      1  C   UNL d   1      60.575  47.885  50.883  0.00  0.00     0.058 A 
ATOM      2  C   UNL d   1      60.171  48.387  50.375  0.00  0.00     0.025 A 
ATOM      3  C   UNL d   1      60.149  49.201  50.515  0.00  0.00     0.094 A 
ATOM      4  C   UNL d   1      60.968  48.199  51.549  0.00  0.00     0.005 A 
ATOM      5  C   UNL d   1      60.946  49.013  51.689  0.00  0.00     0.002 A 
ATOM      6  C   UNL d   1      60.540  49.516  51.178  0.00  0.00     0.020 A 
ENDROOT
BRANCH   3   7
ATOM      7  N   UNL d   1      59.744  49.702  50.006  0.00  0.00    -0.158 NA
BRANCH   7   8
ATOM      8  S   UNL d   1      58.924  49.694  49.974  0.00  0.00     0.285 S 
ATOM      9  O   UNL d   1      58.958  49.685  49.149  0.00  0.00    -0.198 OA
ATOM     10  O   UNL d   1      58.880  49.703  50.790  0.00  0.00    -0.198 OA
BRANCH   8  11
ATOM     11  C   UNL d   1      58.101  49.686  49.936  0.00  0.00     0.107 A 
ATOM     12  C   UNL d   1      57.652  49.676  50.636  0.00  0.00     0.037 A 
ATOM     13  C   UNL d   1      56.835  49.668  50.591  0.00  0.00     0.095 A 
ATOM     14  C   UNL d   1      56.460  49.670  49.859  0.00  0.00     0.024 A 
ATOM     15  C   UNL d   1      56.895  49.680  49.168  0.00  0.00     0.003 A 
ATOM     16  C   UNL d   1      57.718  49.688  49.206  0.00  0.00     0.013 A 
BRANCH  13  17
ATOM     17  O   UNL d   1      56.381  49.658  51.293  0.00  0.00    -0.328 OA
ATOM     18  C   UNL d   1      56.196  48.928  51.665  0.00  0.00     0.181 C 
ENDBRANCH  13  17
ENDBRANCH   8  11
ENDBRANCH   7   8
ENDBRANCH   3   7
BRANCH   1  19
ATOM     19  C   UNL d   1      60.592  47.076  50.737  0.00  0.00     0.265 C 
ATOM     20  N   UNL d   1      61.216  46.750  50.299  0.00  0.00    -0.268 N 
ATOM     21  C   UNL d   1      61.235  45.937  50.151  0.00  0.00     0.110 A 
ATOM     22  C   UNL d   1      61.814  47.236  50.015  0.00  0.00     0.110 A 
ATOM     23  C   UNL d   1      61.856  45.618  49.717  0.00  0.00     0.142 A 
ATOM     24  O   UNL d   1      62.453  46.105  49.432  0.00  0.00    -0.300 OA
ATOM     25  C   UNL d   1      62.441  46.912  49.575  0.00  0.00     0.142 A 
ATOM     26  O   UNL d   1      59.995  46.590  51.021  0.00  0.00    -0.267 OA
ENDBRANCH   1  19
TORSDOF 5
ENDMDL
MODEL 2
REMARK VINA RESULT:      64.8      1.213      4.565
REMARK  5 active torsions:
REMARK  status: ('A' for Active; 'I' for Inactive)
REMARK    1  A    between atoms: N_3  and  S_1 
REMARK    2  A    between atoms: C_5  and  S_1 
REMARK    3  A    between atoms: C_2  and  C_6 
REMARK       I    between atoms: N_4  and  C_2 
REMARK    4  A    between atoms: C_11  and  N_3 
REMARK    5  A    between atoms: O_18  and  C_14 
ROOT
ATOM      1  C   UNL d   1      58.999  49.543  50.485  0.00  0.00     0.058 A 
ATOM      2  C   UNL d   1      59.765  49.329  50.281  0.00  0.00     0.025 A 
ATOM      3  C   UNL d   1      60.356  49.274  50.855  0.00  0.00     0.094 A 
ATOM      4  C   UNL d   1      58.815  49.707  51.283  0.00  0.00     0.005 A 
ATOM      5  C   UNL d   1      59.406  49.652  51.857  0.00  0.00     0.002 A 
ATOM      6  C   UNL d   1      60.175  49.437  51.650  0.00  0.00     0.020 A 
ENDROOT
BRANCH   3   7
ATOM      7  N   UNL d   1      61.121  49.060  50.649  0.00  0.00    -0.158 NA
BRANCH   7   8
ATOM      8  S   UNL d   1      61.299  48.285  50.443  0.00  0.00     0.285 S 
ATOM      9  O   UNL d   1      61.115  48.041  51.209  0.00  0.00    -0.198 OA
ATOM     10  O   UNL d   1      61.484  48.518  49.681  0.00  0.00    -0.198 OA
BRANCH   8  11
ATOM     11  C   UNL d   1      61.476  47.507  50.242  0.00  0.00     0.107 A 
ATOM     12  C   UNL d   1      61.105  46.878  50.640  0.00  0.00     0.037 A 
ATOM     13  C   UNL d   1      61.286  46.107  50.435  0.00  0.00     0.095 A 
ATOM     14  C   UNL d   1      61.832  45.954  49.838  0.00  0.00     0.024 A 
ATOM     15  C   UNL d   1      62.200  46.567  49.443  0.00  0.00     0.003 A 
ATOM     16  C   UNL d   1      62.022  47.345  49.645  0.00  0.00     0.013 A 
BRANCH  13  17
ATOM     17  O   UNL d   1      60.914  45.474  50.833  0.00  0.00    -0.328 OA
ATOM     18  C   UNL d   1      60.456  45.619  51.522  0.00  0.00     0.181 C 
ENDBRANCH  13  17
ENDBRANCH   8  11
ENDBRANCH   7   8
ENDBRANCH   3   7
BRANCH   1  19
ATOM     19  C   UNL d   1      58.416  49.596  49.907  0.00  0.00     0.265 C 
ATOM     20  N   UNL d   1      57.618  49.626  50.130  0.00  0.00    -0.268 N 
ATOM     21  C   UNL d   1      57.032  49.678  49.550  0.00  0.00     0.110 A 
ATOM     22  C   UNL d   1      57.414  49.602  50.925  0.00  0.00     0.110 A 
ATOM     23  C   UNL d   1      56.241  49.708  49.775  0.00  0.00     0.142 A 
ATOM     24  O   UNL d   1      56.037  49.685  50.570  0.00  0.00    -0.300 OA
ATOM     25  C   UNL d   1      56.614  49.632  51.151  0.00  0.00     0.142 A 
ATOM     26  O   UNL d   1      58.621  49.619  49.113  0.00  0.00    -0.267 OA
ENDBRANCH   1  19
TORSDOF 5
ENDMDL
