MODEL 1
REMARK VINA RESULT:      31.0      0.000      0.000
REMARK  6 active torsions:
REMARK  status: ('A' for Active; 'I' for Inactive)
REMARK    1  A    between atoms: N_5  and  C_1 
REMARK       I    between atoms: C_11  and  N_5 
REMARK    2  A    between atoms: C_22  and  C_7 
REMARK    3  A    between atoms: C_8  and  C_10 
REMARK    4  A    between atoms: C_20  and  C_11 
REMARK    5  A    between atoms: C_13  and  S_15 
REMARK    6  A    between atoms: S_15  and  C_20 
ROOT
ATOM      1  S   UNL d   1      46.326 -18.190  40.249  0.00  0.00    -0.061 SA
ENDROOT
BRANCH   1   2
ATOM      2  C   UNL d   1      46.371 -18.506  41.008  0.00  0.00     0.133 A 
ATOM      3  N   UNL d   1      46.194 -18.047  41.660  0.00  0.00    -0.141 NA
ATOM      4  N   UNL d   1      46.237 -18.357  42.415  0.00  0.00    -0.147 NA
ATOM      5  C   UNL d   1      46.461 -19.142  42.519  0.00  0.00     0.109 A 
ATOM      6  C   UNL d   1      46.641 -19.612  41.865  0.00  0.00     0.024 A 
ATOM      7  C   UNL d   1      46.596 -19.298  41.118  0.00  0.00     0.029 A 
BRANCH   5   8
ATOM      8  C   UNL d   1      46.506 -19.460  43.275  0.00  0.00     0.049 A 
ATOM      9  S   UNL d   1      46.453 -20.255  43.476  0.00  0.00    -0.085 SA
ATOM     10  C   UNL d   1      46.526 -20.330  44.292  0.00  0.00     0.035 A 
ATOM     11  C   UNL d   1      46.627 -19.563  44.605  0.00  0.00     0.007 A 
ATOM     12  C   UNL d   1      46.615 -19.026  43.979  0.00  0.00     0.009 A 
ENDBRANCH   5   8
ENDBRANCH   1   2
BRANCH   1  13
ATOM     13  C   UNL d   1      45.651 -17.799  40.002  0.00  0.00     0.099 C 
BRANCH  13  14
ATOM     14  C   UNL d   1      45.684 -17.305  39.342  0.00  0.00     0.288 C 
ATOM     15  N   UNL d   1      45.001 -17.152  38.910  0.00  0.00    -0.181 NA
ATOM     16  O   UNL d   1      46.395 -16.965  39.116  0.00  0.00    -0.265 OA
BRANCH  15  17
ATOM     17  C   UNL d   1      45.030 -16.664  38.257  0.00  0.00     0.219 A 
ATOM     18  S   UNL d   1      44.382 -16.401  37.817  0.00  0.00    -0.026 SA
ATOM     19  C   UNL d   1      44.662 -15.927  37.216  0.00  0.00     0.135 A 
ATOM     20  N   UNL d   1      45.480 -15.893  37.278  0.00  0.00    -0.139 NA
ATOM     21  N   UNL d   1      45.702 -16.347  37.919  0.00  0.00    -0.121 NA
BRANCH  19  22
ATOM     22  C   UNL d   1      44.204 -15.548  36.645  0.00  0.00     0.028 C 
ATOM     23  C   UNL d   1      44.444 -14.832  36.330  0.00  0.00     0.002 C 
ENDBRANCH  19  22
ENDBRANCH  15  17
ENDBRANCH  13  14
ENDBRANCH   1  13
TORSDOF 6
ENDMDL
