MODEL 1
REMARK VINA RESULT:      25.3      0.000      0.000
REMARK  5 active torsions:
REMARK  status: ('A' for Active; 'I' for Inactive)
REMARK       I    between atoms: N_2  and  C_1 
REMARK       I    between atoms: N_4  and  C_1 
REMARK    1  A    between atoms: C_8  and  N_2 
REMARK    2  A    between atoms: C_3  and  C_5 
REMARK    3  A    between atoms: O_11  and  C_3 
REMARK    4  A    between atoms: C_14  and  N_4 
REMARK    5  A    between atoms: C_15  and  N_4 
ROOT
ATOM      1  C   UNL d   1      57.338  49.607  50.169  0.00  0.00     0.063 A 
ATOM      2  C   UNL d   1      58.980  49.647  50.328  0.00  0.00     0.086 A 
ATOM      3  C   UNL d   1      57.819  49.652  49.497  0.00  0.00     0.007 A 
ATOM      4  C   UNL d   1      57.674  49.582  50.914  0.00  0.00     0.007 A 
ATOM      5  C   UNL d   1      58.644  49.672  49.583  0.00  0.00     0.019 A 
ATOM      6  C   UNL d   1      58.494  49.602  50.996  0.00  0.00     0.019 A 
ENDROOT
BRANCH   2   7
ATOM      7  N   UNL d   1      59.795  49.667  50.413  0.00  0.00    -0.192 NA
ATOM      8  C   UNL d   1      60.124  49.657  51.172  0.00  0.00     0.354 C 
ATOM      9  N   UNL d   1      60.935  49.677  51.267  0.00  0.00    -0.256 N 
ATOM     10  O   UNL d   1      59.631  49.627  51.839  0.00  0.00    -0.244 OA
BRANCH   9  11
ATOM     11  C   UNL d   1      61.422  49.706  50.597  0.00  0.00     0.085 C 
ATOM     12  C   UNL d   1      61.360  49.124  50.014  0.00  0.00     0.021 C 
ENDBRANCH   9  11
BRANCH   9  13
ATOM     13  C   UNL d   1      61.259  49.666  52.028  0.00  0.00     0.085 C 
ATOM     14  C   UNL d   1      62.079  49.672  52.120  0.00  0.00     0.021 C 
ENDBRANCH   9  13
ENDBRANCH   2   7
BRANCH   1  15
ATOM     15  C   UNL d   1      56.524  49.587  50.092  0.00  0.00     0.296 C 
ATOM     16  O   UNL d   1      56.046  49.582  50.757  0.00  0.00    -0.259 OA
BRANCH  15  17
ATOM     17  O   UNL d   1      56.185  49.572  49.339  0.00  0.00    -0.296 OA
ATOM     18  C   UNL d   1      56.358  48.953  48.832  0.00  0.00     0.185 C 
ENDBRANCH  15  17
ENDBRANCH   1  15
TORSDOF 5
ENDMDL
