MODEL 1
REMARK VINA RESULT:      50.6      0.000      0.000
REMARK  3 active torsions:
REMARK  status: ('A' for Active; 'I' for Inactive)
REMARK    1  A    between atoms: C_7  and  C_1 
REMARK    2  A    between atoms: C_13  and  C_7 
REMARK    3  A    between atoms: N_12  and  C_11 
ROOT
ATOM      1  C   UNL d   1      59.968  49.708  50.750  0.00  0.00     0.010 C 
ENDROOT
BRANCH   1   2
ATOM      2  C   UNL d   1      59.170  49.708  50.667  0.00  0.00     0.116 A 
ATOM      3  C   UNL d   1      58.678  49.707  51.328  0.00  0.00     0.288 A 
ATOM      4  N   UNL d   1      57.859  49.707  51.255  0.00  0.00    -0.152 NA
ATOM      5  O   UNL d   1      59.016  49.707  52.083  0.00  0.00    -0.265 OA
ATOM      6  C   UNL d   1      57.526  49.707  50.513  0.00  0.00     0.374 A 
ATOM      7  N   UNL d   1      57.993  49.707  49.838  0.00  0.00    -0.152 NA
ATOM      8  O   UNL d   1      56.689  49.707  50.444  0.00  0.00    -0.242 OA
ATOM      9  C   UNL d   1      58.810  49.708  49.921  0.00  0.00     0.288 A 
ATOM     10  O   UNL d   1      59.291  49.708  49.240  0.00  0.00    -0.265 OA
ENDBRANCH   1   2
BRANCH   1  11
ATOM     11  C   UNL d   1      60.390  48.998  50.701  0.00  0.00     0.000 A 
ATOM     12  C   UNL d   1      61.023  48.939  50.211  0.00  0.00     0.002 A 
ATOM     13  C   UNL d   1      61.449  48.255  50.147  0.00  0.00     0.018 A 
ATOM     14  C   UNL d   1      61.217  47.607  50.604  0.00  0.00     0.064 A 
ATOM     15  C   UNL d   1      60.564  47.662  51.112  0.00  0.00     0.018 A 
ATOM     16  C   UNL d   1      60.152  48.355  51.160  0.00  0.00     0.002 A 
BRANCH  14  17
ATOM     17  N   UNL d   1      61.649  46.904  50.544  0.00  0.00    -0.301 N 
ATOM     18  C   UNL d   1      62.064  46.742  49.861  0.00  0.00     0.100 C 
ATOM     19  C   UNL d   1      61.647  46.380  51.187  0.00  0.00     0.100 C 
ENDBRANCH  14  17
ENDBRANCH   1  11
TORSDOF 3
ENDMDL
