MODEL 1
REMARK VINA RESULT:      68.6      0.000      0.000
REMARK  3 active torsions:
REMARK  status: ('A' for Active; 'I' for Inactive)
REMARK    1  A    between atoms: C_9  and  N_1 
REMARK       I    between atoms: C_8  and  N_2 
REMARK    2  A    between atoms: C_3  and  C_9 
REMARK    3  A    between atoms: C_13  and  C_8 
ROOT
ATOM      1  N   UNL d   1     -51.297  25.152  33.414  0.00  0.00    -0.193 N 
ATOM      2  C   UNL d   1     -50.626  26.306  33.357  0.00  0.00     0.055 A 
ATOM      3  N   UNL d   1     -51.851  25.780  33.450  0.00  0.00    -0.163 NA
ATOM      4  C   UNL d   1     -50.553  25.486  33.358  0.00  0.00     0.089 A 
ATOM      5  C   UNL d   1     -51.484  24.351  33.434  0.00  0.00     0.303 C 
ATOM      6  C   UNL d   1     -51.425  26.489  33.413  0.00  0.00     0.104 A 
ATOM      7  O   UNL d   1     -50.867  23.793  33.394  0.00  0.00    -0.263 OA
ATOM      8  C   UNL d   1     -49.845  25.059  33.310  0.00  0.00     0.021 C 
ATOM      9  C   UNL d   1     -51.756  27.248  33.431  0.00  0.00     0.023 C 
ENDROOT
BRANCH   2  10
ATOM     10  C   UNL d   1     -49.997  26.851  33.307  0.00  0.00     0.089 C 
BRANCH  10  11
ATOM     11  N   UNL d   1     -49.701  27.208  33.992  0.00  0.00    -0.240 N 
ATOM     12  C   UNL d   1     -50.100  27.288  34.701  0.00  0.00     0.267 A 
ATOM     13  C   UNL d   1     -49.592  27.676  35.227  0.00  0.00     0.061 A 
ATOM     14  O   UNL d   1     -50.868  27.029  34.860  0.00  0.00    -0.267 OA
ATOM     15  C   UNL d   1     -49.694  27.903  36.011  0.00  0.00     0.005 A 
ATOM     16  C   UNL d   1     -48.887  27.832  34.844  0.00  0.00     0.061 A 
ATOM     17  C   UNL d   1     -49.087  28.289  36.411  0.00  0.00     0.000 A 
ATOM     18  C   UNL d   1     -48.374  28.447  36.026  0.00  0.00     0.000 A 
ATOM     19  C   UNL d   1     -48.272  28.219  35.241  0.00  0.00     0.005 A 
ATOM     20  C   UNL d   1     -48.945  27.543  34.072  0.00  0.00     0.267 A 
ATOM     21  O   UNL d   1     -48.358  27.583  33.490  0.00  0.00    -0.267 OA
ENDBRANCH  10  11
ENDBRANCH   2  10
BRANCH   5  22
ATOM     22  C   UNL d   1     -52.270  24.113  33.493  0.00  0.00     0.158 A 
ATOM     23  O   UNL d   1     -52.532  23.371  33.744  0.00  0.00    -0.300 OA
ATOM     24  C   UNL d   1     -53.356  23.374  33.717  0.00  0.00     0.123 A 
ATOM     25  C   UNL d   1     -53.603  24.105  33.454  0.00  0.00     0.029 A 
ATOM     26  C   UNL d   1     -52.928  24.568  33.313  0.00  0.00     0.032 A 
ENDBRANCH   5  22
TORSDOF 3
ENDMDL
