MODEL 1
REMARK VINA RESULT:      -6.1      0.000      0.000
REMARK  5 active torsions:
REMARK  status: ('A' for Active; 'I' for Inactive)
REMARK    1  A    between atoms: C_12  and  N_1 
REMARK    2  A    between atoms: C_6  and  C_5 
REMARK    3  A    between atoms: C_7  and  C_6 
REMARK       I    between atoms: N_9  and  C_7 
REMARK    4  A    between atoms: C_13  and  N_9 
REMARK    5  A    between atoms: C_16  and  C_12 
ROOT
ATOM      1  N   UNL d   1     -50.659  13.802  22.300  0.00  0.00    -0.235 N 
ATOM      2  C   UNL d   1     -50.412  13.489  21.576  0.00  0.00     0.298 A 
ATOM      3  C   UNL d   1     -50.435  13.293  22.898  0.00  0.00     0.274 A 
ATOM      4  S   UNL d   1     -50.030  12.773  21.734  0.00  0.00    -0.022 SA
ATOM      5  C   UNL d   1     -50.043  12.652  22.549  0.00  0.00     0.095 A 
ATOM      6  O   UNL d   1     -50.522  13.820  20.828  0.00  0.00    -0.259 OA
ATOM      7  O   UNL d   1     -50.571  13.395  23.698  0.00  0.00    -0.266 OA
ENDROOT
BRANCH   5   8
ATOM      8  C   UNL d   1     -49.721  12.002  22.949  0.00  0.00     0.074 C 
BRANCH   8   9
ATOM      9  C   UNL d   1     -48.908  11.864  22.921  0.00  0.00     0.280 C 
ATOM     10  N   UNL d   1     -48.451  11.948  23.602  0.00  0.00    -0.208 NA
ATOM     11  O   UNL d   1     -48.550  11.641  22.207  0.00  0.00    -0.265 OA
BRANCH  10  12
ATOM     12  C   UNL d   1     -47.640  11.809  23.572  0.00  0.00     0.085 A 
ATOM     13  C   UNL d   1     -47.345  11.051  23.698  0.00  0.00     0.019 A 
ATOM     14  C   UNL d   1     -46.530  10.914  23.667  0.00  0.00     0.002 A 
ATOM     15  C   UNL d   1     -46.012  11.537  23.510  0.00  0.00     0.000 A 
ATOM     16  C   UNL d   1     -46.312  12.300  23.384  0.00  0.00     0.002 A 
ATOM     17  C   UNL d   1     -47.123  12.429  23.416  0.00  0.00     0.019 A 
ENDBRANCH  10  12
ENDBRANCH   8   9
ENDBRANCH   5   8
BRANCH   1  18
ATOM     18  C   UNL d   1     -51.063  14.511  22.398  0.00  0.00     0.086 C 
BRANCH  18  19
ATOM     19  C   UNL d   1     -50.774  15.096  22.899  0.00  0.00     0.019 C 
ATOM     20  C   UNL d   1     -51.061  15.864  22.848  0.00  0.00     0.002 C 
ENDBRANCH  18  19
ENDBRANCH   1  18
TORSDOF 5
ENDMDL
MODEL 2
REMARK VINA RESULT:      -5.7      9.586     11.298
REMARK  5 active torsions:
REMARK  status: ('A' for Active; 'I' for Inactive)
REMARK    1  A    between atoms: C_12  and  N_1 
REMARK    2  A    between atoms: C_6  and  C_5 
REMARK    3  A    between atoms: C_7  and  C_6 
REMARK       I    between atoms: N_9  and  C_7 
REMARK    4  A    between atoms: C_13  and  N_9 
REMARK    5  A    between atoms: C_16  and  C_12 
ROOT
ATOM      1  N   UNL d   1     -38.747  13.956  16.813  0.00  0.00    -0.235 N 
ATOM      2  C   UNL d   1     -38.717  13.413  17.436  0.00  0.00     0.298 A 
ATOM      3  C   UNL d   1     -39.353  14.485  16.953  0.00  0.00     0.274 A 
ATOM      4  S   UNL d   1     -39.317  13.614  17.968  0.00  0.00    -0.022 SA
ATOM      5  C   UNL d   1     -39.709  14.275  17.671  0.00  0.00     0.095 A 
ATOM      6  O   UNL d   1     -38.191  12.783  17.522  0.00  0.00    -0.259 OA
ATOM      7  O   UNL d   1     -39.571  15.111  16.474  0.00  0.00    -0.266 OA
ENDROOT
BRANCH   5   8
ATOM      8  C   UNL d   1     -40.349  14.662  18.027  0.00  0.00     0.074 C 
BRANCH   8   9
ATOM      9  C   UNL d   1     -40.351  14.786  18.844  0.00  0.00     0.280 C 
ATOM     10  N   UNL d   1     -40.270  15.549  19.146  0.00  0.00    -0.208 NA
ATOM     11  O   UNL d   1     -40.435  14.143  19.360  0.00  0.00    -0.265 OA
BRANCH  10  12
ATOM     12  C   UNL d   1     -40.273  15.670  19.959  0.00  0.00     0.085 A 
ATOM     13  C   UNL d   1     -40.982  15.663  20.377  0.00  0.00     0.019 A 
ATOM     14  C   UNL d   1     -40.983  15.786  21.195  0.00  0.00     0.002 A 
ATOM     15  C   UNL d   1     -40.272  15.915  21.593  0.00  0.00     0.000 A 
ATOM     16  C   UNL d   1     -39.559  15.921  21.171  0.00  0.00     0.002 A 
ATOM     17  C   UNL d   1     -39.566  15.799  20.358  0.00  0.00     0.019 A 
ENDBRANCH  10  12
ENDBRANCH   8   9
ENDBRANCH   5   8
BRANCH   1  18
ATOM     18  C   UNL d   1     -38.246  13.959  16.161  0.00  0.00     0.086 C 
BRANCH  18  19
ATOM     19  C   UNL d   1     -38.476  13.614  15.451  0.00  0.00     0.019 C 
ATOM     20  C   UNL d   1     -37.940  13.543  14.833  0.00  0.00     0.002 C 
ENDBRANCH  18  19
ENDBRANCH   1  18
TORSDOF 5
ENDMDL
MODEL 3
REMARK VINA RESULT:      -5.6      1.018      1.291
REMARK  5 active torsions:
REMARK  status: ('A' for Active; 'I' for Inactive)
REMARK    1  A    between atoms: C_12  and  N_1 
REMARK    2  A    between atoms: C_6  and  C_5 
REMARK    3  A    between atoms: C_7  and  C_6 
REMARK       I    between atoms: N_9  and  C_7 
REMARK    4  A    between atoms: C_13  and  N_9 
REMARK    5  A    between atoms: C_16  and  C_12 
ROOT
ATOM      1  N   UNL d   1     -50.183  13.249  22.421  0.00  0.00    -0.235 N 
ATOM      2  C   UNL d   1     -50.045  12.681  21.837  0.00  0.00     0.298 A 
ATOM      3  C   UNL d   1     -49.631  13.156  23.015  0.00  0.00     0.274 A 
ATOM      4  S   UNL d   1     -49.394  12.231  22.077  0.00  0.00    -0.022 SA
ATOM      5  C   UNL d   1     -49.139  12.523  22.804  0.00  0.00     0.095 A 
ATOM      6  O   UNL d   1     -50.470  12.574  21.137  0.00  0.00    -0.259 OA
ATOM      7  O   UNL d   1     -49.571  13.604  23.697  0.00  0.00    -0.266 OA
ENDROOT
BRANCH   5   8
ATOM      8  C   UNL d   1     -48.501  12.235  23.247  0.00  0.00     0.074 C 
BRANCH   8   9
ATOM      9  C   UNL d   1     -47.743  12.228  22.920  0.00  0.00     0.280 C 
ATOM     10  N   UNL d   1     -47.107  12.539  23.343  0.00  0.00    -0.208 NA
ATOM     11  O   UNL d   1     -47.621  11.908  22.165  0.00  0.00    -0.265 OA
BRANCH  10  12
ATOM     12  C   UNL d   1     -46.353  12.531  23.015  0.00  0.00     0.085 A 
ATOM     13  C   UNL d   1     -45.847  11.897  23.155  0.00  0.00     0.019 A 
ATOM     14  C   UNL d   1     -45.089  11.890  22.825  0.00  0.00     0.002 A 
ATOM     15  C   UNL d   1     -44.839  12.520  22.355  0.00  0.00     0.000 A 
ATOM     16  C   UNL d   1     -45.350  13.158  22.214  0.00  0.00     0.002 A 
ATOM     17  C   UNL d   1     -46.102  13.157  22.546  0.00  0.00     0.019 A 
ENDBRANCH  10  12
ENDBRANCH   8   9
ENDBRANCH   5   8
BRANCH   1  18
ATOM     18  C   UNL d   1     -50.780  13.814  22.403  0.00  0.00     0.086 C 
BRANCH  18  19
ATOM     19  C   UNL d   1     -50.632  14.577  22.134  0.00  0.00     0.019 C 
ATOM     20  C   UNL d   1     -51.064  15.210  22.427  0.00  0.00     0.002 C 
ENDBRANCH  18  19
ENDBRANCH   1  18
TORSDOF 5
ENDMDL
MODEL 4
REMARK VINA RESULT:      -5.6     10.137     10.771
REMARK  5 active torsions:
REMARK  status: ('A' for Active; 'I' for Inactive)
REMARK    1  A    between atoms: C_12  and  N_1 
REMARK    2  A    between atoms: C_6  and  C_5 
REMARK    3  A    between atoms: C_7  and  C_6 
REMARK       I    between atoms: N_9  and  C_7 
REMARK    4  A    between atoms: C_13  and  N_9 
REMARK    5  A    between atoms: C_16  and  C_12 
ROOT
ATOM      1  N   UNL d   1     -39.711  14.792  17.930  0.00  0.00    -0.235 N 
ATOM      2  C   UNL d   1     -40.342  14.362  18.244  0.00  0.00     0.298 A 
ATOM      3  C   UNL d   1     -39.336  15.190  18.536  0.00  0.00     0.274 A 
ATOM      4  S   UNL d   1     -40.355  14.499  19.059  0.00  0.00    -0.022 SA
ATOM      5  C   UNL d   1     -39.734  15.010  19.240  0.00  0.00     0.095 A 
ATOM      6  O   UNL d   1     -40.870  13.881  17.830  0.00  0.00    -0.259 OA
ATOM      7  O   UNL d   1     -38.684  15.680  18.465  0.00  0.00    -0.266 OA
ENDROOT
BRANCH   5   8
ATOM      8  C   UNL d   1     -39.542  15.294  19.994  0.00  0.00     0.074 C 
BRANCH   8   9
ATOM      9  C   UNL d   1     -39.416  14.763  20.614  0.00  0.00     0.280 C 
ATOM     10  N   UNL d   1     -38.707  14.779  21.034  0.00  0.00    -0.208 NA
ATOM     11  O   UNL d   1     -40.004  14.214  20.813  0.00  0.00    -0.265 OA
BRANCH  10  12
ATOM     12  C   UNL d   1     -38.584  14.248  21.651  0.00  0.00     0.085 A 
ATOM     13  C   UNL d   1     -38.163  13.553  21.522  0.00  0.00     0.019 A 
ATOM     14  C   UNL d   1     -38.040  13.021  22.143  0.00  0.00     0.002 A 
ATOM     15  C   UNL d   1     -38.340  13.188  22.893  0.00  0.00     0.000 A 
ATOM     16  C   UNL d   1     -38.764  13.889  23.022  0.00  0.00     0.002 A 
ATOM     17  C   UNL d   1     -38.881  14.412  22.399  0.00  0.00     0.019 A 
ENDBRANCH  10  12
ENDBRANCH   8   9
ENDBRANCH   5   8
BRANCH   1  18
ATOM     18  C   UNL d   1     -39.498  14.814  17.136  0.00  0.00     0.086 C 
BRANCH  18  19
ATOM     19  C   UNL d   1     -38.935  14.294  16.836  0.00  0.00     0.019 C 
ATOM     20  C   UNL d   1     -38.705  14.343  16.050  0.00  0.00     0.002 C 
ENDBRANCH  18  19
ENDBRANCH   1  18
TORSDOF 5
ENDMDL
MODEL 5
REMARK VINA RESULT:      -5.4      1.676      2.518
REMARK  5 active torsions:
REMARK  status: ('A' for Active; 'I' for Inactive)
REMARK    1  A    between atoms: C_12  and  N_1 
REMARK    2  A    between atoms: C_6  and  C_5 
REMARK    3  A    between atoms: C_7  and  C_6 
REMARK       I    between atoms: N_9  and  C_7 
REMARK    4  A    between atoms: C_13  and  N_9 
REMARK    5  A    between atoms: C_16  and  C_12 
ROOT
ATOM      1  N   UNL d   1     -48.776  12.647  22.456  0.00  0.00    -0.235 N 
ATOM      2  C   UNL d   1     -48.213  13.241  22.571  0.00  0.00     0.298 A 
ATOM      3  C   UNL d   1     -48.531  11.973  22.848  0.00  0.00     0.274 A 
ATOM      4  S   UNL d   1     -47.611  12.925  23.043  0.00  0.00    -0.022 SA
ATOM      5  C   UNL d   1     -47.808  12.143  23.214  0.00  0.00     0.095 A 
ATOM      6  O   UNL d   1     -48.235  14.011  22.274  0.00  0.00    -0.259 OA
ATOM      7  O   UNL d   1     -48.927  11.258  22.877  0.00  0.00    -0.266 OA
ENDROOT
BRANCH   5   8
ATOM      8  C   UNL d   1     -47.359  11.619  23.672  0.00  0.00     0.074 C 
BRANCH   8   9
ATOM      9  C   UNL d   1     -46.539  11.591  23.581  0.00  0.00     0.280 C 
ATOM     10  N   UNL d   1     -46.158  10.866  23.487  0.00  0.00    -0.208 NA
ATOM     11  O   UNL d   1     -46.098  12.293  23.584  0.00  0.00    -0.265 OA
BRANCH  10  12
ATOM     12  C   UNL d   1     -45.341  10.841  23.396  0.00  0.00     0.085 A 
ATOM     13  C   UNL d   1     -44.910  10.207  23.698  0.00  0.00     0.019 A 
ATOM     14  C   UNL d   1     -44.089  10.183  23.606  0.00  0.00     0.002 A 
ATOM     15  C   UNL d   1     -43.700  10.795  23.211  0.00  0.00     0.000 A 
ATOM     16  C   UNL d   1     -44.135  11.432  22.908  0.00  0.00     0.002 A 
ATOM     17  C   UNL d   1     -44.951  11.449  23.003  0.00  0.00     0.019 A 
ENDBRANCH  10  12
ENDBRANCH   8   9
ENDBRANCH   5   8
BRANCH   1  18
ATOM     18  C   UNL d   1     -49.467  12.725  22.019  0.00  0.00     0.086 C 
BRANCH  18  19
ATOM     19  C   UNL d   1     -50.047  13.264  22.239  0.00  0.00     0.019 C 
ATOM     20  C   UNL d   1     -50.771  13.274  21.852  0.00  0.00     0.002 C 
ENDBRANCH  18  19
ENDBRANCH   1  18
TORSDOF 5
ENDMDL
