MODEL 1
REMARK VINA RESULT:      53.7      0.000      0.000
REMARK  5 active torsions:
REMARK  status: ('A' for Active; 'I' for Inactive)
REMARK    1  A    between atoms: N_5  and  C_1 
REMARK    2  A    between atoms: N_6  and  C_1 
REMARK       I    between atoms: C_2  and  N_3 
REMARK    3  A    between atoms: C_4  and  C_2 
REMARK    4  A    between atoms: N_3  and  N_5 
REMARK    5  A    between atoms: C_11  and  N_6 
ROOT
ATOM      1  N   UNL d   1      60.645  48.539  51.088  0.00  0.00    -0.273 N 
ATOM      2  H   UNL d   1      60.522  48.324  51.868  0.00  0.00     0.189 HD
ENDROOT
BRANCH   1   3
ATOM      3  N   UNL d   1      60.958  47.980  50.556  0.00  0.00    -0.264 N 
ATOM      4  C   UNL d   1      61.147  47.218  50.803  0.00  0.00     0.272 C 
ATOM      5  O   UNL d   1      61.026  47.004  51.584  0.00  0.00    -0.266 OA
ATOM      6  H   UNL d   1      61.082  48.199  49.758  0.00  0.00     0.190 HD
BRANCH   4   7
ATOM      7  C   UNL d   1      61.456  46.669  50.274  0.00  0.00     0.058 A 
ATOM      8  C   UNL d   1      61.133  45.903  50.229  0.00  0.00     0.011 A 
ATOM      9  C   UNL d   1      61.450  45.363  49.695  0.00  0.00     0.035 A 
ATOM     10 BR   UNL d   1      61.136  44.605  49.646  0.00  0.00    -0.049 Br
ATOM     11  C   UNL d   1      62.077  45.574  49.212  0.00  0.00     0.007 A 
ATOM     12  C   UNL d   1      62.400  46.330  49.253  0.00  0.00     0.001 A 
ATOM     13  C   UNL d   1      62.083  46.881  49.791  0.00  0.00     0.005 A 
ENDBRANCH   4   7
ENDBRANCH   1   3
BRANCH   1  14
ATOM     14  C   UNL d   1      60.465  49.294  50.828  0.00  0.00     0.191 C 
ATOM     15  S   UNL d   1      60.891  49.641  50.213  0.00  0.00    -0.039 SA
BRANCH  14  16
ATOM     16  N   UNL d   1      59.846  49.704  51.193  0.00  0.00    -0.331 N 
ATOM     17  H   UNL d   1      59.985  50.152  51.865  0.00  0.00     0.168 HD
BRANCH  16  18
ATOM     18  C   UNL d   1      59.101  49.653  50.870  0.00  0.00     0.058 A 
ATOM     19  C   UNL d   1      58.443  49.549  51.380  0.00  0.00     0.017 A 
ATOM     20  C   UNL d   1      57.682  49.496  51.060  0.00  0.00     0.002 A 
ATOM     21  C   UNL d   1      57.567  49.544  50.245  0.00  0.00     0.000 A 
ATOM     22  C   UNL d   1      58.225  49.647  49.736  0.00  0.00     0.002 A 
ATOM     23  C   UNL d   1      58.987  49.700  50.055  0.00  0.00     0.017 A 
ENDBRANCH  16  18
ENDBRANCH  14  16
ENDBRANCH   1  14
TORSDOF 5
ENDMDL
