MODEL 1
REMARK VINA RESULT:      -7.8      0.000      0.000
REMARK  2 active torsions:
REMARK  status: ('A' for Active; 'I' for Inactive)
REMARK    1  A    between atoms: C_5  and  C_1 
REMARK    2  A    between atoms: O_15  and  C_12 
ROOT
ATOM      1  C   UNL d   1     -48.000  12.371  22.981  0.00  0.00     0.042 A 
ATOM      2  C   UNL d   1     -47.364  12.899  22.991  0.00  0.00     0.045 A 
ATOM      3  C   UNL d   1     -47.924  11.627  23.329  0.00  0.00     0.196 A 
ATOM      4  C   UNL d   1     -47.213  11.411  23.688  0.00  0.00     0.045 A 
ATOM      5  C   UNL d   1     -46.653  12.684  23.349  0.00  0.00     0.196 A 
ATOM      6  C   UNL d   1     -46.577  11.940  23.698  0.00  0.00     0.045 A 
ATOM      7  O   UNL d   1     -48.560  11.098  23.320  0.00  0.00    -0.287 OA
ATOM      8  O   UNL d   1     -46.017  13.213  23.359  0.00  0.00    -0.287 OA
ENDROOT
BRANCH   1   9
ATOM      9  C   UNL d   1     -48.710  12.586  22.622  0.00  0.00     0.003 A 
ATOM     10  C   UNL d   1     -49.316  12.914  23.083  0.00  0.00     0.002 A 
ATOM     11  C   UNL d   1     -50.026  13.130  22.729  0.00  0.00     0.024 A 
ATOM     12  C   UNL d   1     -50.138  13.022  21.916  0.00  0.00     0.094 A 
ATOM     13  C   UNL d   1     -49.525  12.692  21.459  0.00  0.00     0.024 A 
ATOM     14  C   UNL d   1     -48.814  12.476  21.817  0.00  0.00     0.002 A 
BRANCH  12  15
ATOM     15  O   UNL d   1     -50.853  13.239  21.558  0.00  0.00    -0.328 OA
ATOM     16  C   UNL d   1     -51.064  14.037  21.511  0.00  0.00     0.181 C 
ENDBRANCH  12  15
ENDBRANCH   1   9
TORSDOF 2
ENDMDL
MODEL 2
REMARK VINA RESULT:      -7.6      1.501      3.562
REMARK  2 active torsions:
REMARK  status: ('A' for Active; 'I' for Inactive)
REMARK    1  A    between atoms: C_5  and  C_1 
REMARK    2  A    between atoms: O_15  and  C_12 
ROOT
ATOM      1  C   UNL d   1     -48.268  13.756  22.560  0.00  0.00     0.042 A 
ATOM      2  C   UNL d   1     -48.493  14.430  22.984  0.00  0.00     0.045 A 
ATOM      3  C   UNL d   1     -48.675  13.544  21.874  0.00  0.00     0.196 A 
ATOM      4  C   UNL d   1     -49.306  14.006  21.612  0.00  0.00     0.045 A 
ATOM      5  C   UNL d   1     -49.124  14.891  22.721  0.00  0.00     0.196 A 
ATOM      6  C   UNL d   1     -49.531  14.679  22.035  0.00  0.00     0.045 A 
ATOM      7  O   UNL d   1     -48.450  12.870  21.451  0.00  0.00    -0.287 OA
ATOM      8  O   UNL d   1     -49.349  15.565  23.144  0.00  0.00    -0.287 OA
ENDROOT
BRANCH   1   9
ATOM      9  C   UNL d   1     -47.637  13.294  22.823  0.00  0.00     0.003 A 
ATOM     10  C   UNL d   1     -47.786  12.640  23.309  0.00  0.00     0.002 A 
ATOM     11  C   UNL d   1     -47.158  12.177  23.573  0.00  0.00     0.024 A 
ATOM     12  C   UNL d   1     -46.382  12.362  23.356  0.00  0.00     0.094 A 
ATOM     13  C   UNL d   1     -46.240  13.022  22.866  0.00  0.00     0.024 A 
ATOM     14  C   UNL d   1     -46.871  13.483  22.603  0.00  0.00     0.002 A 
BRANCH  12  15
ATOM     15  O   UNL d   1     -45.750  11.898  23.620  0.00  0.00    -0.328 OA
ATOM     16  C   UNL d   1     -45.821  11.074  23.635  0.00  0.00     0.181 C 
ENDBRANCH  12  15
ENDBRANCH   1   9
TORSDOF 2
ENDMDL
MODEL 3
REMARK VINA RESULT:      -7.6      1.378      2.069
REMARK  2 active torsions:
REMARK  status: ('A' for Active; 'I' for Inactive)
REMARK    1  A    between atoms: C_5  and  C_1 
REMARK    2  A    between atoms: O_15  and  C_12 
ROOT
ATOM      1  C   UNL d   1     -47.233  13.177  22.788  0.00  0.00     0.042 A 
ATOM      2  C   UNL d   1     -46.508  12.814  22.622  0.00  0.00     0.045 A 
ATOM      3  C   UNL d   1     -47.276  13.998  22.861  0.00  0.00     0.196 A 
ATOM      4  C   UNL d   1     -46.596  14.455  22.769  0.00  0.00     0.045 A 
ATOM      5  C   UNL d   1     -45.828  13.271  22.530  0.00  0.00     0.196 A 
ATOM      6  C   UNL d   1     -45.871  14.092  22.603  0.00  0.00     0.045 A 
ATOM      7  O   UNL d   1     -48.000  14.361  23.027  0.00  0.00    -0.287 OA
ATOM      8  O   UNL d   1     -45.104  12.908  22.364  0.00  0.00    -0.287 OA
ENDROOT
BRANCH   1   9
ATOM      9  C   UNL d   1     -47.913  12.720  22.881  0.00  0.00     0.003 A 
ATOM     10  C   UNL d   1     -48.051  12.337  23.602  0.00  0.00     0.002 A 
ATOM     11  C   UNL d   1     -48.728  11.880  23.698  0.00  0.00     0.024 A 
ATOM     12  C   UNL d   1     -49.270  11.801  23.078  0.00  0.00     0.094 A 
ATOM     13  C   UNL d   1     -49.125  12.190  22.355  0.00  0.00     0.024 A 
ATOM     14  C   UNL d   1     -48.445  12.647  22.262  0.00  0.00     0.002 A 
BRANCH  12  15
ATOM     15  O   UNL d   1     -49.953  11.342  23.173  0.00  0.00    -0.328 OA
ATOM     16  C   UNL d   1     -50.656  11.695  23.428  0.00  0.00     0.181 C 
ENDBRANCH  12  15
ENDBRANCH   1   9
TORSDOF 2
ENDMDL
MODEL 4
REMARK VINA RESULT:      -7.5      1.078      1.714
REMARK  2 active torsions:
REMARK  status: ('A' for Active; 'I' for Inactive)
REMARK    1  A    between atoms: C_5  and  C_1 
REMARK    2  A    between atoms: O_15  and  C_12 
ROOT
ATOM      1  C   UNL d   1     -47.517  13.332  22.696  0.00  0.00     0.042 A 
ATOM      2  C   UNL d   1     -47.062  12.683  22.929  0.00  0.00     0.045 A 
ATOM      3  C   UNL d   1     -47.196  14.091  22.719  0.00  0.00     0.196 A 
ATOM      4  C   UNL d   1     -46.420  14.202  22.975  0.00  0.00     0.045 A 
ATOM      5  C   UNL d   1     -46.285  12.793  23.186  0.00  0.00     0.196 A 
ATOM      6  C   UNL d   1     -45.964  13.553  23.209  0.00  0.00     0.045 A 
ATOM      7  O   UNL d   1     -47.652  14.741  22.485  0.00  0.00    -0.287 OA
ATOM      8  O   UNL d   1     -45.830  12.144  23.419  0.00  0.00    -0.287 OA
ENDROOT
BRANCH   1   9
ATOM      9  C   UNL d   1     -48.293  13.221  22.439  0.00  0.00     0.003 A 
ATOM     10  C   UNL d   1     -48.439  13.064  21.639  0.00  0.00     0.002 A 
ATOM     11  C   UNL d   1     -49.212  12.953  21.380  0.00  0.00     0.024 A 
ATOM     12  C   UNL d   1     -49.842  12.998  21.914  0.00  0.00     0.094 A 
ATOM     13  C   UNL d   1     -49.688  13.157  22.717  0.00  0.00     0.024 A 
ATOM     14  C   UNL d   1     -48.912  13.268  22.974  0.00  0.00     0.002 A 
BRANCH  12  15
ATOM     15  O   UNL d   1     -50.621  12.886  21.654  0.00  0.00    -0.328 OA
ATOM     16  C   UNL d   1     -51.063  13.532  21.387  0.00  0.00     0.181 C 
ENDBRANCH  12  15
ENDBRANCH   1   9
TORSDOF 2
ENDMDL
MODEL 5
REMARK VINA RESULT:      -7.4      1.129      3.323
REMARK  2 active torsions:
REMARK  status: ('A' for Active; 'I' for Inactive)
REMARK    1  A    between atoms: C_5  and  C_1 
REMARK    2  A    between atoms: O_15  and  C_12 
ROOT
ATOM      1  C   UNL d   1     -48.816  12.596  22.996  0.00  0.00     0.042 A 
ATOM      2  C   UNL d   1     -49.297  13.181  23.329  0.00  0.00     0.045 A 
ATOM      3  C   UNL d   1     -49.153  11.904  22.700  0.00  0.00     0.196 A 
ATOM      4  C   UNL d   1     -49.970  11.795  22.737  0.00  0.00     0.045 A 
ATOM      5  C   UNL d   1     -50.114  13.073  23.365  0.00  0.00     0.196 A 
ATOM      6  C   UNL d   1     -50.451  12.380  23.069  0.00  0.00     0.045 A 
ATOM      7  O   UNL d   1     -48.672  11.319  22.367  0.00  0.00    -0.287 OA
ATOM      8  O   UNL d   1     -50.594  13.658  23.698  0.00  0.00    -0.287 OA
ENDROOT
BRANCH   1   9
ATOM      9  C   UNL d   1     -47.999  12.704  22.959  0.00  0.00     0.003 A 
ATOM     10  C   UNL d   1     -47.676  13.157  22.346  0.00  0.00     0.002 A 
ATOM     11  C   UNL d   1     -46.861  13.267  22.306  0.00  0.00     0.024 A 
ATOM     12  C   UNL d   1     -46.366  12.928  22.875  0.00  0.00     0.094 A 
ATOM     13  C   UNL d   1     -46.698  12.473  23.490  0.00  0.00     0.024 A 
ATOM     14  C   UNL d   1     -47.515  12.365  23.526  0.00  0.00     0.002 A 
BRANCH  12  15
ATOM     15  O   UNL d   1     -45.545  13.038  22.837  0.00  0.00    -0.328 OA
ATOM     16  C   UNL d   1     -45.188  13.227  22.115  0.00  0.00     0.181 C 
ENDBRANCH  12  15
ENDBRANCH   1   9
TORSDOF 2
ENDMDL
