MODEL 1
REMARK VINA RESULT:      -7.9      0.000      0.000
REMARK  3 active torsions:
REMARK  status: ('A' for Active; 'I' for Inactive)
REMARK    1  A    between atoms: C_2  and  N_1 
REMARK    2  A    between atoms: O_14  and  C_5 
REMARK    3  A    between atoms: O_15  and  C_12 
ROOT
ATOM      1  C   UNL d   1      53.857  32.189  53.875  0.00  0.00     0.092 A 
ATOM      2  C   UNL d   1      53.193  32.418  53.458  0.00  0.00     0.112 A 
ATOM      3  C   UNL d   1      52.728  31.848  53.081  0.00  0.00     0.050 A 
ATOM      4  C   UNL d   1      54.072  31.399  53.926  0.00  0.00     0.022 A 
ATOM      5  C   UNL d   1      52.942  31.053  53.131  0.00  0.00     0.096 A 
ATOM      6  C   UNL d   1      53.616  30.830  53.555  0.00  0.00     0.026 A 
ENDROOT
BRANCH   1   7
ATOM      7  N   UNL d   1      54.325  32.760  54.254  0.00  0.00    -0.240 N 
ATOM      8  C   UNL d   1      54.244  33.032  55.026  0.00  0.00     0.267 A 
ATOM      9  C   UNL d   1      54.819  33.592  55.168  0.00  0.00     0.066 A 
ATOM     10  O   UNL d   1      53.671  32.777  55.568  0.00  0.00    -0.267 OA
ATOM     11  C   UNL d   1      55.273  33.678  54.478  0.00  0.00     0.066 A 
ATOM     12  C   UNL d   1      54.966  33.163  53.912  0.00  0.00     0.267 A 
ATOM     13  O   UNL d   1      55.270  33.062  53.090  0.00  0.00    -0.267 OA
ENDBRANCH   1   7
BRANCH   2  14
ATOM     14  O   UNL d   1      52.977  33.216  53.407  0.00  0.00    -0.327 OA
ATOM     15  C   UNL d   1      52.288  33.438  53.005  0.00  0.00     0.181 C 
ENDBRANCH   2  14
BRANCH   5  16
ATOM     16  O   UNL d   1      52.478  30.475  52.753  0.00  0.00    -0.328 OA
ATOM     17  C   UNL d   1      52.439  29.706  53.056  0.00  0.00     0.181 C 
ENDBRANCH   5  16
TORSDOF 3
ENDMDL
MODEL 2
REMARK VINA RESULT:      -7.7      1.394      3.297
REMARK  3 active torsions:
REMARK  status: ('A' for Active; 'I' for Inactive)
REMARK    1  A    between atoms: C_2  and  N_1 
REMARK    2  A    between atoms: O_14  and  C_5 
REMARK    3  A    between atoms: O_15  and  C_12 
ROOT
ATOM      1  C   UNL d   1      52.519  33.636  53.682  0.00  0.00     0.092 A 
ATOM      2  C   UNL d   1      52.922  32.934  53.572  0.00  0.00     0.112 A 
ATOM      3  C   UNL d   1      53.551  32.738  54.070  0.00  0.00     0.050 A 
ATOM      4  C   UNL d   1      52.729  34.154  54.284  0.00  0.00     0.022 A 
ATOM      5  C   UNL d   1      53.764  33.257  54.676  0.00  0.00     0.096 A 
ATOM      6  C   UNL d   1      53.352  33.965  54.781  0.00  0.00     0.026 A 
ENDROOT
BRANCH   1   7
ATOM      7  N   UNL d   1      51.888  33.834  53.181  0.00  0.00    -0.240 N 
ATOM      8  C   UNL d   1      51.106  33.589  53.252  0.00  0.00     0.267 A 
ATOM      9  C   UNL d   1      50.673  33.915  52.642  0.00  0.00     0.066 A 
ATOM     10  O   UNL d   1      50.810  33.094  53.847  0.00  0.00    -0.267 OA
ATOM     11  C   UNL d   1      51.187  34.373  52.177  0.00  0.00     0.066 A 
ATOM     12  C   UNL d   1      51.938  34.323  52.511  0.00  0.00     0.267 A 
ATOM     13  O   UNL d   1      52.664  34.720  52.206  0.00  0.00    -0.267 OA
ENDBRANCH   1   7
BRANCH   2  14
ATOM     14  O   UNL d   1      52.709  32.412  52.964  0.00  0.00    -0.327 OA
ATOM     15  C   UNL d   1      53.077  31.675  52.898  0.00  0.00     0.181 C 
ENDBRANCH   2  14
BRANCH   5  16
ATOM     16  O   UNL d   1      54.396  33.065  55.182  0.00  0.00    -0.328 OA
ATOM     17  C   UNL d   1      55.051  33.566  55.243  0.00  0.00     0.181 C 
ENDBRANCH   5  16
TORSDOF 3
ENDMDL
MODEL 3
REMARK VINA RESULT:      -7.7      1.428      2.007
REMARK  3 active torsions:
REMARK  status: ('A' for Active; 'I' for Inactive)
REMARK    1  A    between atoms: C_2  and  N_1 
REMARK    2  A    between atoms: O_14  and  C_5 
REMARK    3  A    between atoms: O_15  and  C_12 
ROOT
ATOM      1  C   UNL d   1      52.948  33.337  53.557  0.00  0.00     0.092 A 
ATOM      2  C   UNL d   1      52.206  33.033  53.399  0.00  0.00     0.112 A 
ATOM      3  C   UNL d   1      52.131  32.276  53.077  0.00  0.00     0.050 A 
ATOM      4  C   UNL d   1      53.625  32.900  53.400  0.00  0.00     0.022 A 
ATOM      5  C   UNL d   1      52.810  31.835  52.919  0.00  0.00     0.096 A 
ATOM      6  C   UNL d   1      53.557  32.148  53.081  0.00  0.00     0.026 A 
ENDROOT
BRANCH   1   7
ATOM      7  N   UNL d   1      53.024  34.097  53.880  0.00  0.00    -0.240 N 
ATOM      8  C   UNL d   1      52.984  34.811  53.476  0.00  0.00     0.267 A 
ATOM      9  C   UNL d   1      53.088  35.421  54.009  0.00  0.00     0.066 A 
ATOM     10  O   UNL d   1      52.857  34.897  52.661  0.00  0.00    -0.267 OA
ATOM     11  C   UNL d   1      53.197  35.089  54.762  0.00  0.00     0.066 A 
ATOM     12  C   UNL d   1      53.157  34.269  54.682  0.00  0.00     0.267 A 
ATOM     13  O   UNL d   1      53.242  33.684  55.336  0.00  0.00    -0.267 OA
ENDBRANCH   1   7
BRANCH   2  14
ATOM     14  O   UNL d   1      51.523  33.476  53.558  0.00  0.00    -0.327 OA
ATOM     15  C   UNL d   1      50.777  33.180  53.357  0.00  0.00     0.181 C 
ENDBRANCH   2  14
BRANCH   5  16
ATOM     16  O   UNL d   1      52.741  31.071  52.595  0.00  0.00    -0.328 OA
ATOM     17  C   UNL d   1      52.975  30.409  53.031  0.00  0.00     0.181 C 
ENDBRANCH   5  16
TORSDOF 3
ENDMDL
MODEL 4
REMARK VINA RESULT:      -7.6      1.093      2.582
REMARK  3 active torsions:
REMARK  status: ('A' for Active; 'I' for Inactive)
REMARK    1  A    between atoms: C_2  and  N_1 
REMARK    2  A    between atoms: O_14  and  C_5 
REMARK    3  A    between atoms: O_15  and  C_12 
ROOT
ATOM      1  C   UNL d   1      53.095  33.615  53.584  0.00  0.00     0.092 A 
ATOM      2  C   UNL d   1      52.641  32.996  53.304  0.00  0.00     0.112 A 
ATOM      3  C   UNL d   1      51.976  33.150  52.839  0.00  0.00     0.050 A 
ATOM      4  C   UNL d   1      52.900  34.393  53.410  0.00  0.00     0.022 A 
ATOM      5  C   UNL d   1      51.778  33.932  52.663  0.00  0.00     0.096 A 
ATOM      6  C   UNL d   1      52.242  34.553  52.950  0.00  0.00     0.026 A 
ENDROOT
BRANCH   1   7
ATOM      7  N   UNL d   1      53.763  33.461  54.051  0.00  0.00    -0.240 N 
ATOM      8  C   UNL d   1      54.507  33.230  53.787  0.00  0.00     0.267 A 
ATOM      9  C   UNL d   1      54.997  33.140  54.433  0.00  0.00     0.066 A 
ATOM     10  O   UNL d   1      54.721  33.110  52.995  0.00  0.00    -0.267 OA
ATOM     11  C   UNL d   1      54.560  33.316  55.116  0.00  0.00     0.066 A 
ATOM     12  C   UNL d   1      53.796  33.515  54.879  0.00  0.00     0.267 A 
ATOM     13  O   UNL d   1      53.133  33.743  55.415  0.00  0.00    -0.267 OA
ENDBRANCH   1   7
BRANCH   2  14
ATOM     14  O   UNL d   1      52.839  32.210  53.480  0.00  0.00    -0.327 OA
ATOM     15  C   UNL d   1      52.414  31.586  53.143  0.00  0.00     0.181 C 
ENDBRANCH   2  14
BRANCH   5  16
ATOM     16  O   UNL d   1      51.109  34.094  52.196  0.00  0.00    -0.328 OA
ATOM     17  C   UNL d   1      50.418  34.389  52.541  0.00  0.00     0.181 C 
ENDBRANCH   5  16
TORSDOF 3
ENDMDL
MODEL 5
REMARK VINA RESULT:      -7.4      1.298      1.938
REMARK  3 active torsions:
REMARK  status: ('A' for Active; 'I' for Inactive)
REMARK    1  A    between atoms: C_2  and  N_1 
REMARK    2  A    between atoms: O_14  and  C_5 
REMARK    3  A    between atoms: O_15  and  C_12 
ROOT
ATOM      1  C   UNL d   1      52.908  33.276  53.591  0.00  0.00     0.092 A 
ATOM      2  C   UNL d   1      53.601  32.885  53.400  0.00  0.00     0.112 A 
ATOM      3  C   UNL d   1      53.568  32.127  53.074  0.00  0.00     0.050 A 
ATOM      4  C   UNL d   1      52.177  32.925  53.464  0.00  0.00     0.022 A 
ATOM      5  C   UNL d   1      52.834  31.773  52.945  0.00  0.00     0.096 A 
ATOM      6  C   UNL d   1      52.139  32.174  53.141  0.00  0.00     0.026 A 
ENDROOT
BRANCH   1   7
ATOM      7  N   UNL d   1      52.940  34.037  53.918  0.00  0.00    -0.240 N 
ATOM      8  C   UNL d   1      53.074  34.231  54.706  0.00  0.00     0.267 A 
ATOM      9  C   UNL d   1      53.059  35.043  54.782  0.00  0.00     0.066 A 
ATOM     10  O   UNL d   1      53.203  33.688  55.319  0.00  0.00    -0.267 OA
ATOM     11  C   UNL d   1      52.912  35.370  54.033  0.00  0.00     0.066 A 
ATOM     12  C   UNL d   1      52.839  34.747  53.499  0.00  0.00     0.267 A 
ATOM     13  O   UNL d   1      52.681  34.827  52.635  0.00  0.00    -0.267 OA
ENDBRANCH   1   7
BRANCH   2  14
ATOM     14  O   UNL d   1      54.338  33.240  53.529  0.00  0.00    -0.327 OA
ATOM     15  C   UNL d   1      55.035  32.839  53.333  0.00  0.00     0.181 C 
ENDBRANCH   2  14
BRANCH   5  16
ATOM     16  O   UNL d   1      52.795  31.009  52.617  0.00  0.00    -0.328 OA
ATOM     17  C   UNL d   1      52.542  30.369  53.075  0.00  0.00     0.181 C 
ENDBRANCH   5  16
TORSDOF 3
ENDMDL
MODEL 6
REMARK VINA RESULT:      -6.9      1.191      3.182
REMARK  3 active torsions:
REMARK  status: ('A' for Active; 'I' for Inactive)
REMARK    1  A    between atoms: C_2  and  N_1 
REMARK    2  A    between atoms: O_14  and  C_5 
REMARK    3  A    between atoms: O_15  and  C_12 
ROOT
ATOM      1  C   UNL d   1      53.079  32.528  53.588  0.00  0.00     0.092 A 
ATOM      2  C   UNL d   1      53.754  32.979  53.495  0.00  0.00     0.112 A 
ATOM      3  C   UNL d   1      53.704  33.804  53.520  0.00  0.00     0.050 A 
ATOM      4  C   UNL d   1      52.348  32.881  53.707  0.00  0.00     0.022 A 
ATOM      5  C   UNL d   1      52.970  34.161  53.640  0.00  0.00     0.096 A 
ATOM      6  C   UNL d   1      52.292  33.698  53.733  0.00  0.00     0.026 A 
ENDROOT
BRANCH   1   7
ATOM      7  N   UNL d   1      53.128  31.700  53.562  0.00  0.00    -0.240 N 
ATOM      8  C   UNL d   1      52.965  31.215  52.919  0.00  0.00     0.267 A 
ATOM      9  C   UNL d   1      53.085  30.439  53.138  0.00  0.00     0.066 A 
ATOM     10  O   UNL d   1      52.719  31.475  52.171  0.00  0.00    -0.267 OA
ATOM     11  C   UNL d   1      53.328  30.430  53.932  0.00  0.00     0.066 A 
ATOM     12  C   UNL d   1      53.355  31.210  54.194  0.00  0.00     0.267 A 
ATOM     13  O   UNL d   1      53.584  31.474  55.004  0.00  0.00    -0.267 OA
ENDBRANCH   1   7
BRANCH   2  14
ATOM     14  O   UNL d   1      54.492  32.621  53.374  0.00  0.00    -0.327 OA
ATOM     15  C   UNL d   1      55.175  33.083  53.309  0.00  0.00     0.181 C 
ENDBRANCH   2  14
BRANCH   5  16
ATOM     16  O   UNL d   1      52.913  34.991  53.667  0.00  0.00    -0.328 OA
ATOM     17  C   UNL d   1      52.851  35.383  54.392  0.00  0.00     0.181 C 
ENDBRANCH   5  16
TORSDOF 3
ENDMDL
