MODEL 1
REMARK VINA RESULT:       8.2      0.000      0.000
REMARK  4 active torsions:
REMARK  status: ('A' for Active; 'I' for Inactive)
REMARK    1  A    between atoms: C_30  and  N_11 
REMARK    2  A    between atoms: C_29  and  N_12 
REMARK    3  A    between atoms: C_16  and  C_13 
REMARK    4  A    between atoms: C_15  and  C_14 
ROOT
ATOM      1  N   UNL d   1      58.380  -9.536  31.348  0.00  0.00    -0.240 N 
ATOM      2  N   UNL d   1      59.196  -9.417  31.098  0.00  0.00    -0.240 N 
ATOM      3  C   UNL d   1      57.903  -9.599  30.654  0.00  0.00     0.144 A 
ATOM      4  C   UNL d   1      59.673  -9.355  31.793  0.00  0.00     0.144 A 
ATOM      5  C   UNL d   1      59.160  -9.435  32.486  0.00  0.00     0.097 A 
ATOM      6  C   UNL d   1      58.417  -9.519  29.972  0.00  0.00     0.097 A 
ATOM      7  C   UNL d   1      57.110  -9.710  30.367  0.00  0.00     0.285 A 
ATOM      8  C   UNL d   1      60.475  -9.243  32.062  0.00  0.00     0.285 A 
ATOM      9  C   UNL d   1      57.938  -9.582  29.273  0.00  0.00     0.270 A 
ATOM     10  C   UNL d   1      59.654  -9.370  33.181  0.00  0.00     0.270 A 
ATOM     11  N   UNL d   1      60.465  -9.252  32.922  0.00  0.00    -0.239 N 
ATOM     12  N   UNL d   1      57.128  -9.700  29.525  0.00  0.00    -0.239 N 
ATOM     13  C   UNL d   1      58.370  -9.545  32.203  0.00  0.00     0.094 A 
ATOM     14  C   UNL d   1      59.205  -9.409  30.251  0.00  0.00     0.094 A 
ATOM     15  O   UNL d   1      61.133  -9.145  31.597  0.00  0.00    -0.265 OA
ATOM     16  O   UNL d   1      59.404  -9.413  33.952  0.00  0.00    -0.266 OA
ATOM     17  O   UNL d   1      58.195  -9.538  28.503  0.00  0.00    -0.266 OA
ATOM     18  O   UNL d   1      56.447  -9.808  30.832  0.00  0.00    -0.265 OA
ENDROOT
BRANCH  13  19
ATOM     19  C   UNL d   1      57.712  -9.644  32.675  0.00  0.00     0.047 A 
ATOM     20  S   UNL d   1      57.723  -9.739  33.481  0.00  0.00    -0.085 SA
ATOM     21  C   UNL d   1      56.953  -9.817  33.724  0.00  0.00     0.035 A 
ATOM     22  C   UNL d   1      56.471  -9.769  33.068  0.00  0.00     0.007 A 
ATOM     23  C   UNL d   1      56.954  -9.661  32.423  0.00  0.00     0.009 A 
ENDBRANCH  13  19
BRANCH  11  24
ATOM     24  C   UNL d   1      61.110  -9.164  33.407  0.00  0.00     0.086 C 
ATOM     25  C   UNL d   1      61.099  -8.597  34.008  0.00  0.00     0.021 C 
ENDBRANCH  11  24
BRANCH  14  26
ATOM     26  C   UNL d   1      59.860  -9.311  29.793  0.00  0.00     0.047 A 
ATOM     27  S   UNL d   1      60.501  -9.816  29.764  0.00  0.00    -0.085 SA
ATOM     28  C   UNL d   1      61.026  -9.511  29.239  0.00  0.00     0.035 A 
ATOM     29  C   UNL d   1      60.717  -8.827  28.943  0.00  0.00     0.007 A 
ATOM     30  C   UNL d   1      60.000  -8.704  29.285  0.00  0.00     0.009 A 
ENDBRANCH  14  26
BRANCH  12  31
ATOM     31  C   UNL d   1      56.485  -9.787  29.027  0.00  0.00     0.086 C 
ATOM     32  C   UNL d   1      56.124  -9.121  28.701  0.00  0.00     0.021 C 
ENDBRANCH  12  31
TORSDOF 4
ENDMDL
MODEL 2
REMARK VINA RESULT:       9.3      9.632     10.759
REMARK  4 active torsions:
REMARK  status: ('A' for Active; 'I' for Inactive)
REMARK    1  A    between atoms: C_30  and  N_11 
REMARK    2  A    between atoms: C_29  and  N_12 
REMARK    3  A    between atoms: C_16  and  C_13 
REMARK    4  A    between atoms: C_15  and  C_14 
ROOT
ATOM      1  N   UNL d   1      58.548   0.350  32.397  0.00  0.00    -0.240 N 
ATOM      2  N   UNL d   1      57.754   0.213  32.092  0.00  0.00    -0.240 N 
ATOM      3  C   UNL d   1      58.493   0.432  33.236  0.00  0.00     0.144 A 
ATOM      4  C   UNL d   1      57.809   0.131  31.252  0.00  0.00     0.144 A 
ATOM      5  C   UNL d   1      58.640   0.216  31.023  0.00  0.00     0.097 A 
ATOM      6  C   UNL d   1      57.668   0.347  33.455  0.00  0.00     0.097 A 
ATOM      7  C   UNL d   1      58.937   0.567  33.948  0.00  0.00     0.285 A 
ATOM      8  C   UNL d   1      57.347  -0.005  30.548  0.00  0.00     0.285 A 
ATOM      9  C   UNL d   1      57.612   0.430  34.300  0.00  0.00     0.270 A 
ATOM     10  C   UNL d   1      58.682   0.131  30.174  0.00  0.00     0.270 A 
ATOM     11  N   UNL d   1      57.887  -0.005  29.878  0.00  0.00    -0.239 N 
ATOM     12  N   UNL d   1      58.402   0.565  34.600  0.00  0.00    -0.239 N 
ATOM     13  C   UNL d   1      59.084   0.350  31.731  0.00  0.00     0.094 A 
ATOM     14  C   UNL d   1      57.223   0.214  32.752  0.00  0.00     0.094 A 
ATOM     15  O   UNL d   1      56.543  -0.115  30.510  0.00  0.00    -0.265 OA
ATOM     16  O   UNL d   1      59.356   0.172  29.721  0.00  0.00    -0.266 OA
ATOM     17  O   UNL d   1      56.934   0.388  34.747  0.00  0.00    -0.266 OA
ATOM     18  O   UNL d   1      59.744   0.677  33.991  0.00  0.00    -0.265 OA
ENDROOT
BRANCH  13  19
ATOM     19  C   UNL d   1      59.892   0.460  31.765  0.00  0.00     0.047 A 
ATOM     20  S   UNL d   1      60.378   0.567  31.123  0.00  0.00    -0.085 SA
ATOM     21  C   UNL d   1      61.133   0.654  31.405  0.00  0.00     0.035 A 
ATOM     22  C   UNL d   1      61.110   0.600  32.219  0.00  0.00     0.007 A 
ATOM     23  C   UNL d   1      60.334   0.480  32.430  0.00  0.00     0.009 A 
ENDBRANCH  13  19
BRANCH  11  24
ATOM     24  C   UNL d   1      57.681  -0.115  29.101  0.00  0.00     0.086 C 
ATOM     25  C   UNL d   1      57.403   0.522  28.655  0.00  0.00     0.021 C 
ENDBRANCH  11  24
BRANCH  14  26
ATOM     26  C   UNL d   1      56.426   0.104  32.710  0.00  0.00     0.047 A 
ATOM     27  S   UNL d   1      56.045  -0.617  32.688  0.00  0.00    -0.085 SA
ATOM     28  C   UNL d   1      55.256  -0.473  32.647  0.00  0.00     0.035 A 
ATOM     29  C   UNL d   1      55.146   0.326  32.643  0.00  0.00     0.007 A 
ATOM     30  C   UNL d   1      55.867   0.682  32.682  0.00  0.00     0.009 A 
ENDBRANCH  14  26
BRANCH  12  31
ATOM     31  C   UNL d   1      58.598   0.675  35.385  0.00  0.00     0.086 C 
ATOM     32  C   UNL d   1      58.034   0.540  35.973  0.00  0.00     0.021 C 
ENDBRANCH  12  31
TORSDOF 4
ENDMDL
MODEL 3
REMARK VINA RESULT:      11.1      9.809     10.548
REMARK  4 active torsions:
REMARK  status: ('A' for Active; 'I' for Inactive)
REMARK    1  A    between atoms: C_30  and  N_11 
REMARK    2  A    between atoms: C_29  and  N_12 
REMARK    3  A    between atoms: C_16  and  C_13 
REMARK    4  A    between atoms: C_15  and  C_14 
ROOT
ATOM      1  N   UNL d   1      57.244   0.251  32.686  0.00  0.00    -0.240 N 
ATOM      2  N   UNL d   1      57.759   0.380  33.366  0.00  0.00    -0.240 N 
ATOM      3  C   UNL d   1      56.451   0.182  32.971  0.00  0.00     0.144 A 
ATOM      4  C   UNL d   1      58.551   0.449  33.080  0.00  0.00     0.144 A 
ATOM      5  C   UNL d   1      58.541   0.364  32.219  0.00  0.00     0.097 A 
ATOM      6  C   UNL d   1      56.470   0.267  33.825  0.00  0.00     0.097 A 
ATOM      7  C   UNL d   1      55.642   0.060  32.741  0.00  0.00     0.285 A 
ATOM      8  C   UNL d   1      59.358   0.572  33.330  0.00  0.00     0.285 A 
ATOM      9  C   UNL d   1      55.672   0.198  34.112  0.00  0.00     0.270 A 
ATOM     10  C   UNL d   1      59.347   0.435  31.944  0.00  0.00     0.270 A 
ATOM     11  N   UNL d   1      59.852   0.564  32.627  0.00  0.00    -0.239 N 
ATOM     12  N   UNL d   1      55.164   0.070  33.435  0.00  0.00    -0.239 N 
ATOM     13  C   UNL d   1      57.736   0.243  31.987  0.00  0.00     0.094 A 
ATOM     14  C   UNL d   1      57.270   0.388  34.058  0.00  0.00     0.094 A 
ATOM     15  O   UNL d   1      59.618   0.678  34.092  0.00  0.00    -0.265 OA
ATOM     16  O   UNL d   1      59.595   0.391  31.171  0.00  0.00    -0.266 OA
ATOM     17  O   UNL d   1      55.430   0.244  34.887  0.00  0.00    -0.266 OA
ATOM     18  O   UNL d   1      55.376  -0.046  31.977  0.00  0.00    -0.265 OA
ENDROOT
BRANCH  13  19
ATOM     19  C   UNL d   1      57.479   0.137  31.220  0.00  0.00     0.047 A 
ATOM     20  S   UNL d   1      57.572  -0.542  30.784  0.00  0.00    -0.085 SA
ATOM     21  C   UNL d   1      57.238  -0.408  30.058  0.00  0.00     0.035 A 
ATOM     22  C   UNL d   1      56.939   0.351  30.049  0.00  0.00     0.007 A 
ATOM     23  C   UNL d   1      57.095   0.679  30.776  0.00  0.00     0.009 A 
ENDBRANCH  13  19
BRANCH  11  24
ATOM     24  C   UNL d   1      60.658   0.661  32.609  0.00  0.00     0.086 C 
ATOM     25  C   UNL d   1      61.078   0.494  31.918  0.00  0.00     0.021 C 
ENDBRANCH  11  24
BRANCH  14  26
ATOM     26  C   UNL d   1      57.533   0.493  34.813  0.00  0.00     0.047 A 
ATOM     27  S   UNL d   1      57.065   0.516  35.481  0.00  0.00    -0.085 SA
ATOM     28  C   UNL d   1      57.548   0.631  36.111  0.00  0.00     0.035 A 
ATOM     29  C   UNL d   1      58.307   0.679  35.840  0.00  0.00     0.007 A 
ATOM     30  C   UNL d   1      58.297   0.594  35.041  0.00  0.00     0.009 A 
ENDBRANCH  14  26
BRANCH  12  31
ATOM     31  C   UNL d   1      54.353  -0.027  33.464  0.00  0.00     0.086 C 
ATOM     32  C   UNL d   1      53.881   0.555  33.811  0.00  0.00     0.021 C 
ENDBRANCH  12  31
TORSDOF 4
ENDMDL
