MODEL 1
REMARK VINA RESULT:      56.3      0.000      0.000
REMARK  7 active torsions:
REMARK  status: ('A' for Active; 'I' for Inactive)
REMARK    1  A    between atoms: N_8  and  C_3 
REMARK    2  A    between atoms: C_10  and  C_5 
REMARK    3  A    between atoms: C_15  and  N_8 
REMARK    4  A    between atoms: N_12  and  C_10 
REMARK    5  A    between atoms: C_21  and  N_12 
REMARK    6  A    between atoms: O_22  and  C_16 
REMARK    7  A    between atoms: C_23  and  C_21 
ROOT
ATOM      1  N   UNL d   1      14.727  14.115  -1.360  0.00  0.00    -0.209 NA
ATOM      2  N   UNL d   1      14.919  12.710  -1.163  0.00  0.00    -0.258 N 
ATOM      3  C   UNL d   1      14.162  13.970  -1.933  0.00  0.00     0.170 A 
ATOM      4  C   UNL d   1      15.114  13.487  -0.967  0.00  0.00     0.152 A 
ATOM      5  C   UNL d   1      13.967  13.193  -2.129  0.00  0.00     0.111 A 
ATOM      6  C   UNL d   1      14.339  12.561  -1.750  0.00  0.00     0.270 A 
ATOM      7  C   UNL d   1      15.679  13.633  -0.394  0.00  0.00     0.035 A 
ATOM      8  C   UNL d   1      15.291  12.077  -0.784  0.00  0.00     0.084 A 
ATOM      9  O   UNL d   1      14.133  11.779  -1.958  0.00  0.00    -0.266 OA
ATOM     10  C   UNL d   1      15.857  12.223  -0.211  0.00  0.00     0.019 A 
ATOM     11  C   UNL d   1      16.051  13.001  -0.016  0.00  0.00     0.005 A 
ATOM     12  C   UNL d   1      15.886  14.413  -0.186  0.00  0.00     0.003 C 
ENDROOT
BRANCH   3  13
ATOM     13  N   UNL d   1      13.787  14.623  -2.314  0.00  0.00    -0.227 NA
BRANCH  13  14
ATOM     14  C   UNL d   1      14.220  15.152  -2.764  0.00  0.00     0.083 A 
ATOM     15  C   UNL d   1      14.538  15.808  -2.393  0.00  0.00     0.021 A 
ATOM     16  C   UNL d   1      14.983  16.355  -2.841  0.00  0.00     0.026 A 
ATOM     17  C   UNL d   1      15.096  16.234  -3.637  0.00  0.00     0.094 A 
ATOM     18  C   UNL d   1      14.780  15.578  -4.012  0.00  0.00     0.026 A 
ATOM     19  C   UNL d   1      14.345  15.041  -3.580  0.00  0.00     0.021 A 
BRANCH  17  20
ATOM     20  O   UNL d   1      15.551  16.802  -4.075  0.00  0.00    -0.328 OA
ATOM     21  C   UNL d   1      15.247  17.578  -4.198  0.00  0.00     0.181 C 
ENDBRANCH  17  20
ENDBRANCH  13  14
ENDBRANCH   3  13
BRANCH   5  22
ATOM     22  C   UNL d   1      13.393  13.045  -2.711  0.00  0.00     0.107 C 
BRANCH  22  23
ATOM     23  N   UNL d   1      13.289  12.279  -2.998  0.00  0.00    -0.242 NA
BRANCH  23  24
ATOM     24  C   UNL d   1      12.788  12.147  -3.633  0.00  0.00     0.099 C 
BRANCH  24  25
ATOM     25  C   UNL d   1      13.059  12.281  -4.401  0.00  0.00     0.019 A 
ATOM     26  C   UNL d   1      12.769  12.915  -4.829  0.00  0.00     0.002 A 
ATOM     27  C   UNL d   1      13.039  13.049  -5.597  0.00  0.00     0.000 A 
ATOM     28  C   UNL d   1      13.599  12.549  -5.937  0.00  0.00     0.000 A 
ATOM     29  C   UNL d   1      13.890  11.914  -5.508  0.00  0.00     0.000 A 
ATOM     30  C   UNL d   1      13.620  11.780  -4.741  0.00  0.00     0.002 A 
ENDBRANCH  24  25
ENDBRANCH  23  24
ENDBRANCH  22  23
ENDBRANCH   5  22
TORSDOF 7
ENDMDL
MODEL 2
REMARK VINA RESULT:      56.6      0.826      3.727
REMARK  7 active torsions:
REMARK  status: ('A' for Active; 'I' for Inactive)
REMARK    1  A    between atoms: N_8  and  C_3 
REMARK    2  A    between atoms: C_10  and  C_5 
REMARK    3  A    between atoms: C_15  and  N_8 
REMARK    4  A    between atoms: N_12  and  C_10 
REMARK    5  A    between atoms: C_21  and  N_12 
REMARK    6  A    between atoms: O_22  and  C_16 
REMARK    7  A    between atoms: C_23  and  C_21 
ROOT
ATOM      1  N   UNL d   1      13.155  13.927  -4.273  0.00  0.00    -0.209 NA
ATOM      2  N   UNL d   1      13.103  12.496  -4.290  0.00  0.00    -0.258 N 
ATOM      3  C   UNL d   1      13.221  13.927  -3.458  0.00  0.00     0.170 A 
ATOM      4  C   UNL d   1      13.095  13.212  -4.701  0.00  0.00     0.152 A 
ATOM      5  C   UNL d   1      13.228  13.211  -3.047  0.00  0.00     0.111 A 
ATOM      6  C   UNL d   1      13.170  12.496  -3.454  0.00  0.00     0.270 A 
ATOM      7  C   UNL d   1      13.030  13.212  -5.516  0.00  0.00     0.035 A 
ATOM      8  C   UNL d   1      13.045  11.780  -4.697  0.00  0.00     0.084 A 
ATOM      9  O   UNL d   1      13.179  11.779  -3.027  0.00  0.00    -0.266 OA
ATOM     10  C   UNL d   1      12.979  11.780  -5.513  0.00  0.00     0.019 A 
ATOM     11  C   UNL d   1      12.972  12.497  -5.923  0.00  0.00     0.005 A 
ATOM     12  C   UNL d   1      13.021  13.928  -5.944  0.00  0.00     0.003 C 
ENDROOT
BRANCH   3  13
ATOM     13  N   UNL d   1      13.280  14.664  -3.051  0.00  0.00    -0.227 NA
BRANCH  13  14
ATOM     14  C   UNL d   1      13.859  15.207  -3.247  0.00  0.00     0.083 A 
ATOM     15  C   UNL d   1      13.813  15.577  -3.976  0.00  0.00     0.021 A 
ATOM     16  C   UNL d   1      14.398  16.134  -4.189  0.00  0.00     0.026 A 
ATOM     17  C   UNL d   1      15.006  16.303  -3.677  0.00  0.00     0.094 A 
ATOM     18  C   UNL d   1      15.056  15.935  -2.946  0.00  0.00     0.026 A 
ATOM     19  C   UNL d   1      14.488  15.391  -2.733  0.00  0.00     0.021 A 
BRANCH  17  20
ATOM     20  O   UNL d   1      15.592  16.872  -3.912  0.00  0.00    -0.328 OA
ATOM     21  C   UNL d   1      15.499  17.294  -4.635  0.00  0.00     0.181 C 
ENDBRANCH  17  20
ENDBRANCH  13  14
ENDBRANCH   3  13
BRANCH   5  22
ATOM     22  C   UNL d   1      13.295  13.211  -2.219  0.00  0.00     0.107 C 
BRANCH  22  23
ATOM     23  N   UNL d   1      13.716  12.610  -1.843  0.00  0.00    -0.242 NA
BRANCH  23  24
ATOM     24  C   UNL d   1      13.796  12.619  -1.028  0.00  0.00     0.099 C 
BRANCH  24  25
ATOM     25  C   UNL d   1      14.549  12.582  -0.690  0.00  0.00     0.019 A 
ATOM     26  C   UNL d   1      14.918  13.272  -0.446  0.00  0.00     0.002 A 
ATOM     27  C   UNL d   1      15.670  13.235  -0.109  0.00  0.00     0.000 A 
ATOM     28  C   UNL d   1      16.053  12.511  -0.016  0.00  0.00     0.000 A 
ATOM     29  C   UNL d   1      15.683  11.822  -0.260  0.00  0.00     0.000 A 
ATOM     30  C   UNL d   1      14.932  11.858  -0.597  0.00  0.00     0.002 A 
ENDBRANCH  24  25
ENDBRANCH  23  24
ENDBRANCH  22  23
ENDBRANCH   5  22
TORSDOF 7
ENDMDL
MODEL 3
REMARK VINA RESULT:      56.8      1.190      4.343
REMARK  7 active torsions:
REMARK  status: ('A' for Active; 'I' for Inactive)
REMARK    1  A    between atoms: N_8  and  C_3 
REMARK    2  A    between atoms: C_10  and  C_5 
REMARK    3  A    between atoms: C_15  and  N_8 
REMARK    4  A    between atoms: N_12  and  C_10 
REMARK    5  A    between atoms: C_21  and  N_12 
REMARK    6  A    between atoms: O_22  and  C_16 
REMARK    7  A    between atoms: C_23  and  C_21 
ROOT
ATOM      1  N   UNL d   1      14.035  15.154  -3.421  0.00  0.00    -0.209 NA
ATOM      2  N   UNL d   1      14.857  16.149  -2.800  0.00  0.00    -0.258 N 
ATOM      3  C   UNL d   1      13.920  14.783  -2.701  0.00  0.00     0.170 A 
ATOM      4  C   UNL d   1      14.505  15.843  -3.480  0.00  0.00     0.152 A 
ATOM      5  C   UNL d   1      14.272  15.089  -2.021  0.00  0.00     0.111 A 
ATOM      6  C   UNL d   1      14.739  15.768  -2.062  0.00  0.00     0.270 A 
ATOM      7  C   UNL d   1      14.620  16.214  -4.200  0.00  0.00     0.035 A 
ATOM      8  C   UNL d   1      15.324  16.829  -2.840  0.00  0.00     0.084 A 
ATOM      9  O   UNL d   1      15.089  16.068  -1.366  0.00  0.00    -0.266 OA
ATOM     10  C   UNL d   1      15.439  17.201  -3.560  0.00  0.00     0.019 A 
ATOM     11  C   UNL d   1      15.087  16.893  -4.241  0.00  0.00     0.005 A 
ATOM     12  C   UNL d   1      14.271  15.915  -4.895  0.00  0.00     0.003 C 
ENDROOT
BRANCH   3  13
ATOM     13  N   UNL d   1      13.441  14.088  -2.670  0.00  0.00    -0.227 NA
BRANCH  13  14
ATOM     14  C   UNL d   1      13.459  13.538  -3.275  0.00  0.00     0.083 A 
ATOM     15  C   UNL d   1      13.615  12.757  -3.084  0.00  0.00     0.021 A 
ATOM     16  C   UNL d   1      13.636  12.185  -3.693  0.00  0.00     0.026 A 
ATOM     17  C   UNL d   1      13.504  12.405  -4.464  0.00  0.00     0.094 A 
ATOM     18  C   UNL d   1      13.348  13.186  -4.659  0.00  0.00     0.026 A 
ATOM     19  C   UNL d   1      13.326  13.748  -4.070  0.00  0.00     0.021 A 
BRANCH  17  20
ATOM     20  O   UNL d   1      13.530  11.808  -5.069  0.00  0.00    -0.328 OA
ATOM     21  C   UNL d   1      13.011  11.860  -5.731  0.00  0.00     0.181 C 
ENDBRANCH  17  20
ENDBRANCH  13  14
ENDBRANCH   3  13
BRANCH   5  22
ATOM     22  C   UNL d   1      14.155  14.712  -1.290  0.00  0.00     0.107 C 
BRANCH  22  23
ATOM     23  N   UNL d   1      14.775  14.670  -0.747  0.00  0.00    -0.242 NA
BRANCH  23  24
ATOM     24  C   UNL d   1      14.690  14.223  -0.066  0.00  0.00     0.099 C 
BRANCH  24  25
ATOM     25  C   UNL d   1      14.817  13.408  -0.092  0.00  0.00     0.019 A 
ATOM     26  C   UNL d   1      15.577  13.120  -0.193  0.00  0.00     0.002 A 
ATOM     27  C   UNL d   1      15.705  12.306  -0.219  0.00  0.00     0.000 A 
ATOM     28  C   UNL d   1      15.075  11.780  -0.144  0.00  0.00     0.000 A 
ATOM     29  C   UNL d   1      14.315  12.068  -0.043  0.00  0.00     0.000 A 
ATOM     30  C   UNL d   1      14.187  12.882  -0.017  0.00  0.00     0.002 A 
ENDBRANCH  24  25
ENDBRANCH  23  24
ENDBRANCH  22  23
ENDBRANCH   5  22
TORSDOF 7
ENDMDL
