MODEL 1
REMARK VINA RESULT:      -9.2      0.000      0.000
REMARK  5 active torsions:
REMARK  status: ('A' for Active; 'I' for Inactive)
REMARK    1  A    between atoms: N_7  and  C_1 
REMARK    2  A    between atoms: C_15  and  N_2 
REMARK    3  A    between atoms: C_5  and  C_10 
REMARK       I    between atoms: C_10  and  N_7 
REMARK    4  A    between atoms: C_13  and  C_11 
REMARK    5  A    between atoms: C_24  and  C_15 
ROOT
ATOM      1  N   UNL d   1      50.522  33.974  52.107  0.00  0.00    -0.203 NA
ATOM      2  C   UNL d   1      50.030  34.578  52.419  0.00  0.00     0.299 C 
ATOM      3  O   UNL d   1      50.298  34.998  53.038  0.00  0.00    -0.263 OA
ENDROOT
BRANCH   1   4
ATOM      4  C   UNL d   1      51.280  33.827  52.451  0.00  0.00     0.121 A 
ATOM      5  C   UNL d   1      51.450  33.310  53.090  0.00  0.00     0.102 A 
ATOM      6  N   UNL d   1      52.259  33.347  53.232  0.00  0.00    -0.227 N 
ATOM      7  C   UNL d   1      50.895  32.848  53.502  0.00  0.00     0.022 C 
ATOM      8  N   UNL d   1      52.601  33.883  52.686  0.00  0.00    -0.164 NA
ATOM      9  C   UNL d   1      51.984  34.179  52.201  0.00  0.00     0.120 A 
ATOM     10  C   UNL d   1      52.050  34.732  51.573  0.00  0.00     0.024 C 
BRANCH   6  11
ATOM     11  C   UNL d   1      52.595  32.877  53.855  0.00  0.00     0.101 C 
BRANCH  11  12
ATOM     12  C   UNL d   1      53.338  33.085  54.173  0.00  0.00     0.019 A 
ATOM     13  C   UNL d   1      54.037  32.814  53.818  0.00  0.00     0.002 A 
ATOM     14  C   UNL d   1      54.783  33.018  54.132  0.00  0.00     0.000 A 
ATOM     15  C   UNL d   1      54.823  33.508  54.821  0.00  0.00     0.000 A 
ATOM     16  C   UNL d   1      54.139  33.774  55.169  0.00  0.00     0.000 A 
ATOM     17  C   UNL d   1      55.555  33.729  55.158  0.00  0.00     0.000 C 
ATOM     18  C   UNL d   1      53.385  33.569  54.854  0.00  0.00     0.002 A 
ENDBRANCH  11  12
ENDBRANCH   6  11
ENDBRANCH   1   4
BRANCH   2  19
ATOM     19  C   UNL d   1      48.630  34.820  51.754  0.00  0.00     0.168 A 
ATOM     20  N   UNL d   1      48.350  34.541  51.064  0.00  0.00    -0.121 NA
ATOM     21  O   UNL d   1      47.618  34.812  50.962  0.00  0.00    -0.211 OA
ATOM     22  C   UNL d   1      47.426  35.268  51.587  0.00  0.00     0.127 A 
ATOM     23  C   UNL d   1      48.052  35.275  52.081  0.00  0.00     0.053 A 
BRANCH  22  24
ATOM     24  C   UNL d   1      46.733  35.630  51.668  0.00  0.00     0.027 A 
ATOM     25  C   UNL d   1      46.197  35.607  51.075  0.00  0.00     0.028 A 
ATOM     26  C   UNL d   1      45.510  35.967  51.157  0.00  0.00     0.119 A 
ATOM     27  O   UNL d   1      44.885  36.036  50.672  0.00  0.00    -0.300 OA
ATOM     28  C   UNL d   1      45.325  36.361  51.822  0.00  0.00     0.119 A 
ATOM     29  C   UNL d   1      44.328  36.464  51.035  0.00  0.00     0.304 A 
ATOM     30  O   UNL d   1      44.602  36.665  51.749  0.00  0.00    -0.300 OA
ATOM     31  C   UNL d   1      45.857  36.387  52.419  0.00  0.00     0.026 A 
ATOM     32  C   UNL d   1      46.548  36.028  52.343  0.00  0.00     0.004 A 
ENDBRANCH  22  24
ENDBRANCH   2  19
TORSDOF 5
ENDMDL
MODEL 2
REMARK VINA RESULT:      -8.1      1.440      1.922
REMARK  5 active torsions:
REMARK  status: ('A' for Active; 'I' for Inactive)
REMARK    1  A    between atoms: N_7  and  C_1 
REMARK    2  A    between atoms: C_15  and  N_2 
REMARK    3  A    between atoms: C_5  and  C_10 
REMARK       I    between atoms: C_10  and  N_7 
REMARK    4  A    between atoms: C_13  and  C_11 
REMARK    5  A    between atoms: C_24  and  C_15 
ROOT
ATOM      1  N   UNL d   1      50.962  34.862  53.157  0.00  0.00    -0.203 NA
ATOM      2  C   UNL d   1      50.199  34.581  53.361  0.00  0.00     0.299 C 
ATOM      3  O   UNL d   1      50.130  33.832  53.617  0.00  0.00    -0.263 OA
ENDROOT
BRANCH   1   4
ATOM      4  C   UNL d   1      51.633  34.351  53.226  0.00  0.00     0.121 A 
ATOM      5  C   UNL d   1      51.872  33.759  52.681  0.00  0.00     0.102 A 
ATOM      6  N   UNL d   1      52.552  33.406  52.980  0.00  0.00    -0.227 N 
ATOM      7  C   UNL d   1      51.486  33.569  51.970  0.00  0.00     0.022 C 
ATOM      8  N   UNL d   1      52.743  33.772  53.710  0.00  0.00    -0.164 NA
ATOM      9  C   UNL d   1      52.165  34.361  53.857  0.00  0.00     0.120 A 
ATOM     10  C   UNL d   1      52.120  34.876  54.519  0.00  0.00     0.024 C 
BRANCH   6  11
ATOM     11  C   UNL d   1      52.923  32.780  52.543  0.00  0.00     0.101 C 
BRANCH  11  12
ATOM     12  C   UNL d   1      53.100  32.059  52.924  0.00  0.00     0.019 A 
ATOM     13  C   UNL d   1      53.808  31.972  53.349  0.00  0.00     0.002 A 
ATOM     14  C   UNL d   1      53.991  31.253  53.732  0.00  0.00     0.000 A 
ATOM     15  C   UNL d   1      53.446  30.607  53.684  0.00  0.00     0.000 A 
ATOM     16  C   UNL d   1      52.753  30.692  53.268  0.00  0.00     0.000 A 
ATOM     17  C   UNL d   1      53.601  29.876  54.057  0.00  0.00     0.000 C 
ATOM     18  C   UNL d   1      52.567  31.416  52.881  0.00  0.00     0.002 A 
ENDBRANCH  11  12
ENDBRANCH   6  11
ENDBRANCH   1   4
BRANCH   2  19
ATOM     19  C   UNL d   1      48.980  35.558  53.218  0.00  0.00     0.168 A 
ATOM     20  N   UNL d   1      48.869  36.270  53.553  0.00  0.00    -0.121 NA
ATOM     21  O   UNL d   1      48.173  36.553  53.318  0.00  0.00    -0.211 OA
ATOM     22  C   UNL d   1      47.835  36.022  52.829  0.00  0.00     0.127 A 
ATOM     23  C   UNL d   1      48.333  35.403  52.765  0.00  0.00     0.053 A 
BRANCH  22  24
ATOM     24  C   UNL d   1      47.133  36.125  52.489  0.00  0.00     0.027 A 
ATOM     25  C   UNL d   1      46.965  35.756  51.799  0.00  0.00     0.028 A 
ATOM     26  C   UNL d   1      46.268  35.859  51.463  0.00  0.00     0.119 A 
ATOM     27  O   UNL d   1      45.955  35.571  50.793  0.00  0.00    -0.300 OA
ATOM     28  C   UNL d   1      45.714  36.324  51.791  0.00  0.00     0.119 A 
ATOM     29  C   UNL d   1      45.222  35.855  50.714  0.00  0.00     0.304 A 
ATOM     30  O   UNL d   1      45.073  36.323  51.334  0.00  0.00    -0.300 OA
ATOM     31  C   UNL d   1      45.876  36.695  52.482  0.00  0.00     0.026 A 
ATOM     32  C   UNL d   1      46.573  36.597  52.824  0.00  0.00     0.004 A 
ENDBRANCH  22  24
ENDBRANCH   2  19
TORSDOF 5
ENDMDL
MODEL 3
REMARK VINA RESULT:      -8.1      1.756      7.430
REMARK  5 active torsions:
REMARK  status: ('A' for Active; 'I' for Inactive)
REMARK    1  A    between atoms: N_7  and  C_1 
REMARK    2  A    between atoms: C_15  and  N_2 
REMARK    3  A    between atoms: C_5  and  C_10 
REMARK       I    between atoms: C_10  and  N_7 
REMARK    4  A    between atoms: C_13  and  C_11 
REMARK    5  A    between atoms: C_24  and  C_15 
ROOT
ATOM      1  N   UNL d   1      50.007  34.658  52.252  0.00  0.00    -0.203 NA
ATOM      2  C   UNL d   1      50.115  33.877  52.541  0.00  0.00     0.299 C 
ATOM      3  O   UNL d   1      49.470  33.433  52.674  0.00  0.00    -0.263 OA
ENDROOT
BRANCH   1   4
ATOM      4  C   UNL d   1      49.226  34.951  52.111  0.00  0.00     0.121 A 
ATOM      5  C   UNL d   1      48.751  35.390  52.647  0.00  0.00     0.102 A 
ATOM      6  N   UNL d   1      48.039  35.554  52.270  0.00  0.00    -0.227 N 
ATOM      7  C   UNL d   1      48.967  35.615  53.417  0.00  0.00     0.022 C 
ATOM      8  N   UNL d   1      48.062  35.221  51.500  0.00  0.00    -0.164 NA
ATOM      9  C   UNL d   1      48.806  34.847  51.408  0.00  0.00     0.120 A 
ATOM     10  C   UNL d   1      49.090  34.436  50.733  0.00  0.00     0.024 C 
BRANCH   6  11
ATOM     11  C   UNL d   1      47.442  35.996  52.681  0.00  0.00     0.101 C 
BRANCH  11  12
ATOM     12  C   UNL d   1      46.659  36.001  52.391  0.00  0.00     0.019 A 
ATOM     13  C   UNL d   1      46.095  35.474  52.696  0.00  0.00     0.002 A 
ATOM     14  C   UNL d   1      45.311  35.473  52.411  0.00  0.00     0.000 A 
ATOM     15  C   UNL d   1      45.091  36.019  51.802  0.00  0.00     0.000 A 
ATOM     16  C   UNL d   1      45.642  36.536  51.503  0.00  0.00     0.000 A 
ATOM     17  C   UNL d   1      44.314  36.043  51.496  0.00  0.00     0.000 C 
ATOM     18  C   UNL d   1      46.434  36.537  51.790  0.00  0.00     0.002 A 
ENDBRANCH  11  12
ENDBRANCH   6  11
ENDBRANCH   1   4
BRANCH   2  19
ATOM     19  C   UNL d   1      51.579  33.370  52.789  0.00  0.00     0.168 A 
ATOM     20  N   UNL d   1      52.045  32.937  52.312  0.00  0.00    -0.121 NA
ATOM     21  O   UNL d   1      52.733  32.817  52.674  0.00  0.00    -0.211 OA
ATOM     22  C   UNL d   1      52.711  33.174  53.386  0.00  0.00     0.127 A 
ATOM     23  C   UNL d   1      51.995  33.518  53.461  0.00  0.00     0.053 A 
BRANCH  22  24
ATOM     24  C   UNL d   1      53.308  33.167  53.899  0.00  0.00     0.027 A 
ATOM     25  C   UNL d   1      53.553  33.850  54.237  0.00  0.00     0.028 A 
ATOM     26  C   UNL d   1      54.145  33.841  54.745  0.00  0.00     0.119 A 
ATOM     27  O   UNL d   1      54.498  34.420  55.157  0.00  0.00    -0.300 OA
ATOM     28  C   UNL d   1      54.516  33.166  54.938  0.00  0.00     0.119 A 
ATOM     29  C   UNL d   1      55.076  34.103  55.595  0.00  0.00     0.304 A 
ATOM     30  O   UNL d   1      55.086  33.324  55.459  0.00  0.00    -0.300 OA
ATOM     31  C   UNL d   1      54.275  32.480  54.603  0.00  0.00     0.026 A 
ATOM     32  C   UNL d   1      53.683  32.481  54.093  0.00  0.00     0.004 A 
ENDBRANCH  22  24
ENDBRANCH   2  19
TORSDOF 5
ENDMDL
MODEL 4
REMARK VINA RESULT:      -7.7      1.345      1.715
REMARK  5 active torsions:
REMARK  status: ('A' for Active; 'I' for Inactive)
REMARK    1  A    between atoms: N_7  and  C_1 
REMARK    2  A    between atoms: C_15  and  N_2 
REMARK    3  A    between atoms: C_5  and  C_10 
REMARK       I    between atoms: C_10  and  N_7 
REMARK    4  A    between atoms: C_13  and  C_11 
REMARK    5  A    between atoms: C_24  and  C_15 
ROOT
ATOM      1  N   UNL d   1      50.781  35.017  53.013  0.00  0.00    -0.203 NA
ATOM      2  C   UNL d   1      50.020  34.706  53.181  0.00  0.00     0.299 C 
ATOM      3  O   UNL d   1      49.945  33.919  53.261  0.00  0.00    -0.263 OA
ENDROOT
BRANCH   1   4
ATOM      4  C   UNL d   1      51.443  34.496  52.933  0.00  0.00     0.121 A 
ATOM      5  C   UNL d   1      52.021  34.326  53.518  0.00  0.00     0.102 A 
ATOM      6  N   UNL d   1      52.554  33.791  53.192  0.00  0.00    -0.227 N 
ATOM      7  C   UNL d   1      52.045  34.643  54.285  0.00  0.00     0.022 C 
ATOM      8  N   UNL d   1      52.315  33.623  52.405  0.00  0.00    -0.164 NA
ATOM      9  C   UNL d   1      51.621  34.067  52.251  0.00  0.00     0.120 A 
ATOM     10  C   UNL d   1      51.175  34.084  51.540  0.00  0.00     0.024 C 
BRANCH   6  11
ATOM     11  C   UNL d   1      53.207  33.515  53.659  0.00  0.00     0.101 C 
BRANCH  11  12
ATOM     12  C   UNL d   1      53.432  32.713  53.620  0.00  0.00     0.019 A 
ATOM     13  C   UNL d   1      54.123  32.491  53.218  0.00  0.00     0.002 A 
ATOM     14  C   UNL d   1      54.355  31.689  53.175  0.00  0.00     0.000 A 
ATOM     15  C   UNL d   1      53.876  31.099  53.548  0.00  0.00     0.000 A 
ATOM     16  C   UNL d   1      53.199  31.316  53.941  0.00  0.00     0.000 A 
ATOM     17  C   UNL d   1      54.081  30.290  53.522  0.00  0.00     0.000 C 
ATOM     18  C   UNL d   1      52.964  32.123  53.986  0.00  0.00     0.002 A 
ENDBRANCH  11  12
ENDBRANCH   6  11
ENDBRANCH   1   4
BRANCH   2  19
ATOM     19  C   UNL d   1      48.819  35.705  53.322  0.00  0.00     0.168 A 
ATOM     20  N   UNL d   1      48.796  36.409  53.691  0.00  0.00    -0.121 NA
ATOM     21  O   UNL d   1      48.072  36.709  53.614  0.00  0.00    -0.211 OA
ATOM     22  C   UNL d   1      47.628  36.198  53.194  0.00  0.00     0.127 A 
ATOM     23  C   UNL d   1      48.089  35.574  53.010  0.00  0.00     0.053 A 
BRANCH  22  24
ATOM     24  C   UNL d   1      46.873  36.321  53.011  0.00  0.00     0.027 A 
ATOM     25  C   UNL d   1      46.632  36.267  52.250  0.00  0.00     0.028 A 
ATOM     26  C   UNL d   1      45.883  36.389  52.070  0.00  0.00     0.119 A 
ATOM     27  O   UNL d   1      45.494  36.373  51.378  0.00  0.00    -0.300 OA
ATOM     28  C   UNL d   1      45.346  36.568  52.628  0.00  0.00     0.119 A 
ATOM     29  C   UNL d   1      44.732  36.539  51.512  0.00  0.00     0.304 A 
ATOM     30  O   UNL d   1      44.641  36.661  52.288  0.00  0.00    -0.300 OA
ATOM     31  C   UNL d   1      45.582  36.624  53.391  0.00  0.00     0.026 A 
ATOM     32  C   UNL d   1      46.331  36.503  53.578  0.00  0.00     0.004 A 
ENDBRANCH  22  24
ENDBRANCH   2  19
TORSDOF 5
ENDMDL
MODEL 5
REMARK VINA RESULT:      -7.2      2.028      7.222
REMARK  5 active torsions:
REMARK  status: ('A' for Active; 'I' for Inactive)
REMARK    1  A    between atoms: N_7  and  C_1 
REMARK    2  A    between atoms: C_15  and  N_2 
REMARK    3  A    between atoms: C_5  and  C_10 
REMARK       I    between atoms: C_10  and  N_7 
REMARK    4  A    between atoms: C_13  and  C_11 
REMARK    5  A    between atoms: C_24  and  C_15 
ROOT
ATOM      1  N   UNL d   1      49.492  35.207  52.420  0.00  0.00    -0.203 NA
ATOM      2  C   UNL d   1      49.699  34.533  52.875  0.00  0.00     0.299 C 
ATOM      3  O   UNL d   1      49.129  34.177  53.299  0.00  0.00    -0.263 OA
ENDROOT
BRANCH   1   4
ATOM      4  C   UNL d   1      48.695  35.490  52.422  0.00  0.00     0.121 A 
ATOM      5  C   UNL d   1      48.337  35.980  53.003  0.00  0.00     0.102 A 
ATOM      6  N   UNL d   1      47.559  36.111  52.773  0.00  0.00    -0.227 N 
ATOM      7  C   UNL d   1      48.709  36.275  53.685  0.00  0.00     0.022 C 
ATOM      8  N   UNL d   1      47.423  35.707  52.050  0.00  0.00    -0.164 NA
ATOM      9  C   UNL d   1      48.137  35.321  51.838  0.00  0.00     0.120 A 
ATOM     10  C   UNL d   1      48.277  34.847  51.159  0.00  0.00     0.024 C 
BRANCH   6  11
ATOM     11  C   UNL d   1      47.056  36.592  53.259  0.00  0.00     0.101 C 
BRANCH  11  12
ATOM     12  C   UNL d   1      46.367  36.261  53.595  0.00  0.00     0.019 A 
ATOM     13  C   UNL d   1      45.677  36.180  53.142  0.00  0.00     0.002 A 
ATOM     14  C   UNL d   1      44.984  35.850  53.472  0.00  0.00     0.000 A 
ATOM     15  C   UNL d   1      44.991  35.597  54.279  0.00  0.00     0.000 A 
ATOM     16  C   UNL d   1      45.666  35.676  54.724  0.00  0.00     0.000 A 
ATOM     17  C   UNL d   1      44.314  35.263  54.637  0.00  0.00     0.000 C 
ATOM     18  C   UNL d   1      46.365  36.008  54.392  0.00  0.00     0.002 A 
ENDBRANCH  11  12
ENDBRANCH   6  11
ENDBRANCH   1   4
BRANCH   2  19
ATOM     19  C   UNL d   1      51.187  34.039  52.845  0.00  0.00     0.168 A 
ATOM     20  N   UNL d   1      51.830  34.407  52.554  0.00  0.00    -0.121 NA
ATOM     21  O   UNL d   1      52.456  33.944  52.664  0.00  0.00    -0.211 OA
ATOM     22  C   UNL d   1      52.217  33.275  53.026  0.00  0.00     0.127 A 
ATOM     23  C   UNL d   1      51.430  33.331  53.140  0.00  0.00     0.053 A 
BRANCH  22  24
ATOM     24  C   UNL d   1      52.700  32.686  53.222  0.00  0.00     0.027 A 
ATOM     25  C   UNL d   1      52.553  31.945  52.959  0.00  0.00     0.028 A 
ATOM     26  C   UNL d   1      53.034  31.361  53.154  0.00  0.00     0.119 A 
ATOM     27  O   UNL d   1      53.026  30.587  52.979  0.00  0.00    -0.300 OA
ATOM     28  C   UNL d   1      53.672  31.484  53.611  0.00  0.00     0.119 A 
ATOM     29  C   UNL d   1      53.650  30.243  53.323  0.00  0.00     0.304 A 
ATOM     30  O   UNL d   1      54.050  30.801  53.715  0.00  0.00    -0.300 OA
ATOM     31  C   UNL d   1      53.824  32.224  53.876  0.00  0.00     0.026 A 
ATOM     32  C   UNL d   1      53.347  32.813  53.685  0.00  0.00     0.004 A 
ENDBRANCH  22  24
ENDBRANCH   2  19
TORSDOF 5
ENDMDL
MODEL 6
REMARK VINA RESULT:      -7.1      2.437      7.407
REMARK  5 active torsions:
REMARK  status: ('A' for Active; 'I' for Inactive)
REMARK    1  A    between atoms: N_7  and  C_1 
REMARK    2  A    between atoms: C_15  and  N_2 
REMARK    3  A    between atoms: C_5  and  C_10 
REMARK       I    between atoms: C_10  and  N_7 
REMARK    4  A    between atoms: C_13  and  C_11 
REMARK    5  A    between atoms: C_24  and  C_15 
ROOT
ATOM      1  N   UNL d   1      50.389  33.831  52.670  0.00  0.00    -0.203 NA
ATOM      2  C   UNL d   1      51.195  34.050  52.598  0.00  0.00     0.299 C 
ATOM      3  O   UNL d   1      51.365  34.809  52.433  0.00  0.00    -0.263 OA
ENDROOT
BRANCH   1   4
ATOM      4  C   UNL d   1      49.782  34.412  52.569  0.00  0.00     0.121 A 
ATOM      5  C   UNL d   1      49.317  34.537  51.881  0.00  0.00     0.102 A 
ATOM      6  N   UNL d   1      48.802  35.158  52.039  0.00  0.00    -0.227 N 
ATOM      7  C   UNL d   1      49.373  34.107  51.171  0.00  0.00     0.022 C 
ATOM      8  N   UNL d   1      48.939  35.425  52.822  0.00  0.00    -0.164 NA
ATOM      9  C   UNL d   1      49.553  34.954  53.147  0.00  0.00     0.120 A 
ATOM     10  C   UNL d   1      49.885  35.010  53.916  0.00  0.00     0.024 C 
BRANCH   6  11
ATOM     11  C   UNL d   1      48.258  35.412  51.438  0.00  0.00     0.101 C 
BRANCH  11  12
ATOM     12  C   UNL d   1      47.504  35.695  51.657  0.00  0.00     0.019 A 
ATOM     13  C   UNL d   1      47.430  36.404  52.083  0.00  0.00     0.002 A 
ATOM     14  C   UNL d   1      46.679  36.693  52.305  0.00  0.00     0.000 A 
ATOM     15  C   UNL d   1      45.987  36.255  52.091  0.00  0.00     0.000 A 
ATOM     16  C   UNL d   1      46.059  35.562  51.674  0.00  0.00     0.000 A 
ATOM     17  C   UNL d   1      45.222  36.519  52.299  0.00  0.00     0.000 C 
ATOM     18  C   UNL d   1      46.816  35.269  51.450  0.00  0.00     0.002 A 
ENDBRANCH  11  12
ENDBRANCH   6  11
ENDBRANCH   1   4
BRANCH   2  19
ATOM     19  C   UNL d   1      52.291  32.945  52.793  0.00  0.00     0.168 A 
ATOM     20  N   UNL d   1      53.079  33.002  52.707  0.00  0.00    -0.121 NA
ATOM     21  O   UNL d   1      53.401  32.301  52.864  0.00  0.00    -0.211 OA
ATOM     22  C   UNL d   1      52.818  31.790  53.052  0.00  0.00     0.127 A 
ATOM     23  C   UNL d   1      52.127  32.186  53.008  0.00  0.00     0.053 A 
BRANCH  22  24
ATOM     24  C   UNL d   1      52.940  31.037  53.241  0.00  0.00     0.027 A 
ATOM     25  C   UNL d   1      53.075  30.832  54.002  0.00  0.00     0.028 A 
ATOM     26  C   UNL d   1      53.196  30.083  54.188  0.00  0.00     0.119 A 
ATOM     27  O   UNL d   1      53.340  29.726  54.882  0.00  0.00    -0.300 OA
ATOM     28  C   UNL d   1      53.188  29.513  53.636  0.00  0.00     0.119 A 
ATOM     29  C   UNL d   1      53.420  28.950  54.755  0.00  0.00     0.304 A 
ATOM     30  O   UNL d   1      53.325  28.818  53.981  0.00  0.00    -0.300 OA
ATOM     31  C   UNL d   1      53.054  29.712  52.872  0.00  0.00     0.026 A 
ATOM     32  C   UNL d   1      52.932  30.459  52.679  0.00  0.00     0.004 A 
ENDBRANCH  22  24
ENDBRANCH   2  19
TORSDOF 5
ENDMDL
