MODEL 1
REMARK VINA RESULT:     -11.1      0.000      0.000
REMARK  4 active torsions:
REMARK  status: ('A' for Active; 'I' for Inactive)
REMARK    1  A    between atoms: C_15  and  O_20 
REMARK    2  A    between atoms: C_16  and  O_21 
REMARK    3  A    between atoms: O_20  and  C_18 
REMARK    4  A    between atoms: O_21  and  C_19 
ROOT
ATOM      1  C   UNL d   1     -48.417  13.016  23.128  0.00  0.00     0.161 A 
ATOM      2  O   UNL d   1     -49.086  12.724  23.339  0.00  0.00    -0.291 OA
ATOM      3  C   UNL d   1     -48.876  13.697  23.024  0.00  0.00     0.033 A 
ATOM      4  C   UNL d   1     -47.608  13.039  22.967  0.00  0.00     0.033 A 
ATOM      5  C   UNL d   1     -47.846  12.386  23.197  0.00  0.00     0.016 A 
ATOM      6  C   UNL d   1     -48.998  12.113  23.494  0.00  0.00     0.296 A 
ATOM      7  C   UNL d   1     -48.523  14.401  22.758  0.00  0.00     0.101 A 
ATOM      8  C   UNL d   1     -47.255  13.742  22.701  0.00  0.00     0.101 A 
ATOM      9  O   UNL d   1     -47.710  14.422  22.597  0.00  0.00    -0.307 OA
ATOM     10  C   UNL d   1     -48.353  11.900  23.431  0.00  0.00     0.062 A 
ATOM     11  C   UNL d   1     -46.443  13.764  22.540  0.00  0.00     0.049 A 
ATOM     12  C   UNL d   1     -48.975  15.079  22.654  0.00  0.00     0.049 A 
ATOM     13  C   UNL d   1     -49.681  13.673  23.185  0.00  0.00     0.003 A 
ATOM     14  C   UNL d   1     -47.150  12.358  23.071  0.00  0.00     0.003 A 
ATOM     15  O   UNL d   1     -49.549  11.769  23.696  0.00  0.00    -0.259 OA
ATOM     16  C   UNL d   1     -45.984  13.082  22.644  0.00  0.00     0.105 A 
ATOM     17  C   UNL d   1     -49.787  15.058  22.815  0.00  0.00     0.105 A 
ATOM     18  C   UNL d   1     -50.141  14.354  23.081  0.00  0.00     0.025 A 
ATOM     19  C   UNL d   1     -46.338  12.379  22.910  0.00  0.00     0.025 A 
ATOM     20  C   UNL d   1     -47.075  12.178  23.108  0.00  0.00    -0.001 A 
ATOM     21  C   UNL d   1     -48.179  11.135  23.613  0.00  0.00     0.005 A 
ATOM     22  C   UNL d   1     -46.851  11.422  23.278  0.00  0.00    -0.000 A 
ATOM     23  C   UNL d   1     -47.408  10.903  23.531  0.00  0.00     0.000 A 
ENDROOT
BRANCH  17  24
ATOM     24  O   UNL d   1     -50.082  15.525  22.740  0.00  0.00    -0.273 OA
BRANCH  24  25
ATOM     25  C   UNL d   1     -50.643  15.677  22.995  0.00  0.00     0.300 C 
ATOM     26  O   UNL d   1     -51.020  15.660  22.565  0.00  0.00    -0.259 OA
ATOM     27  C   UNL d   1     -50.778  15.834  23.663  0.00  0.00     0.074 C 
ENDBRANCH  24  25
ENDBRANCH  17  24
BRANCH  16  28
ATOM     28  O   UNL d   1     -45.429  13.108  22.531  0.00  0.00    -0.273 OA
BRANCH  28  29
ATOM     29  C   UNL d   1     -45.043  13.291  22.194  0.00  0.00     0.300 C 
ATOM     30  O   UNL d   1     -44.786  13.768  22.513  0.00  0.00    -0.259 OA
ATOM     31  C   UNL d   1     -44.888  13.073  21.614  0.00  0.00     0.074 C 
ENDBRANCH  28  29
ENDBRANCH  16  28
TORSDOF 4
ENDMDL
MODEL 2
REMARK VINA RESULT:     -10.4      1.144      4.351
REMARK  4 active torsions:
REMARK  status: ('A' for Active; 'I' for Inactive)
REMARK    1  A    between atoms: C_15  and  O_20 
REMARK    2  A    between atoms: C_16  and  O_21 
REMARK    3  A    between atoms: O_20  and  C_18 
REMARK    4  A    between atoms: O_21  and  C_19 
ROOT
ATOM      1  C   UNL d   1     -47.756  14.064  22.727  0.00  0.00     0.161 A 
ATOM      2  O   UNL d   1     -47.331  14.678  22.584  0.00  0.00    -0.291 OA
ATOM      3  C   UNL d   1     -47.016  13.692  22.727  0.00  0.00     0.033 A 
ATOM      4  C   UNL d   1     -48.437  13.620  22.863  0.00  0.00     0.033 A 
ATOM      5  C   UNL d   1     -48.566  14.331  22.752  0.00  0.00     0.016 A 
ATOM      6  C   UNL d   1     -47.717  15.180  22.531  0.00  0.00     0.296 A 
ATOM      7  C   UNL d   1     -46.961  12.874  22.864  0.00  0.00     0.101 A 
ATOM      8  C   UNL d   1     -48.383  12.802  23.000  0.00  0.00     0.101 A 
ATOM      9  O   UNL d   1     -47.646  12.430  23.000  0.00  0.00    -0.307 OA
ATOM     10  C   UNL d   1     -48.378  15.034  22.614  0.00  0.00     0.062 A 
ATOM     11  C   UNL d   1     -49.067  12.357  23.136  0.00  0.00     0.049 A 
ATOM     12  C   UNL d   1     -46.229  12.502  22.864  0.00  0.00     0.049 A 
ATOM     13  C   UNL d   1     -46.338  14.137  22.591  0.00  0.00     0.003 A 
ATOM     14  C   UNL d   1     -49.177  13.992  22.864  0.00  0.00     0.003 A 
ATOM     15  O   UNL d   1     -47.420  15.779  22.402  0.00  0.00    -0.259 OA
ATOM     16  C   UNL d   1     -49.807  12.729  23.136  0.00  0.00     0.105 A 
ATOM     17  C   UNL d   1     -45.543  12.946  22.728  0.00  0.00     0.105 A 
ATOM     18  C   UNL d   1     -45.598  13.764  22.591  0.00  0.00     0.025 A 
ATOM     19  C   UNL d   1     -49.862  13.547  23.000  0.00  0.00     0.025 A 
ATOM     20  C   UNL d   1     -49.332  14.114  22.856  0.00  0.00    -0.001 A 
ATOM     21  C   UNL d   1     -48.916  15.631  22.558  0.00  0.00     0.005 A 
ATOM     22  C   UNL d   1     -49.909  14.677  22.809  0.00  0.00    -0.000 A 
ATOM     23  C   UNL d   1     -49.695  15.435  22.659  0.00  0.00     0.000 A 
ENDROOT
BRANCH  17  24
ATOM     24  O   UNL d   1     -45.053  12.681  22.731  0.00  0.00    -0.273 OA
BRANCH  24  25
ATOM     25  C   UNL d   1     -44.684  12.538  22.235  0.00  0.00     0.300 C 
ATOM     26  O   UNL d   1     -44.546  11.986  22.297  0.00  0.00    -0.259 OA
ATOM     27  C   UNL d   1     -44.485  12.964  21.717  0.00  0.00     0.074 C 
ENDBRANCH  24  25
ENDBRANCH  17  24
BRANCH  16  28
ATOM     28  O   UNL d   1     -50.270  12.416  23.231  0.00  0.00    -0.273 OA
BRANCH  28  29
ATOM     29  C   UNL d   1     -50.486  11.916  23.236  0.00  0.00     0.300 C 
ATOM     30  O   UNL d   1     -50.775  11.876  22.679  0.00  0.00    -0.259 OA
ATOM     31  C   UNL d   1     -50.454  11.476  23.697  0.00  0.00     0.074 C 
ENDBRANCH  28  29
ENDBRANCH  16  28
TORSDOF 4
ENDMDL
MODEL 3
REMARK VINA RESULT:      -9.6      1.224      3.884
REMARK  4 active torsions:
REMARK  status: ('A' for Active; 'I' for Inactive)
REMARK    1  A    between atoms: C_15  and  O_20 
REMARK    2  A    between atoms: C_16  and  O_21 
REMARK    3  A    between atoms: O_20  and  C_18 
REMARK    4  A    between atoms: O_21  and  C_19 
ROOT
ATOM      1  C   UNL d   1     -48.392  12.184  23.270  0.00  0.00     0.161 A 
ATOM      2  O   UNL d   1     -48.486  11.446  23.425  0.00  0.00    -0.291 OA
ATOM      3  C   UNL d   1     -47.596  11.990  23.388  0.00  0.00     0.033 A 
ATOM      4  C   UNL d   1     -48.601  12.959  23.079  0.00  0.00     0.033 A 
ATOM      5  C   UNL d   1     -49.171  12.503  23.127  0.00  0.00     0.016 A 
ATOM      6  C   UNL d   1     -49.108  11.314  23.396  0.00  0.00     0.296 A 
ATOM      7  C   UNL d   1     -47.009  12.574  23.313  0.00  0.00     0.101 A 
ATOM      8  C   UNL d   1     -48.015  13.543  23.005  0.00  0.00     0.101 A 
ATOM      9  O   UNL d   1     -47.221  13.352  23.121  0.00  0.00    -0.307 OA
ATOM     10  C   UNL d   1     -49.500  11.850  23.241  0.00  0.00     0.062 A 
ATOM     11  C   UNL d   1     -48.226  14.320  22.813  0.00  0.00     0.049 A 
ATOM     12  C   UNL d   1     -46.218  12.386  23.429  0.00  0.00     0.049 A 
ATOM     13  C   UNL d   1     -47.390  11.218  23.578  0.00  0.00     0.003 A 
ATOM     14  C   UNL d   1     -49.397  13.152  22.962  0.00  0.00     0.003 A 
ATOM     15  O   UNL d   1     -49.287  10.669  23.522  0.00  0.00    -0.259 OA
ATOM     16  C   UNL d   1     -49.022  14.514  22.695  0.00  0.00     0.105 A 
ATOM     17  C   UNL d   1     -46.007  11.608  23.621  0.00  0.00     0.105 A 
ATOM     18  C   UNL d   1     -46.593  11.024  23.696  0.00  0.00     0.025 A 
ATOM     19  C   UNL d   1     -49.608  13.930  22.770  0.00  0.00     0.025 A 
ATOM     20  C   UNL d   1     -49.594  13.160  22.942  0.00  0.00    -0.001 A 
ATOM     21  C   UNL d   1     -50.297  11.743  23.190  0.00  0.00     0.005 A 
ATOM     22  C   UNL d   1     -50.396  13.104  22.879  0.00  0.00    -0.000 A 
ATOM     23  C   UNL d   1     -50.744  12.393  23.004  0.00  0.00     0.000 A 
ENDROOT
BRANCH  17  24
ATOM     24  O   UNL d   1     -45.466  11.494  23.697  0.00  0.00    -0.273 OA
BRANCH  24  25
ATOM     25  C   UNL d   1     -45.102  11.094  23.365  0.00  0.00     0.300 C 
ATOM     26  O   UNL d   1     -44.955  11.376  22.889  0.00  0.00    -0.259 OA
ATOM     27  C   UNL d   1     -44.916  10.443  23.540  0.00  0.00     0.074 C 
ENDBRANCH  24  25
ENDBRANCH  17  24
BRANCH  16  28
ATOM     28  O   UNL d   1     -49.156  15.050  22.564  0.00  0.00    -0.273 OA
BRANCH  28  29
ATOM     29  C   UNL d   1     -49.072  15.469  22.227  0.00  0.00     0.300 C 
ATOM     30  O   UNL d   1     -48.735  15.870  22.574  0.00  0.00    -0.259 OA
ATOM     31  C   UNL d   1     -49.270  15.536  21.624  0.00  0.00     0.074 C 
ENDBRANCH  28  29
ENDBRANCH  16  28
TORSDOF 4
ENDMDL
MODEL 4
REMARK VINA RESULT:      -9.5      1.421      2.631
REMARK  4 active torsions:
REMARK  status: ('A' for Active; 'I' for Inactive)
REMARK    1  A    between atoms: C_15  and  O_20 
REMARK    2  A    between atoms: C_16  and  O_21 
REMARK    3  A    between atoms: O_20  and  C_18 
REMARK    4  A    between atoms: O_21  and  C_19 
ROOT
ATOM      1  C   UNL d   1     -47.517  13.217  23.013  0.00  0.00     0.161 A 
ATOM      2  O   UNL d   1     -47.837  13.865  22.783  0.00  0.00    -0.291 OA
ATOM      3  C   UNL d   1     -48.303  13.024  23.190  0.00  0.00     0.033 A 
ATOM      4  C   UNL d   1     -46.917  12.671  23.166  0.00  0.00     0.033 A 
ATOM      5  C   UNL d   1     -46.679  13.298  22.876  0.00  0.00     0.016 A 
ATOM      6  C   UNL d   1     -47.379  14.250  22.567  0.00  0.00     0.296 A 
ATOM      7  C   UNL d   1     -48.485  12.284  23.521  0.00  0.00     0.101 A 
ATOM      8  C   UNL d   1     -47.100  11.931  23.497  0.00  0.00     0.101 A 
ATOM      9  O   UNL d   1     -47.882  11.737  23.674  0.00  0.00    -0.307 OA
ATOM     10  C   UNL d   1     -46.752  13.982  22.601  0.00  0.00     0.062 A 
ATOM     11  C   UNL d   1     -46.497  11.384  23.650  0.00  0.00     0.049 A 
ATOM     12  C   UNL d   1     -49.264  12.089  23.698  0.00  0.00     0.049 A 
ATOM     13  C   UNL d   1     -48.898  13.569  23.037  0.00  0.00     0.003 A 
ATOM     14  C   UNL d   1     -46.132  12.864  22.989  0.00  0.00     0.003 A 
ATOM     15  O   UNL d   1     -47.576  14.859  22.337  0.00  0.00    -0.259 OA
ATOM     16  C   UNL d   1     -45.711  11.577  23.473  0.00  0.00     0.105 A 
ATOM     17  C   UNL d   1     -49.867  12.636  23.545  0.00  0.00     0.105 A 
ATOM     18  C   UNL d   1     -49.684  13.376  23.214  0.00  0.00     0.025 A 
ATOM     19  C   UNL d   1     -45.529  12.317  23.142  0.00  0.00     0.025 A 
ATOM     20  C   UNL d   1     -45.959  12.945  22.934  0.00  0.00    -0.001 A 
ATOM     21  C   UNL d   1     -46.129  14.422  22.341  0.00  0.00     0.005 A 
ATOM     22  C   UNL d   1     -45.304  13.345  22.687  0.00  0.00    -0.000 A 
ATOM     23  C   UNL d   1     -45.395  14.085  22.391  0.00  0.00     0.000 A 
ENDROOT
BRANCH  17  24
ATOM     24  O   UNL d   1     -50.391  12.491  23.670  0.00  0.00    -0.273 OA
BRANCH  24  25
ATOM     25  C   UNL d   1     -50.835  12.262  23.279  0.00  0.00     0.300 C 
ATOM     26  O   UNL d   1     -51.013  11.772  23.515  0.00  0.00    -0.259 OA
ATOM     27  C   UNL d   1     -51.064  12.546  22.683  0.00  0.00     0.074 C 
ENDBRANCH  24  25
ENDBRANCH  17  24
BRANCH  16  28
ATOM     28  O   UNL d   1     -45.306  11.195  23.581  0.00  0.00    -0.273 OA
BRANCH  28  29
ATOM     29  C   UNL d   1     -45.184  10.668  23.643  0.00  0.00     0.300 C 
ATOM     30  O   UNL d   1     -44.558  10.670  23.698  0.00  0.00    -0.259 OA
ATOM     31  C   UNL d   1     -45.582  10.169  23.656  0.00  0.00     0.074 C 
ENDBRANCH  28  29
ENDBRANCH  16  28
TORSDOF 4
ENDMDL
MODEL 5
REMARK VINA RESULT:      -9.0      1.286      4.528
REMARK  4 active torsions:
REMARK  status: ('A' for Active; 'I' for Inactive)
REMARK    1  A    between atoms: C_15  and  O_20 
REMARK    2  A    between atoms: C_16  and  O_21 
REMARK    3  A    between atoms: O_20  and  C_18 
REMARK    4  A    between atoms: O_21  and  C_19 
ROOT
ATOM      1  C   UNL d   1     -47.452  13.226  23.014  0.00  0.00     0.161 A 
ATOM      2  O   UNL d   1     -46.801  13.605  22.922  0.00  0.00    -0.291 OA
ATOM      3  C   UNL d   1     -46.933  12.607  23.200  0.00  0.00     0.033 A 
ATOM      4  C   UNL d   1     -48.267  13.096  23.031  0.00  0.00     0.033 A 
ATOM      5  C   UNL d   1     -48.080  13.778  22.844  0.00  0.00     0.016 A 
ATOM      6  C   UNL d   1     -46.939  14.202  22.751  0.00  0.00     0.296 A 
ATOM      7  C   UNL d   1     -47.233  11.859  23.403  0.00  0.00     0.101 A 
ATOM      8  C   UNL d   1     -48.566  12.348  23.234  0.00  0.00     0.101 A 
ATOM      9  O   UNL d   1     -48.051  11.731  23.420  0.00  0.00    -0.307 OA
ATOM     10  C   UNL d   1     -47.607  14.329  22.700  0.00  0.00     0.062 A 
ATOM     11  C   UNL d   1     -49.384  12.219  23.252  0.00  0.00     0.049 A 
ATOM     12  C   UNL d   1     -46.722  11.243  23.587  0.00  0.00     0.049 A 
ATOM     13  C   UNL d   1     -46.123  12.738  23.181  0.00  0.00     0.003 A 
ATOM     14  C   UNL d   1     -48.784  13.714  22.846  0.00  0.00     0.003 A 
ATOM     15  O   UNL d   1     -46.410  14.618  22.647  0.00  0.00    -0.259 OA
ATOM     16  C   UNL d   1     -49.903  12.838  23.066  0.00  0.00     0.105 A 
ATOM     17  C   UNL d   1     -45.904  11.372  23.570  0.00  0.00     0.105 A 
ATOM     18  C   UNL d   1     -45.604  12.120  23.367  0.00  0.00     0.025 A 
ATOM     19  C   UNL d   1     -49.603  13.586  22.863  0.00  0.00     0.025 A 
ATOM     20  C   UNL d   1     -48.875  13.884  22.796  0.00  0.00    -0.001 A 
ATOM     21  C   UNL d   1     -47.845  15.069  22.487  0.00  0.00     0.005 A 
ATOM     22  C   UNL d   1     -49.162  14.607  22.586  0.00  0.00    -0.000 A 
ATOM     23  C   UNL d   1     -48.642  15.198  22.432  0.00  0.00     0.000 A 
ENDROOT
BRANCH  17  24
ATOM     24  O   UNL d   1     -45.568  10.945  23.698  0.00  0.00    -0.273 OA
BRANCH  24  25
ATOM     25  C   UNL d   1     -45.034  10.768  23.405  0.00  0.00     0.300 C 
ATOM     26  O   UNL d   1     -44.695  11.229  23.405  0.00  0.00    -0.259 OA
ATOM     27  C   UNL d   1     -44.886  10.140  23.135  0.00  0.00     0.074 C 
ENDBRANCH  24  25
ENDBRANCH  17  24
BRANCH  16  28
ATOM     28  O   UNL d   1     -50.461  12.739  23.081  0.00  0.00    -0.273 OA
BRANCH  28  29
ATOM     29  C   UNL d   1     -50.855  12.370  23.151  0.00  0.00     0.300 C 
ATOM     30  O   UNL d   1     -51.055  12.257  22.566  0.00  0.00    -0.259 OA
ATOM     31  C   UNL d   1     -51.062  12.113  23.698  0.00  0.00     0.074 C 
ENDBRANCH  28  29
ENDBRANCH  16  28
TORSDOF 4
ENDMDL
