MODEL 1
REMARK VINA RESULT:      62.2      0.000      0.000
REMARK  3 active torsions:
REMARK  status: ('A' for Active; 'I' for Inactive)
REMARK    1  A    between atoms: N_3  and  C_1 
REMARK       I    between atoms: C_5  and  N_3 
REMARK    2  A    between atoms: C_14  and  C_4 
REMARK       I    between atoms: N_8  and  C_5 
REMARK    3  A    between atoms: C_11  and  N_8 
ROOT
ATOM      1  N   UNL d   1     -50.169  26.805  34.284  0.00  0.00    -0.166 NA
ATOM      2  C   UNL d   1     -50.716  27.105  33.799  0.00  0.00     0.370 C 
ATOM      3  N   UNL d   1     -51.133  26.622  33.306  0.00  0.00    -0.191 NA
ATOM      4  O   UNL d   1     -50.872  27.916  33.786  0.00  0.00    -0.242 OA
ENDROOT
BRANCH   1   5
ATOM      5  C   UNL d   1     -49.752  27.291  34.777  0.00  0.00     0.199 A 
ATOM      6  N   UNL d   1     -49.183  27.811  34.546  0.00  0.00    -0.221 NA
ATOM      7  C   UNL d   1     -48.905  28.190  35.217  0.00  0.00     0.090 A 
ATOM      8  C   UNL d   1     -49.321  27.886  35.862  0.00  0.00     0.058 A 
ATOM      9  S   UNL d   1     -49.845  27.327  35.567  0.00  0.00    -0.046 SA
BRANCH   7  10
ATOM     10  C   UNL d   1     -48.328  28.758  35.243  0.00  0.00     0.018 A 
ATOM     11  C   UNL d   1     -48.485  29.537  34.999  0.00  0.00     0.002 A 
ATOM     12  C   UNL d   1     -47.896  30.114  35.026  0.00  0.00     0.000 A 
ATOM     13  C   UNL d   1     -47.152  29.926  35.292  0.00  0.00     0.000 A 
ATOM     14  C   UNL d   1     -46.981  29.150  35.540  0.00  0.00     0.000 A 
ATOM     15  C   UNL d   1     -47.571  28.560  35.516  0.00  0.00     0.002 A 
ENDBRANCH   7  10
ENDBRANCH   1   5
BRANCH   3  16
ATOM     16  C   UNL d   1     -50.989  25.804  33.306  0.00  0.00     0.087 A 
ATOM     17  C   UNL d   1     -51.599  25.296  33.306  0.00  0.00     0.032 A 
ATOM     18  C   UNL d   1     -51.476  24.501  33.307  0.00  0.00     0.070 A 
ATOM     19 CL   UNL d   1     -52.126  23.969  33.307  0.00  0.00    -0.081 Cl
ATOM     20  C   UNL d   1     -50.742  24.201  33.307  0.00  0.00     0.068 A 
ATOM     21  C   UNL d   1     -50.083  24.716  33.306  0.00  0.00     0.014 A 
ATOM     22 CL   UNL d   1     -50.618  23.397  33.307  0.00  0.00    -0.082 Cl
ATOM     23  C   UNL d   1     -50.206  25.511  33.306  0.00  0.00     0.020 A 
ENDBRANCH   3  16
TORSDOF 3
ENDMDL
