MODEL 1
REMARK VINA RESULT:      44.9      0.000      0.000
REMARK  2 active torsions:
REMARK  status: ('A' for Active; 'I' for Inactive)
REMARK    1  A    between atoms: C_3  and  C_4 
REMARK       I    between atoms: N_7  and  C_3 
REMARK    2  A    between atoms: C_11  and  N_7 
ROOT
ATOM      1  C   UNL d   1     -51.250  23.906  33.652  0.00  0.00     0.300 A 
ATOM      2  O   UNL d   1     -50.822  24.619  33.628  0.00  0.00    -0.268 OA
ATOM      3  C   UNL d   1     -51.226  25.338  33.502  0.00  0.00     0.161 A 
ATOM      4  C   UNL d   1     -52.071  23.905  33.551  0.00  0.00     0.064 A 
ATOM      5  C   UNL d   1     -52.468  24.627  33.425  0.00  0.00     0.007 A 
ATOM      6  C   UNL d   1     -52.050  25.340  33.400  0.00  0.00     0.030 A 
ATOM      7  O   UNL d   1     -50.852  23.197  33.776  0.00  0.00    -0.259 OA
ATOM      8  C   UNL d   1     -53.290  24.626  33.324  0.00  0.00     0.000 A 
ATOM      9  C   UNL d   1     -52.490  23.200  33.575  0.00  0.00     0.005 A 
ATOM     10  C   UNL d   1     -53.702  23.912  33.349  0.00  0.00     0.000 A 
ATOM     11  C   UNL d   1     -53.305  23.203  33.474  0.00  0.00     0.000 A 
ENDROOT
BRANCH   3  12
ATOM     12  C   UNL d   1     -50.802  26.041  33.479  0.00  0.00     0.302 C 
ATOM     13  N   UNL d   1     -51.178  26.758  33.615  0.00  0.00    -0.206 NA
ATOM     14  O   UNL d   1     -49.996  26.022  33.319  0.00  0.00    -0.263 OA
BRANCH  13  15
ATOM     15  C   UNL d   1     -50.746  27.456  33.590  0.00  0.00     0.085 A 
ATOM     16  C   UNL d   1     -51.113  28.169  33.432  0.00  0.00     0.019 A 
ATOM     17  C   UNL d   1     -50.688  28.862  33.406  0.00  0.00     0.002 A 
ATOM     18  C   UNL d   1     -49.869  28.852  33.542  0.00  0.00     0.000 A 
ATOM     19  C   UNL d   1     -49.495  28.136  33.702  0.00  0.00     0.002 A 
ATOM     20  C   UNL d   1     -49.439  29.548  33.517  0.00  0.00     0.000 C 
ATOM     21  C   UNL d   1     -49.930  27.429  33.727  0.00  0.00     0.019 A 
ENDBRANCH  13  15
ENDBRANCH   3  12
TORSDOF 2
ENDMDL
