MODEL 1
REMARK VINA RESULT:      41.1      0.000      0.000
REMARK  5 active torsions:
REMARK  status: ('A' for Active; 'I' for Inactive)
REMARK    1  A    between atoms: N_2  and  S_1 
REMARK    2  A    between atoms: C_4  and  S_1 
REMARK    3  A    between atoms: C_3  and  N_2 
REMARK    4  A    between atoms: O_19  and  C_13 
REMARK    5  A    between atoms: C_20  and  O_19 
ROOT
ATOM      1  S   UNL d   1     -51.219  25.399  33.471  0.00  0.00     0.327 S 
ATOM      2  O   UNL d   1     -51.768  26.015  33.500  0.00  0.00    -0.186 OA
ATOM      3  O   UNL d   1     -50.672  24.780  33.443  0.00  0.00    -0.186 OA
ENDROOT
BRANCH   1   4
ATOM      4  N   UNL d   1     -50.598  25.944  33.509  0.00  0.00    -0.314 NA
BRANCH   4   5
ATOM      5  C   UNL d   1     -49.973  26.482  33.557  0.00  0.00     0.185 A 
ATOM      6  C   UNL d   1     -50.126  27.277  33.706  0.00  0.00     0.048 A 
ATOM      7  C   UNL d   1     -49.507  27.810  33.753  0.00  0.00     0.060 A 
ATOM      8 CL   UNL d   1     -49.658  28.607  33.902  0.00  0.00    -0.082 Cl
ATOM      9  C   UNL d   1     -48.731  27.550  33.651  0.00  0.00     0.015 A 
ATOM     10  C   UNL d   1     -48.579  26.753  33.502  0.00  0.00     0.046 A 
ATOM     11  C   UNL d   1     -49.205  26.215  33.455  0.00  0.00     0.226 A 
ATOM     12  O   UNL d   1     -49.054  25.418  33.306  0.00  0.00    -0.284 OA
ENDBRANCH   4   5
ENDBRANCH   1   4
BRANCH   1  13
ATOM     13  C   UNL d   1     -51.836  24.850  33.434  0.00  0.00     0.117 A 
ATOM     14  C   UNL d   1     -51.666  24.046  33.411  0.00  0.00     0.016 A 
ATOM     15  C   UNL d   1     -52.280  23.494  33.373  0.00  0.00     0.025 A 
ATOM     16  C   UNL d   1     -53.070  23.752  33.358  0.00  0.00     0.100 A 
ATOM     17  C   UNL d   1     -53.231  24.565  33.380  0.00  0.00     0.025 A 
ATOM     18  C   UNL d   1     -52.617  25.112  33.418  0.00  0.00     0.016 A 
BRANCH  16  19
ATOM     19  O   UNL d   1     -53.687  23.204  33.320  0.00  0.00    -0.305 OA
BRANCH  19  20
ATOM     20  C   UNL d   1     -54.386  23.344  33.731  0.00  0.00     0.123 C 
ATOM     21  C   UNL d   1     -54.433  23.188  34.542  0.00  0.00     0.029 C 
ENDBRANCH  19  20
ENDBRANCH  16  19
ENDBRANCH   1  13
TORSDOF 5
ENDMDL
