MODEL 1
REMARK VINA RESULT:      13.1      0.000      0.000
REMARK  4 active torsions:
REMARK  status: ('A' for Active; 'I' for Inactive)
REMARK       I    between atoms: N_3  and  C_1 
REMARK    1  A    between atoms: C_9  and  C_1 
REMARK    2  A    between atoms: C_2  and  N_3 
REMARK    3  A    between atoms: O_15  and  C_6 
REMARK    4  A    between atoms: O_16  and  C_8 
ROOT
ATOM      1  C   UNL d   1      46.238 -17.854  43.494  0.00  0.00     0.109 A 
ATOM      2  C   UNL d   1      46.368 -18.309  44.165  0.00  0.00     0.046 A 
ATOM      3  C   UNL d   1      46.379 -19.020  42.672  0.00  0.00     0.039 A 
ATOM      4  C   UNL d   1      46.245 -18.217  42.743  0.00  0.00     0.113 A 
ATOM      5  C   UNL d   1      46.511 -19.483  43.356  0.00  0.00     0.082 A 
ATOM      6  C   UNL d   1      46.504 -19.121  44.097  0.00  0.00     0.106 A 
ATOM      7 CL   UNL d   1      46.646 -20.296  43.284  0.00  0.00    -0.080 Cl
ENDROOT
BRANCH   1   8
ATOM      8  N   UNL d   1      46.103 -17.046  43.564  0.00  0.00    -0.206 NA
ATOM      9  C   UNL d   1      45.900 -16.726  44.294  0.00  0.00     0.279 C 
ATOM     10  O   UNL d   1      45.833 -17.215  44.955  0.00  0.00    -0.265 OA
BRANCH   9  11
ATOM     11  C   UNL d   1      45.764 -15.919  44.372  0.00  0.00     0.058 A 
ATOM     12  C   UNL d   1      45.121 -15.648  44.814  0.00  0.00     0.006 A 
ATOM     13  C   UNL d   1      44.982 -14.837  44.894  0.00  0.00     0.012 A 
ATOM     14  C   UNL d   1      45.492 -14.302  44.528  0.00  0.00     0.058 A 
ATOM     15  C   UNL d   1      46.137 -14.571  44.086  0.00  0.00     0.012 A 
ATOM     16 CL   UNL d   1      45.361 -13.490  44.604  0.00  0.00    -0.082 Cl
ATOM     17  C   UNL d   1      46.266 -15.380  44.012  0.00  0.00     0.006 A 
ENDBRANCH   9  11
ENDBRANCH   1   8
BRANCH   4  18
ATOM     18  O   UNL d   1      46.114 -17.756  42.071  0.00  0.00    -0.327 OA
ATOM     19  C   UNL d   1      46.126 -18.110  41.324  0.00  0.00     0.181 C 
ENDBRANCH   4  18
BRANCH   6  20
ATOM     20  O   UNL d   1      46.635 -19.582  44.778  0.00  0.00    -0.327 OA
ATOM     21  C   UNL d   1      46.298 -20.329  44.826  0.00  0.00     0.181 C 
ENDBRANCH   6  20
TORSDOF 4
ENDMDL
