MODEL 1
REMARK VINA RESULT:      -3.0      0.000      0.000
REMARK  3 active torsions:
REMARK  status: ('A' for Active; 'I' for Inactive)
REMARK    1  A    between atoms: N_10  and  C_3 
REMARK    2  A    between atoms: C_11  and  C_4 
REMARK    3  A    between atoms: C_12  and  N_10 
ROOT
ATOM      1  C   UNL d   1      31.126  17.413 -24.177  0.00  0.00     0.167 A 
ATOM      2  N   UNL d   1      30.834  16.659 -23.994  0.00  0.00    -0.195 N 
ATOM      3  C   UNL d   1      30.058  16.466 -24.180  0.00  0.00     0.167 A 
ATOM      4  C   UNL d   1      31.905  17.442 -23.930  0.00  0.00     0.057 A 
ATOM      5  N   UNL d   1      31.439  16.240 -23.639  0.00  0.00    -0.161 NA
ATOM      6  N   UNL d   1      30.637  17.961 -24.542  0.00  0.00    -0.227 NA
ATOM      7  C   UNL d   1      29.569  17.025 -24.549  0.00  0.00     0.058 A 
ATOM      8  C   UNL d   1      32.093  16.711 -23.597  0.00  0.00     0.124 A 
ATOM      9  C   UNL d   1      29.855  17.762 -24.727  0.00  0.00     0.086 A 
ATOM     10  C   UNL d   1      29.352  18.310 -25.097  0.00  0.00     0.021 C 
ENDROOT
BRANCH   3  11
ATOM     11  N   UNL d   1      29.766  15.713 -23.998  0.00  0.00    -0.227 NA
BRANCH  11  12
ATOM     12  C   UNL d   1      28.978  15.621 -23.786  0.00  0.00     0.083 A 
ATOM     13  C   UNL d   1      28.295  15.511 -24.236  0.00  0.00     0.019 A 
ATOM     14  C   UNL d   1      27.658  15.453 -23.718  0.00  0.00     0.002 A 
ATOM     15  C   UNL d   1      27.935  15.526 -22.953  0.00  0.00     0.002 A 
ATOM     16  C   UNL d   1      28.755  15.631 -22.984  0.00  0.00     0.019 A 
ENDBRANCH  11  12
ENDBRANCH   3  11
BRANCH   4  17
ATOM     17  C   UNL d   1      32.352  18.129 -24.037  0.00  0.00     0.004 A 
ATOM     18  C   UNL d   1      32.709  18.277 -24.755  0.00  0.00     0.000 A 
ATOM     19  C   UNL d   1      33.158  18.965 -24.865  0.00  0.00     0.000 A 
ATOM     20  C   UNL d   1      33.241  19.502 -24.237  0.00  0.00     0.000 A 
ATOM     21  C   UNL d   1      32.877  19.346 -23.515  0.00  0.00     0.000 A 
ATOM     22  C   UNL d   1      32.437  18.665 -23.416  0.00  0.00     0.000 A 
ENDBRANCH   4  17
TORSDOF 3
ENDMDL
MODEL 2
REMARK VINA RESULT:      -2.9      3.264      5.014
REMARK  3 active torsions:
REMARK  status: ('A' for Active; 'I' for Inactive)
REMARK    1  A    between atoms: N_10  and  C_3 
REMARK    2  A    between atoms: C_11  and  C_4 
REMARK    3  A    between atoms: C_12  and  N_10 
ROOT
ATOM      1  C   UNL d   1      32.885  20.957 -21.768  0.00  0.00     0.167 A 
ATOM      2  N   UNL d   1      32.975  20.133 -21.747  0.00  0.00    -0.195 N 
ATOM      3  C   UNL d   1      33.151  19.724 -22.438  0.00  0.00     0.167 A 
ATOM      4  C   UNL d   1      32.714  21.204 -21.008  0.00  0.00     0.057 A 
ATOM      5  N   UNL d   1      32.857  19.892 -20.975  0.00  0.00    -0.161 NA
ATOM      6  N   UNL d   1      32.972  21.358 -22.478  0.00  0.00    -0.227 NA
ATOM      7  C   UNL d   1      33.238  20.136 -23.152  0.00  0.00     0.058 A 
ATOM      8  C   UNL d   1      32.698  20.538 -20.521  0.00  0.00     0.124 A 
ATOM      9  C   UNL d   1      33.150  20.942 -23.172  0.00  0.00     0.086 A 
ATOM     10  C   UNL d   1      33.240  21.339 -23.895  0.00  0.00     0.021 C 
ENDROOT
BRANCH   3  11
ATOM     11  N   UNL d   1      33.241  18.901 -22.417  0.00  0.00    -0.227 NA
BRANCH  11  12
ATOM     12  C   UNL d   1      32.840  18.434 -22.960  0.00  0.00     0.083 A 
ATOM     13  C   UNL d   1      32.123  18.538 -23.354  0.00  0.00     0.019 A 
ATOM     14  C   UNL d   1      32.001  17.879 -23.835  0.00  0.00     0.002 A 
ATOM     15  C   UNL d   1      32.632  17.370 -23.744  0.00  0.00     0.002 A 
ATOM     16  C   UNL d   1      33.161  17.704 -23.202  0.00  0.00     0.019 A 
ENDBRANCH  11  12
ENDBRANCH   3  11
BRANCH   4  17
ATOM     17  C   UNL d   1      32.592  22.006 -20.847  0.00  0.00     0.004 A 
ATOM     18  C   UNL d   1      33.189  22.452 -20.516  0.00  0.00     0.000 A 
ATOM     19  C   UNL d   1      33.071  23.256 -20.353  0.00  0.00     0.000 A 
ATOM     20  C   UNL d   1      32.338  23.603 -20.531  0.00  0.00     0.000 A 
ATOM     21  C   UNL d   1      31.739  23.147 -20.865  0.00  0.00     0.000 A 
ATOM     22  C   UNL d   1      31.866  22.355 -21.022  0.00  0.00     0.000 A 
ENDBRANCH   4  17
TORSDOF 3
ENDMDL
MODEL 3
REMARK VINA RESULT:      -1.4      2.279      3.544
REMARK  3 active torsions:
REMARK  status: ('A' for Active; 'I' for Inactive)
REMARK    1  A    between atoms: N_10  and  C_3 
REMARK    2  A    between atoms: C_11  and  C_4 
REMARK    3  A    between atoms: C_12  and  N_10 
ROOT
ATOM      1  C   UNL d   1      32.928  19.395 -22.892  0.00  0.00     0.167 A 
ATOM      2  N   UNL d   1      33.066  18.579 -22.848  0.00  0.00    -0.195 N 
ATOM      3  C   UNL d   1      33.012  18.120 -23.527  0.00  0.00     0.167 A 
ATOM      4  C   UNL d   1      33.021  19.701 -22.140  0.00  0.00     0.057 A 
ATOM      5  N   UNL d   1      33.241  18.400 -22.071  0.00  0.00    -0.161 NA
ATOM      6  N   UNL d   1      32.738  19.738 -23.613  0.00  0.00    -0.227 NA
ATOM      7  C   UNL d   1      32.820  18.472 -24.252  0.00  0.00     0.058 A 
ATOM      8  C   UNL d   1      33.215  19.078 -21.634  0.00  0.00     0.124 A 
ATOM      9  C   UNL d   1      32.685  19.271 -24.294  0.00  0.00     0.086 A 
ATOM     10  C   UNL d   1      32.493  19.609 -25.028  0.00  0.00     0.021 C 
ENDROOT
BRANCH   3  11
ATOM     11  N   UNL d   1      33.150  17.304 -23.484  0.00  0.00    -0.227 NA
BRANCH  11  12
ATOM     12  C   UNL d   1      32.576  16.779 -23.746  0.00  0.00     0.083 A 
ATOM     13  C   UNL d   1      31.755  16.772 -23.664  0.00  0.00     0.019 A 
ATOM     14  C   UNL d   1      31.469  16.101 -24.046  0.00  0.00     0.002 A 
ATOM     15  C   UNL d   1      32.100  15.692 -24.365  0.00  0.00     0.002 A 
ATOM     16  C   UNL d   1      32.794  16.105 -24.184  0.00  0.00     0.019 A 
ENDBRANCH  11  12
ENDBRANCH   3  11
BRANCH   4  17
ATOM     17  C   UNL d   1      32.918  20.509 -22.001  0.00  0.00     0.004 A 
ATOM     18  C   UNL d   1      32.499  20.763 -21.349  0.00  0.00     0.000 A 
ATOM     19  C   UNL d   1      32.394  21.572 -21.207  0.00  0.00     0.000 A 
ATOM     20  C   UNL d   1      32.720  22.123 -21.736  0.00  0.00     0.000 A 
ATOM     21  C   UNL d   1      33.142  21.861 -22.392  0.00  0.00     0.000 A 
ATOM     22  C   UNL d   1      33.240  21.060 -22.523  0.00  0.00     0.000 A 
ENDBRANCH   4  17
TORSDOF 3
ENDMDL
MODEL 4
REMARK VINA RESULT:      -1.1      1.728      4.763
REMARK  3 active torsions:
REMARK  status: ('A' for Active; 'I' for Inactive)
REMARK    1  A    between atoms: N_10  and  C_3 
REMARK    2  A    between atoms: C_11  and  C_4 
REMARK    3  A    between atoms: C_12  and  N_10 
ROOT
ATOM      1  C   UNL d   1      32.149  18.249 -23.867  0.00  0.00     0.167 A 
ATOM      2  N   UNL d   1      32.425  18.846 -24.371  0.00  0.00    -0.195 N 
ATOM      3  C   UNL d   1      32.965  19.398 -24.091  0.00  0.00     0.167 A 
ATOM      4  C   UNL d   1      31.625  17.789 -24.294  0.00  0.00     0.057 A 
ATOM      5  N   UNL d   1      32.065  18.742 -25.097  0.00  0.00    -0.161 NA
ATOM      6  N   UNL d   1      32.418  18.213 -23.092  0.00  0.00    -0.227 NA
ATOM      7  C   UNL d   1      33.232  19.357 -23.308  0.00  0.00     0.058 A 
ATOM      8  C   UNL d   1      31.577  18.101 -25.057  0.00  0.00     0.124 A 
ATOM      9  C   UNL d   1      32.962  18.772 -22.815  0.00  0.00     0.086 A 
ATOM     10  C   UNL d   1      33.240  18.744 -22.033  0.00  0.00     0.021 C 
ENDROOT
BRANCH   3  11
ATOM     11  N   UNL d   1      33.241  19.995 -24.594  0.00  0.00    -0.227 NA
BRANCH  11  12
ATOM     12  C   UNL d   1      33.148  20.783 -24.382  0.00  0.00     0.083 A 
ATOM     13  C   UNL d   1      33.064  21.150 -23.648  0.00  0.00     0.019 A 
ATOM     14  C   UNL d   1      32.991  21.961 -23.779  0.00  0.00     0.002 A 
ATOM     15  C   UNL d   1      33.028  22.100 -24.582  0.00  0.00     0.002 A 
ATOM     16  C   UNL d   1      33.125  21.375 -24.968  0.00  0.00     0.019 A 
ENDBRANCH  11  12
ENDBRANCH   3  11
BRANCH   4  17
ATOM     17  C   UNL d   1      31.252  17.142 -23.940  0.00  0.00     0.004 A 
ATOM     18  C   UNL d   1      31.621  16.414 -23.927  0.00  0.00     0.000 A 
ATOM     19  C   UNL d   1      31.250  15.763 -23.573  0.00  0.00     0.000 A 
ATOM     20  C   UNL d   1      30.499  15.859 -23.232  0.00  0.00     0.000 A 
ATOM     21  C   UNL d   1      30.133  16.596 -23.249  0.00  0.00     0.000 A 
ATOM     22  C   UNL d   1      30.507  17.232 -23.600  0.00  0.00     0.000 A 
ENDBRANCH   4  17
TORSDOF 3
ENDMDL
MODEL 5
REMARK VINA RESULT:      -0.0      2.550      4.364
REMARK  3 active torsions:
REMARK  status: ('A' for Active; 'I' for Inactive)
REMARK    1  A    between atoms: N_10  and  C_3 
REMARK    2  A    between atoms: C_11  and  C_4 
REMARK    3  A    between atoms: C_12  and  N_10 
ROOT
ATOM      1  C   UNL d   1      33.218  20.707 -23.693  0.00  0.00     0.167 A 
ATOM      2  N   UNL d   1      33.230  19.974 -24.079  0.00  0.00    -0.195 N 
ATOM      3  C   UNL d   1      33.229  19.280 -23.639  0.00  0.00     0.167 A 
ATOM      4  C   UNL d   1      33.222  21.288 -24.268  0.00  0.00     0.057 A 
ATOM      5  N   UNL d   1      33.241  20.119 -24.883  0.00  0.00    -0.161 NA
ATOM      6  N   UNL d   1      33.205  20.735 -22.873  0.00  0.00    -0.227 NA
ATOM      7  C   UNL d   1      33.216  19.316 -22.811  0.00  0.00     0.058 A 
ATOM      8  C   UNL d   1      33.236  20.917 -25.005  0.00  0.00     0.124 A 
ATOM      9  C   UNL d   1      33.204  20.033 -22.433  0.00  0.00     0.086 A 
ATOM     10  C   UNL d   1      33.191  20.051 -21.603  0.00  0.00     0.021 C 
ENDROOT
BRANCH   3  11
ATOM     11  N   UNL d   1      33.241  18.548 -24.024  0.00  0.00    -0.227 NA
BRANCH  11  12
ATOM     12  C   UNL d   1      32.695  17.970 -23.820  0.00  0.00     0.083 A 
ATOM     13  C   UNL d   1      31.870  17.965 -23.821  0.00  0.00     0.019 A 
ATOM     14  C   UNL d   1      31.621  17.225 -23.557  0.00  0.00     0.002 A 
ATOM     15  C   UNL d   1      32.280  16.772 -23.392  0.00  0.00     0.002 A 
ATOM     16  C   UNL d   1      32.954  17.225 -23.552  0.00  0.00     0.019 A 
ENDBRANCH  11  12
ENDBRANCH   3  11
BRANCH   4  17
ATOM     17  C   UNL d   1      33.212  22.087 -24.055  0.00  0.00     0.004 A 
ATOM     18  C   UNL d   1      33.174  22.663 -24.631  0.00  0.00     0.000 A 
ATOM     19  C   UNL d   1      33.164  23.465 -24.421  0.00  0.00     0.000 A 
ATOM     20  C   UNL d   1      33.192  23.675 -23.618  0.00  0.00     0.000 A 
ATOM     21  C   UNL d   1      33.231  23.088 -23.042  0.00  0.00     0.000 A 
ATOM     22  C   UNL d   1      33.240  22.301 -23.259  0.00  0.00     0.000 A 
ENDBRANCH   4  17
TORSDOF 3
ENDMDL
