MODEL 1
REMARK VINA RESULT:      -5.2      0.000      0.000
REMARK  6 active torsions:
REMARK  status: ('A' for Active; 'I' for Inactive)
REMARK    1  A    between atoms: C_3  and  C_1 
REMARK    2  A    between atoms: C_5  and  C_1 
REMARK    3  A    between atoms: C_2  and  C_5 
REMARK    4  A    between atoms: C_4  and  C_2 
REMARK    5  A    between atoms: C_8  and  C_3 
REMARK    6  A    between atoms: C_7  and  C_4 
ROOT
ATOM      1  C   UNL d   1      57.977  -0.208  30.353  0.00  0.00     0.196 C 
ATOM      2  O   UNL d   1      58.214   0.539  30.072  0.00  0.00    -0.287 OA
ENDROOT
BRANCH   1   3
ATOM      3  C   UNL d   1      57.327  -0.274  30.849  0.00  0.00     0.042 C 
BRANCH   3   4
ATOM      4  C   UNL d   1      57.356  -0.011  31.630  0.00  0.00     0.003 C 
BRANCH   4   5
ATOM      5  C   UNL d   1      56.696  -0.107  32.167  0.00  0.00     0.000 A 
ATOM      6  C   UNL d   1      56.469  -0.855  32.429  0.00  0.00     0.002 A 
ATOM      7  C   UNL d   1      55.838  -0.938  32.940  0.00  0.00     0.030 A 
ATOM      8  C   UNL d   1      55.430  -0.273  33.193  0.00  0.00     0.140 A 
ATOM      9  C   UNL d   1      55.657   0.476  32.930  0.00  0.00     0.030 A 
ATOM     10  F   UNL d   1      54.783  -0.346  33.716  0.00  0.00    -0.204 F 
ATOM     11  C   UNL d   1      56.299   0.582  32.407  0.00  0.00     0.002 A 
ENDBRANCH   4   5
ENDBRANCH   3   4
ENDBRANCH   1   3
BRANCH   1  12
ATOM     12  C   UNL d   1      58.391  -0.879  30.136  0.00  0.00     0.042 C 
BRANCH  12  13
ATOM     13  C   UNL d   1      58.624  -0.987  29.352  0.00  0.00     0.003 C 
BRANCH  13  14
ATOM     14  C   UNL d   1      59.072  -1.670  29.144  0.00  0.00     0.000 A 
ATOM     15  C   UNL d   1      58.684  -2.404  29.140  0.00  0.00     0.002 A 
ATOM     16  C   UNL d   1      59.111  -3.077  28.939  0.00  0.00     0.030 A 
ATOM     17  C   UNL d   1      59.921  -3.016  28.742  0.00  0.00     0.140 A 
ATOM     18  C   UNL d   1      60.292  -2.273  28.752  0.00  0.00     0.030 A 
ATOM     19  F   UNL d   1      60.337  -3.702  28.542  0.00  0.00    -0.204 F 
ATOM     20  C   UNL d   1      59.865  -1.600  28.954  0.00  0.00     0.002 A 
ENDBRANCH  13  14
ENDBRANCH  12  13
ENDBRANCH   1  12
TORSDOF 6
ENDMDL
MODEL 2
REMARK VINA RESULT:      -5.1      0.404      5.196
REMARK  6 active torsions:
REMARK  status: ('A' for Active; 'I' for Inactive)
REMARK    1  A    between atoms: C_3  and  C_1 
REMARK    2  A    between atoms: C_5  and  C_1 
REMARK    3  A    between atoms: C_2  and  C_5 
REMARK    4  A    between atoms: C_4  and  C_2 
REMARK    5  A    between atoms: C_8  and  C_3 
REMARK    6  A    between atoms: C_7  and  C_4 
ROOT
ATOM      1  C   UNL d   1      57.891  -0.027  30.308  0.00  0.00     0.196 C 
ATOM      2  O   UNL d   1      57.634   0.617  29.846  0.00  0.00    -0.287 OA
ENDROOT
BRANCH   1   3
ATOM      3  C   UNL d   1      58.548  -0.462  30.078  0.00  0.00     0.042 C 
BRANCH   3   4
ATOM      4  C   UNL d   1      58.587  -0.816  29.334  0.00  0.00     0.003 C 
BRANCH   4   5
ATOM      5  C   UNL d   1      59.163  -1.422  29.150  0.00  0.00     0.000 A 
ATOM      6  C   UNL d   1      58.932  -2.209  29.053  0.00  0.00     0.002 A 
ATOM      7  C   UNL d   1      59.487  -2.781  28.878  0.00  0.00     0.030 A 
ATOM      8  C   UNL d   1      60.276  -2.571  28.798  0.00  0.00     0.140 A 
ATOM      9  C   UNL d   1      60.506  -1.785  28.894  0.00  0.00     0.030 A 
ATOM     10  F   UNL d   1      60.851  -3.149  28.618  0.00  0.00    -0.204 F 
ATOM     11  C   UNL d   1      59.955  -1.185  29.074  0.00  0.00     0.002 A 
ENDBRANCH   4   5
ENDBRANCH   3   4
ENDBRANCH   1   3
BRANCH   1  12
ATOM     12  C   UNL d   1      57.492  -0.227  30.992  0.00  0.00     0.042 C 
BRANCH  12  13
ATOM     13  C   UNL d   1      56.999   0.322  31.361  0.00  0.00     0.003 C 
BRANCH  13  14
ATOM     14  C   UNL d   1      56.547   0.087  32.033  0.00  0.00     0.000 A 
ATOM     15  C   UNL d   1      56.180   0.680  32.482  0.00  0.00     0.002 A 
ATOM     16  C   UNL d   1      55.737   0.463  33.140  0.00  0.00     0.030 A 
ATOM     17  C   UNL d   1      55.662  -0.344  33.346  0.00  0.00     0.140 A 
ATOM     18  C   UNL d   1      56.036  -0.923  32.884  0.00  0.00     0.030 A 
ATOM     19  F   UNL d   1      55.213  -0.546  34.010  0.00  0.00    -0.204 F 
ATOM     20  C   UNL d   1      56.479  -0.705  32.227  0.00  0.00     0.002 A 
ENDBRANCH  13  14
ENDBRANCH  12  13
ENDBRANCH   1  12
TORSDOF 6
ENDMDL
MODEL 3
REMARK VINA RESULT:      -4.6      1.770      5.462
REMARK  6 active torsions:
REMARK  status: ('A' for Active; 'I' for Inactive)
REMARK    1  A    between atoms: C_3  and  C_1 
REMARK    2  A    between atoms: C_5  and  C_1 
REMARK    3  A    between atoms: C_2  and  C_5 
REMARK    4  A    between atoms: C_4  and  C_2 
REMARK    5  A    between atoms: C_8  and  C_3 
REMARK    6  A    between atoms: C_7  and  C_4 
ROOT
ATOM      1  C   UNL d   1      57.319  -0.504  31.155  0.00  0.00     0.196 C 
ATOM      2  O   UNL d   1      57.086  -1.255  30.880  0.00  0.00    -0.287 OA
ENDROOT
BRANCH   1   3
ATOM      3  C   UNL d   1      57.905  -0.086  30.761  0.00  0.00     0.042 C 
BRANCH   3   4
ATOM      4  C   UNL d   1      58.104  -0.261  29.979  0.00  0.00     0.003 C 
BRANCH   4   5
ATOM      5  C   UNL d   1      58.849  -0.016  29.635  0.00  0.00     0.000 A 
ATOM      6  C   UNL d   1      59.383   0.443  30.064  0.00  0.00     0.002 A 
ATOM      7  C   UNL d   1      60.091   0.672  29.729  0.00  0.00     0.030 A 
ATOM      8  C   UNL d   1      60.270   0.443  28.962  0.00  0.00     0.140 A 
ATOM      9  C   UNL d   1      59.736  -0.017  28.532  0.00  0.00     0.030 A 
ATOM     10  F   UNL d   1      60.991   0.671  28.609  0.00  0.00    -0.204 F 
ATOM     11  C   UNL d   1      59.007  -0.261  28.857  0.00  0.00     0.002 A 
ENDBRANCH   4   5
ENDBRANCH   3   4
ENDBRANCH   1   3
BRANCH   1  12
ATOM     12  C   UNL d   1      56.966  -0.181  31.816  0.00  0.00     0.042 C 
BRANCH  12  13
ATOM     13  C   UNL d   1      56.561  -0.664  32.349  0.00  0.00     0.003 C 
BRANCH  13  14
ATOM     14  C   UNL d   1      56.123  -0.312  32.977  0.00  0.00     0.000 A 
ATOM     15  C   UNL d   1      55.384  -0.639  33.167  0.00  0.00     0.002 A 
ATOM     16  C   UNL d   1      54.948  -0.304  33.778  0.00  0.00     0.030 A 
ATOM     17  C   UNL d   1      55.249   0.354  34.195  0.00  0.00     0.140 A 
ATOM     18  C   UNL d   1      55.990   0.667  33.990  0.00  0.00     0.030 A 
ATOM     19  F   UNL d   1      54.798   0.680  34.807  0.00  0.00    -0.204 F 
ATOM     20  C   UNL d   1      56.426   0.332  33.380  0.00  0.00     0.002 A 
ENDBRANCH  13  14
ENDBRANCH  12  13
ENDBRANCH   1  12
TORSDOF 6
ENDMDL
MODEL 4
REMARK VINA RESULT:      -4.4      1.019      1.401
REMARK  6 active torsions:
REMARK  status: ('A' for Active; 'I' for Inactive)
REMARK    1  A    between atoms: C_3  and  C_1 
REMARK    2  A    between atoms: C_5  and  C_1 
REMARK    3  A    between atoms: C_2  and  C_5 
REMARK    4  A    between atoms: C_4  and  C_2 
REMARK    5  A    between atoms: C_8  and  C_3 
REMARK    6  A    between atoms: C_7  and  C_4 
ROOT
ATOM      1  C   UNL d   1      57.490   0.315  30.746  0.00  0.00     0.196 C 
ATOM      2  O   UNL d   1      56.990   0.680  30.189  0.00  0.00    -0.287 OA
ENDROOT
BRANCH   1   3
ATOM      3  C   UNL d   1      57.309   0.348  31.545  0.00  0.00     0.042 C 
BRANCH   3   4
ATOM      4  C   UNL d   1      56.723  -0.134  31.871  0.00  0.00     0.003 C 
BRANCH   4   5
ATOM      5  C   UNL d   1      56.387   0.019  32.644  0.00  0.00     0.000 A 
ATOM      6  C   UNL d   1      56.771   0.514  33.181  0.00  0.00     0.002 A 
ATOM      7  C   UNL d   1      56.444   0.655  33.915  0.00  0.00     0.030 A 
ATOM      8  C   UNL d   1      55.732   0.302  34.118  0.00  0.00     0.140 A 
ATOM      9  C   UNL d   1      55.349  -0.193  33.581  0.00  0.00     0.030 A 
ATOM     10  F   UNL d   1      55.389   0.440  34.867  0.00  0.00    -0.204 F 
ATOM     11  C   UNL d   1      55.666  -0.350  32.825  0.00  0.00     0.002 A 
ENDBRANCH   4   5
ENDBRANCH   3   4
ENDBRANCH   1   3
BRANCH   1  12
ATOM     12  C   UNL d   1      58.163  -0.077  30.499  0.00  0.00     0.042 C 
BRANCH  12  13
ATOM     13  C   UNL d   1      58.426  -0.000  29.721  0.00  0.00     0.003 C 
BRANCH  13  14
ATOM     14  C   UNL d   1      59.123  -0.407  29.477  0.00  0.00     0.000 A 
ATOM     15  C   UNL d   1      59.035  -1.145  29.107  0.00  0.00     0.002 A 
ATOM     16  C   UNL d   1      59.708  -1.550  28.866  0.00  0.00     0.030 A 
ATOM     17  C   UNL d   1      60.465  -1.219  28.994  0.00  0.00     0.140 A 
ATOM     18  C   UNL d   1      60.533  -0.479  29.365  0.00  0.00     0.030 A 
ATOM     19  F   UNL d   1      61.133  -1.639  28.745  0.00  0.00    -0.204 F 
ATOM     20  C   UNL d   1      59.859  -0.074  29.607  0.00  0.00     0.002 A 
ENDBRANCH  13  14
ENDBRANCH  12  13
ENDBRANCH   1  12
TORSDOF 6
ENDMDL
MODEL 5
REMARK VINA RESULT:      -2.9      1.617      5.696
REMARK  6 active torsions:
REMARK  status: ('A' for Active; 'I' for Inactive)
REMARK    1  A    between atoms: C_3  and  C_1 
REMARK    2  A    between atoms: C_5  and  C_1 
REMARK    3  A    between atoms: C_2  and  C_5 
REMARK    4  A    between atoms: C_4  and  C_2 
REMARK    5  A    between atoms: C_8  and  C_3 
REMARK    6  A    between atoms: C_7  and  C_4 
ROOT
ATOM      1  C   UNL d   1      57.360   0.510  32.393  0.00  0.00     0.196 C 
ATOM      2  O   UNL d   1      58.052   0.636  32.840  0.00  0.00    -0.287 OA
ENDROOT
BRANCH   1   3
ATOM      3  C   UNL d   1      57.415   0.276  31.608  0.00  0.00     0.042 C 
BRANCH   3   4
ATOM      4  C   UNL d   1      57.966   0.617  31.098  0.00  0.00     0.003 C 
BRANCH   4   5
ATOM      5  C   UNL d   1      58.283   0.194  30.424  0.00  0.00     0.000 A 
ATOM      6  C   UNL d   1      57.988  -0.548  30.213  0.00  0.00     0.002 A 
ATOM      7  C   UNL d   1      58.296  -0.944  29.570  0.00  0.00     0.030 A 
ATOM      8  C   UNL d   1      58.899  -0.602  29.132  0.00  0.00     0.140 A 
ATOM      9  C   UNL d   1      59.193   0.139  29.342  0.00  0.00     0.030 A 
ATOM     10  F   UNL d   1      59.220  -1.000  28.471  0.00  0.00    -0.204 F 
ATOM     11  C   UNL d   1      58.893   0.561  29.997  0.00  0.00     0.002 A 
ENDBRANCH   4   5
ENDBRANCH   3   4
ENDBRANCH   1   3
BRANCH   1  12
ATOM     12  C   UNL d   1      56.625   0.619  32.733  0.00  0.00     0.042 C 
BRANCH  12  13
ATOM     13  C   UNL d   1      56.499   0.415  33.522  0.00  0.00     0.003 C 
BRANCH  13  14
ATOM     14  C   UNL d   1      55.725   0.481  33.848  0.00  0.00     0.000 A 
ATOM     15  C   UNL d   1      55.644   0.443  34.673  0.00  0.00     0.002 A 
ATOM     16  C   UNL d   1      54.893   0.506  35.002  0.00  0.00     0.030 A 
ATOM     17  C   UNL d   1      54.227   0.606  34.508  0.00  0.00     0.140 A 
ATOM     18  C   UNL d   1      54.328   0.642  33.684  0.00  0.00     0.030 A 
ATOM     19  F   UNL d   1      53.478   0.668  34.853  0.00  0.00    -0.204 F 
ATOM     20  C   UNL d   1      55.078   0.579  33.356  0.00  0.00     0.002 A 
ENDBRANCH  13  14
ENDBRANCH  12  13
ENDBRANCH   1  12
TORSDOF 6
ENDMDL
