MODEL 1
REMARK VINA RESULT:      -3.0      0.000      0.000
REMARK  4 active torsions:
REMARK  status: ('A' for Active; 'I' for Inactive)
REMARK    1  A    between atoms: C_11  and  C_4 
REMARK    2  A    between atoms: N_10  and  C_5 
REMARK    3  A    between atoms: C_13  and  N_10 
REMARK    4  A    between atoms: C_14  and  C_13 
ROOT
ATOM      1  N   UNL d   1      57.235  -1.286  31.183  0.00  0.00    -0.195 N 
ATOM      2  C   UNL d   1      57.170  -0.607  31.646  0.00  0.00     0.167 A 
ATOM      3  N   UNL d   1      56.695  -1.833  31.463  0.00  0.00    -0.163 NA
ATOM      4  C   UNL d   1      56.590  -0.735  32.212  0.00  0.00     0.055 A 
ATOM      5  C   UNL d   1      57.779  -1.314  30.567  0.00  0.00     0.167 A 
ATOM      6  C   UNL d   1      56.295  -1.492  32.101  0.00  0.00     0.104 A 
ATOM      7  N   UNL d   1      57.649   0.044  31.493  0.00  0.00    -0.227 NA
ATOM      8  C   UNL d   1      58.265  -0.660  30.409  0.00  0.00     0.058 A 
ATOM      9  C   UNL d   1      58.199   0.019  30.873  0.00  0.00     0.086 A 
ATOM     10  C   UNL d   1      55.701  -1.849  32.549  0.00  0.00     0.023 C 
ATOM     11  C   UNL d   1      58.681   0.682  30.724  0.00  0.00     0.021 C 
ENDROOT
BRANCH   5  12
ATOM     12  N   UNL d   1      57.845  -1.994  30.103  0.00  0.00    -0.224 NA
BRANCH  12  13
ATOM     13  C   UNL d   1      58.279  -1.976  29.405  0.00  0.00     0.120 C 
BRANCH  13  14
ATOM     14  C   UNL d   1      58.582  -2.675  29.089  0.00  0.00     0.101 A 
ATOM     15  N   UNL d   1      58.070  -3.306  28.920  0.00  0.00    -0.242 NA
ATOM     16  C   UNL d   1      58.374  -4.009  28.602  0.00  0.00     0.099 A 
ATOM     17  C   UNL d   1      59.188  -4.076  28.455  0.00  0.00     0.021 A 
ATOM     18  C   UNL d   1      59.692  -3.448  28.624  0.00  0.00     0.003 A 
ATOM     19  C   UNL d   1      59.388  -2.746  28.942  0.00  0.00     0.021 A 
ENDBRANCH  13  14
ENDBRANCH  12  13
ENDBRANCH   5  12
BRANCH   4  20
ATOM     20  C   UNL d   1      56.287  -0.263  32.818  0.00  0.00     0.004 A 
ATOM     21  C   UNL d   1      56.722  -0.161  33.517  0.00  0.00     0.000 A 
ATOM     22  C   UNL d   1      56.419   0.312  34.124  0.00  0.00     0.000 A 
ATOM     23  C   UNL d   1      55.688   0.682  34.036  0.00  0.00     0.000 A 
ATOM     24  C   UNL d   1      55.254   0.578  33.334  0.00  0.00     0.000 A 
ATOM     25  C   UNL d   1      55.555   0.107  32.731  0.00  0.00     0.000 A 
ENDBRANCH   4  20
TORSDOF 4
ENDMDL
