MODEL 1
REMARK VINA RESULT:       3.4      0.000      0.000
REMARK  3 active torsions:
REMARK  status: ('A' for Active; 'I' for Inactive)
REMARK    1  A    between atoms: C_6  and  C_1 
REMARK    2  A    between atoms: O_10  and  C_6 
REMARK    3  A    between atoms: C_19  and  O_10 
ROOT
ATOM      1  C   UNL d   1      30.629  17.488 -24.408  0.00  0.00     0.081 A 
ATOM      2  C   UNL d   1      31.822  18.340 -24.380  0.00  0.00     0.056 A 
ATOM      3  C   UNL d   1      31.431  18.901 -24.816  0.00  0.00     0.080 A 
ATOM      4  C   UNL d   1      30.238  18.049 -24.845  0.00  0.00     0.086 A 
ATOM      5  C   UNL d   1      31.447  17.635 -24.167  0.00  0.00     0.013 A 
ATOM      6  N   UNL d   1      30.642  18.793 -25.067  0.00  0.00    -0.246 NA
ATOM      7  C   UNL d   1      32.602  18.460 -24.140  0.00  0.00     0.193 A 
ATOM      8  C   UNL d   1      31.796  19.618 -25.039  0.00  0.00    -0.003 A 
ATOM      9  C   UNL d   1      32.590  19.729 -24.789  0.00  0.00     0.042 A 
ATOM     10  C   UNL d   1      32.980  19.167 -24.353  0.00  0.00     0.019 A 
ATOM     11  O   UNL d   1      32.993  17.898 -23.703  0.00  0.00    -0.287 OA
ATOM     12  C   UNL d   1      32.080  16.725 -23.460  0.00  0.00     0.020 A 
ATOM     13  N   UNL d   1      32.045  15.453 -22.826  0.00  0.00    -0.242 NA
ATOM     14  C   UNL d   1      29.449  17.941 -25.095  0.00  0.00     0.021 C 
ATOM     15  C   UNL d   1      31.648  16.023 -23.270  0.00  0.00     0.099 A 
ATOM     16  C   UNL d   1      32.744  20.452 -25.097  0.00  0.00     0.009 C 
ATOM     17  C   UNL d   1      33.236  20.190 -24.774  0.00  0.00     0.009 C 
ATOM     18  C   UNL d   1      32.855  15.612 -22.594  0.00  0.00     0.099 A 
ATOM     19  C   UNL d   1      32.844  16.877 -23.241  0.00  0.00     0.003 A 
ATOM     20  C   UNL d   1      33.241  16.307 -22.798  0.00  0.00     0.021 A 
ENDROOT
BRANCH   1  21
ATOM     21  C   UNL d   1      30.254  16.784 -24.195  0.00  0.00     0.301 C 
ATOM     22  O   UNL d   1      30.488  16.076 -24.517  0.00  0.00    -0.259 OA
BRANCH  21  23
ATOM     23  O   UNL d   1      29.637  16.815 -23.647  0.00  0.00    -0.273 OA
BRANCH  23  24
ATOM     24  C   UNL d   1      29.149  16.239 -23.597  0.00  0.00     0.103 C 
ATOM     25  C   UNL d   1      28.876  16.040 -22.900  0.00  0.00     0.027 C 
ATOM     26  C   UNL d   1      28.937  15.868 -24.225  0.00  0.00     0.027 C 
ENDBRANCH  23  24
ENDBRANCH  21  23
ENDBRANCH   1  21
TORSDOF 3
ENDMDL
MODEL 2
REMARK VINA RESULT:       4.0      1.253      3.428
REMARK  3 active torsions:
REMARK  status: ('A' for Active; 'I' for Inactive)
REMARK    1  A    between atoms: C_6  and  C_1 
REMARK    2  A    between atoms: O_10  and  C_6 
REMARK    3  A    between atoms: C_19  and  O_10 
ROOT
ATOM      1  C   UNL d   1      31.167  16.720 -23.779  0.00  0.00     0.081 A 
ATOM      2  C   UNL d   1      30.133  17.615 -24.307  0.00  0.00     0.056 A 
ATOM      3  C   UNL d   1      29.561  17.082 -24.091  0.00  0.00     0.080 A 
ATOM      4  C   UNL d   1      30.595  16.187 -23.563  0.00  0.00     0.086 A 
ATOM      5  C   UNL d   1      30.931  17.458 -24.164  0.00  0.00     0.013 A 
ATOM      6  N   UNL d   1      29.752  16.359 -23.718  0.00  0.00    -0.246 NA
ATOM      7  C   UNL d   1      29.931  18.325 -24.675  0.00  0.00     0.193 A 
ATOM      8  C   UNL d   1      28.751  17.226 -24.230  0.00  0.00    -0.003 A 
ATOM      9  C   UNL d   1      28.557  17.951 -24.605  0.00  0.00     0.042 A 
ATOM     10  C   UNL d   1      29.129  18.484 -24.821  0.00  0.00     0.019 A 
ATOM     11  O   UNL d   1      30.503  18.858 -24.892  0.00  0.00    -0.287 OA
ATOM     12  C   UNL d   1      31.859  18.322 -24.514  0.00  0.00     0.020 A 
ATOM     13  N   UNL d   1      33.241  18.652 -24.563  0.00  0.00    -0.242 NA
ATOM     14  C   UNL d   1      30.785  15.464 -23.190  0.00  0.00     0.021 C 
ATOM     15  C   UNL d   1      32.660  18.111 -24.343  0.00  0.00     0.099 A 
ATOM     16  C   UNL d   1      27.759  17.892 -24.642  0.00  0.00     0.009 C 
ATOM     17  C   UNL d   1      27.997  18.436 -24.891  0.00  0.00     0.009 C 
ATOM     18  C   UNL d   1      32.993  19.380 -24.943  0.00  0.00     0.099 A 
ATOM     19  C   UNL d   1      31.623  19.008 -24.873  0.00  0.00     0.003 A 
ATOM     20  C   UNL d   1      32.204  19.550 -25.093  0.00  0.00     0.021 A 
ENDROOT
BRANCH   1  21
ATOM     21  C   UNL d   1      31.965  16.563 -23.635  0.00  0.00     0.301 C 
ATOM     22  O   UNL d   1      32.482  16.447 -24.251  0.00  0.00    -0.259 OA
BRANCH  21  23
ATOM     23  O   UNL d   1      32.226  16.528 -22.852  0.00  0.00    -0.273 OA
BRANCH  23  24
ATOM     24  C   UNL d   1      32.892  16.207 -22.692  0.00  0.00     0.103 C 
ATOM     25  C   UNL d   1      33.236  16.376 -22.019  0.00  0.00     0.027 C 
ATOM     26  C   UNL d   1      33.210  15.729 -23.189  0.00  0.00     0.027 C 
ENDBRANCH  23  24
ENDBRANCH  21  23
ENDBRANCH   1  21
TORSDOF 3
ENDMDL
