MODEL 1
REMARK VINA RESULT:      -9.6      0.000      0.000
REMARK  2 active torsions:
REMARK  status: ('A' for Active; 'I' for Inactive)
REMARK    1  A    between atoms: C_6  and  N_1 
REMARK    2  A    between atoms: C_7  and  C_6 
ROOT
ATOM      1  N   UNL d   1      53.826  33.104  53.870  0.00  0.00    -0.287 N 
ATOM      2  N   UNL d   1      53.924  33.477  55.131  0.00  0.00    -0.224 NA
ATOM      3  C   UNL d   1      54.119  32.874  54.601  0.00  0.00     0.183 A 
ATOM      4  C   UNL d   1      53.462  33.821  53.940  0.00  0.00     0.083 A 
ATOM      5  C   UNL d   1      53.524  34.054  54.729  0.00  0.00     0.099 A 
ATOM      6  C   UNL d   1      53.077  34.306  53.396  0.00  0.00     0.019 A 
ATOM      7  C   UNL d   1      53.200  34.772  54.974  0.00  0.00     0.021 A 
ATOM      8  C   UNL d   1      52.753  35.025  53.640  0.00  0.00     0.002 A 
ATOM      9  C   UNL d   1      52.815  35.258  54.429  0.00  0.00     0.002 A 
ENDROOT
BRANCH   1  10
ATOM     10  C   UNL d   1      53.976  32.553  53.266  0.00  0.00     0.082 C 
BRANCH  10  11
ATOM     11  C   UNL d   1      53.617  31.820  53.283  0.00  0.00     0.018 A 
ATOM     12  C   UNL d   1      53.987  31.192  53.668  0.00  0.00     0.002 A 
ATOM     13  C   UNL d   1      53.628  30.450  53.688  0.00  0.00     0.011 A 
ATOM     14  C   UNL d   1      52.897  30.336  53.323  0.00  0.00     0.058 A 
ATOM     15  C   UNL d   1      52.552  30.969  52.951  0.00  0.00     0.011 A 
ATOM     16 CL   UNL d   1      52.563  29.594  53.357  0.00  0.00    -0.082 Cl
ATOM     17  C   UNL d   1      52.886  31.706  52.918  0.00  0.00     0.002 A 
ENDBRANCH  10  11
ENDBRANCH   1  10
TORSDOF 2
ENDMDL
MODEL 2
REMARK VINA RESULT:      -9.3      1.672      3.775
REMARK  2 active torsions:
REMARK  status: ('A' for Active; 'I' for Inactive)
REMARK    1  A    between atoms: C_6  and  N_1 
REMARK    2  A    between atoms: C_7  and  C_6 
ROOT
ATOM      1  N   UNL d   1      53.403  32.208  53.216  0.00  0.00    -0.287 N 
ATOM      2  N   UNL d   1      52.310  31.759  52.629  0.00  0.00    -0.224 NA
ATOM      3  C   UNL d   1      52.760  32.439  52.761  0.00  0.00     0.183 A 
ATOM      4  C   UNL d   1      53.356  31.416  53.362  0.00  0.00     0.083 A 
ATOM      5  C   UNL d   1      52.673  31.135  52.995  0.00  0.00     0.099 A 
ATOM      6  C   UNL d   1      53.841  30.898  53.781  0.00  0.00     0.019 A 
ATOM      7  C   UNL d   1      52.474  30.337  53.047  0.00  0.00     0.021 A 
ATOM      8  C   UNL d   1      53.643  30.098  53.835  0.00  0.00     0.002 A 
ATOM      9  C   UNL d   1      52.960  29.818  53.468  0.00  0.00     0.002 A 
ENDROOT
BRANCH   1  10
ATOM     10  C   UNL d   1      53.918  32.833  53.400  0.00  0.00     0.082 C 
BRANCH  10  11
ATOM     11  C   UNL d   1      53.631  33.505  53.765  0.00  0.00     0.018 A 
ATOM     12  C   UNL d   1      53.300  34.107  53.309  0.00  0.00     0.002 A 
ATOM     13  C   UNL d   1      53.008  34.788  53.673  0.00  0.00     0.011 A 
ATOM     14  C   UNL d   1      53.047  34.866  54.493  0.00  0.00     0.058 A 
ATOM     15  C   UNL d   1      53.377  34.260  54.920  0.00  0.00     0.011 A 
ATOM     16 CL   UNL d   1      52.752  35.547  54.828  0.00  0.00    -0.082 Cl
ATOM     17  C   UNL d   1      53.670  33.583  54.585  0.00  0.00     0.002 A 
ENDBRANCH  10  11
ENDBRANCH   1  10
TORSDOF 2
ENDMDL
MODEL 3
REMARK VINA RESULT:      -9.0      1.994      3.218
REMARK  2 active torsions:
REMARK  status: ('A' for Active; 'I' for Inactive)
REMARK    1  A    between atoms: C_6  and  N_1 
REMARK    2  A    between atoms: C_7  and  C_6 
ROOT
ATOM      1  N   UNL d   1      53.048  33.625  53.376  0.00  0.00    -0.287 N 
ATOM      2  N   UNL d   1      53.216  32.321  53.490  0.00  0.00    -0.224 NA
ATOM      3  C   UNL d   1      52.869  32.907  53.022  0.00  0.00     0.183 A 
ATOM      4  C   UNL d   1      53.490  33.494  54.039  0.00  0.00     0.083 A 
ATOM      5  C   UNL d   1      53.594  32.678  54.110  0.00  0.00     0.099 A 
ATOM      6  C   UNL d   1      53.818  34.002  54.598  0.00  0.00     0.019 A 
ATOM      7  C   UNL d   1      54.028  32.371  54.741  0.00  0.00     0.021 A 
ATOM      8  C   UNL d   1      54.252  33.696  55.230  0.00  0.00     0.002 A 
ATOM      9  C   UNL d   1      54.357  32.881  55.302  0.00  0.00     0.002 A 
ENDROOT
BRANCH   1  10
ATOM     10  C   UNL d   1      52.737  34.280  52.970  0.00  0.00     0.082 C 
BRANCH  10  11
ATOM     11  C   UNL d   1      51.937  34.318  52.810  0.00  0.00     0.018 A 
ATOM     12  C   UNL d   1      51.664  34.144  52.052  0.00  0.00     0.002 A 
ATOM     13  C   UNL d   1      50.856  34.181  51.885  0.00  0.00     0.011 A 
ATOM     14  C   UNL d   1      50.323  34.393  52.478  0.00  0.00     0.058 A 
ATOM     15  C   UNL d   1      50.616  34.561  53.215  0.00  0.00     0.011 A 
ATOM     16 CL   UNL d   1      49.531  34.423  52.288  0.00  0.00    -0.082 Cl
ATOM     17  C   UNL d   1      51.404  34.531  53.402  0.00  0.00     0.002 A 
ENDBRANCH  10  11
ENDBRANCH   1  10
TORSDOF 2
ENDMDL
MODEL 4
REMARK VINA RESULT:      -8.6      2.105      2.964
REMARK  2 active torsions:
REMARK  status: ('A' for Active; 'I' for Inactive)
REMARK    1  A    between atoms: C_6  and  N_1 
REMARK    2  A    between atoms: C_7  and  C_6 
ROOT
ATOM      1  N   UNL d   1      52.587  33.373  53.122  0.00  0.00    -0.287 N 
ATOM      2  N   UNL d   1      52.429  34.471  52.409  0.00  0.00    -0.224 NA
ATOM      3  C   UNL d   1      52.997  33.953  52.712  0.00  0.00     0.183 A 
ATOM      4  C   UNL d   1      51.796  33.522  53.078  0.00  0.00     0.083 A 
ATOM      5  C   UNL d   1      51.697  34.209  52.632  0.00  0.00     0.099 A 
ATOM      6  C   UNL d   1      51.137  33.129  53.381  0.00  0.00     0.019 A 
ATOM      7  C   UNL d   1      50.940  34.503  52.489  0.00  0.00     0.021 A 
ATOM      8  C   UNL d   1      50.379  33.423  53.239  0.00  0.00     0.002 A 
ATOM      9  C   UNL d   1      50.281  34.110  52.793  0.00  0.00     0.002 A 
ENDROOT
BRANCH   1  10
ATOM     10  C   UNL d   1      53.082  32.800  53.466  0.00  0.00     0.082 C 
BRANCH  10  11
ATOM     11  C   UNL d   1      53.680  33.028  53.973  0.00  0.00     0.018 A 
ATOM     12  C   UNL d   1      54.451  33.099  53.690  0.00  0.00     0.002 A 
ATOM     13  C   UNL d   1      55.058  33.330  54.198  0.00  0.00     0.011 A 
ATOM     14  C   UNL d   1      54.894  33.490  54.991  0.00  0.00     0.058 A 
ATOM     15  C   UNL d   1      54.128  33.413  55.246  0.00  0.00     0.011 A 
ATOM     16 CL   UNL d   1      55.511  33.715  55.472  0.00  0.00    -0.082 Cl
ATOM     17  C   UNL d   1      53.515  33.188  54.765  0.00  0.00     0.002 A 
ENDBRANCH  10  11
ENDBRANCH   1  10
TORSDOF 2
ENDMDL
