MODEL 1
REMARK VINA RESULT:      -3.9      0.000      0.000
REMARK  9 active torsions:
REMARK  status: ('A' for Active; 'I' for Inactive)
REMARK    1  A    between atoms: C_3  and  C_1 
REMARK    2  A    between atoms: C_4  and  C_1 
REMARK    3  A    between atoms: C_2  and  C_4 
REMARK    4  A    between atoms: O_9  and  C_2 
REMARK       I    between atoms: N_6  and  C_3 
REMARK    5  A    between atoms: N_5  and  C_4 
REMARK    6  A    between atoms: C_10  and  N_5 
REMARK    7  A    between atoms: C_11  and  N_6 
REMARK    8  A    between atoms: C_12  and  C_10 
REMARK    9  A    between atoms: C_13  and  C_11 
ROOT
ATOM      1  C   UNK d   1     -42.486-122.990 -49.526  0.00  0.00     0.124 C 
ENDROOT
BRANCH   1   2
ATOM      2  C   UNK d   1     -43.289-123.005 -49.757  0.00  0.00     0.194 C 
ATOM      3  O   UNK d   1     -43.697-123.713 -49.787  0.00  0.00    -0.645 OA
BRANCH   2   4
ATOM      4  O   UNK d   1     -43.679-122.295 -49.959  0.00  0.00    -0.772 OA
ATOM      5  H   UNK d   1     -44.039-122.219 -50.699  0.00  0.00     0.167 HD
ENDBRANCH   2   4
ENDBRANCH   1   2
BRANCH   1   6
ATOM      6  C   UNK d   1     -41.924-122.619 -50.001  0.00  0.00     0.084 C 
BRANCH   6   7
ATOM      7  C   UNK d   1     -41.584-123.030 -50.622  0.00  0.00     0.259 C 
ATOM      8  N   UNK d   1     -41.488-122.660 -51.353  0.00  0.00    -0.320 N 
ATOM      9  H   UNK d   1     -41.737-121.868 -51.459  0.00  0.00     0.169 HD
ATOM     10  O   UNK d   1     -41.336-123.817 -50.517  0.00  0.00    -0.267 OA
BRANCH   8  11
ATOM     11  C   UNK d   1     -41.145-123.069 -51.982  0.00  0.00     0.075 C 
BRANCH  11  12
ATOM     12  C   UNK d   1     -41.175-122.760 -52.752  0.00  0.00     0.017 C 
ATOM     13  C   UNK d   1     -41.123-121.946 -52.878  0.00  0.00     0.002 C 
ATOM     14  C   UNK d   1     -41.258-123.273 -53.397  0.00  0.00     0.002 C 
ENDBRANCH  11  12
ENDBRANCH   8  11
ENDBRANCH   6   7
ENDBRANCH   1   6
BRANCH   1  15
ATOM     15  N   UNK d   1     -42.249-123.346 -48.822  0.00  0.00    -0.347 N 
ATOM     16  H   UNK d   1     -42.058-124.157 -48.825  0.00  0.00     0.166 HD
BRANCH  15  17
ATOM     17  C   UNK d   0     -42.201-122.904 -48.122  0.00  0.00     0.073 C 
BRANCH  17  18
ATOM     18  C   UNK d   0     -41.934-123.254 -47.434  0.00  0.00     0.017 C 
ATOM     19  C   UNK d   0     -42.304-123.090 -46.715  0.00  0.00     0.002 C 
ATOM     20  C   UNK d   0     -41.294-123.772 -47.459  0.00  0.00     0.002 C 
ENDBRANCH  17  18
ENDBRANCH  15  17
ENDBRANCH   1  15
TORSDOF 9
ENDMDL
MODEL 2
REMARK VINA RESULT:      -1.8      1.510      2.216
REMARK  9 active torsions:
REMARK  status: ('A' for Active; 'I' for Inactive)
REMARK    1  A    between atoms: C_3  and  C_1 
REMARK    2  A    between atoms: C_4  and  C_1 
REMARK    3  A    between atoms: C_2  and  C_4 
REMARK    4  A    between atoms: O_9  and  C_2 
REMARK       I    between atoms: N_6  and  C_3 
REMARK    5  A    between atoms: N_5  and  C_4 
REMARK    6  A    between atoms: C_10  and  N_5 
REMARK    7  A    between atoms: C_11  and  N_6 
REMARK    8  A    between atoms: C_12  and  C_10 
REMARK    9  A    between atoms: C_13  and  C_11 
ROOT
ATOM      1  C   UNK d   1     -41.597-122.456 -51.282  0.00  0.00     0.124 C 
ENDROOT
BRANCH   1   2
ATOM      2  C   UNK d   1     -41.922-121.689 -51.212  0.00  0.00     0.194 C 
ATOM      3  O   UNK d   1     -41.433-121.033 -51.207  0.00  0.00    -0.645 OA
BRANCH   2   4
ATOM      4  O   UNK d   1     -42.747-121.589 -51.145  0.00  0.00    -0.772 OA
ATOM      5  H   UNK d   1     -43.054-120.878 -50.856  0.00  0.00     0.167 HD
ENDBRANCH   2   4
ENDBRANCH   1   2
BRANCH   1   6
ATOM      6  C   UNK d   1     -41.123-122.647 -51.928  0.00  0.00     0.084 C 
BRANCH   6   7
ATOM      7  C   UNK d   1     -41.458-122.998 -52.588  0.00  0.00     0.259 C 
ATOM      8  N   UNK d   1     -41.399-122.627 -53.322  0.00  0.00    -0.320 N 
ATOM      9  H   UNK d   1     -40.998-121.897 -53.393  0.00  0.00     0.169 HD
ATOM     10  O   UNK d   1     -41.857-123.725 -52.518  0.00  0.00    -0.267 OA
BRANCH   8  11
ATOM     11  C   UNK d   1     -41.735-122.976 -53.990  0.00  0.00     0.075 C 
BRANCH  11  12
ATOM     12  C   UNK d   1     -41.720-122.584 -54.722  0.00  0.00     0.017 C 
ATOM     13  C   UNK d   1     -42.245-121.967 -54.877  0.00  0.00     0.002 C 
ATOM     14  C   UNK d   1     -41.174-122.816 -55.301  0.00  0.00     0.002 C 
ENDBRANCH  11  12
ENDBRANCH   8  11
ENDBRANCH   6   7
ENDBRANCH   1   6
BRANCH   1  15
ATOM     15  N   UNK d   1     -41.749-123.027 -50.709  0.00  0.00    -0.347 N 
ATOM     16  H   UNK d   1     -42.356-123.582 -50.844  0.00  0.00     0.166 HD
BRANCH  15  17
ATOM     17  C   UNK d   0     -41.306-123.048 -50.009  0.00  0.00     0.073 C 
BRANCH  17  18
ATOM     18  C   UNK d   0     -41.584-123.460 -49.360  0.00  0.00     0.017 C 
ATOM     19  C   UNK d   0     -41.124-123.519 -48.678  0.00  0.00     0.002 C 
ATOM     20  C   UNK d   0     -42.327-123.818 -49.388  0.00  0.00     0.002 C 
ENDBRANCH  17  18
ENDBRANCH  15  17
ENDBRANCH   1  15
TORSDOF 9
ENDMDL
