MODEL 1
REMARK VINA RESULT:      -5.6      0.000      0.000
REMARK  1 active torsions:
REMARK  status: ('A' for Active; 'I' for Inactive)
REMARK    1  A    between atoms: C_4  and  C_1 
ROOT
ATOM      1  C   UNL d   1      55.246   0.228  33.659  0.00  0.00     0.164 A 
ATOM      2  O   UNL d   1      55.715   0.681  33.152  0.00  0.00    -0.301 OA
ATOM      3  C   UNL d   1      55.361  -0.565  33.476  0.00  0.00     0.033 A 
ATOM      4  C   UNL d   1      56.122   0.163  32.655  0.00  0.00     0.100 A 
ATOM      5  C   UNL d   1      55.902  -0.611  32.856  0.00  0.00     0.025 A 
ATOM      6  C   UNL d   1      56.661   0.290  32.047  0.00  0.00     0.025 A 
ATOM      7  C   UNL d   1      56.224  -1.253  32.448  0.00  0.00     0.002 A 
ATOM      8  C   UNL d   1      56.771  -1.124  31.833  0.00  0.00     0.000 A 
ATOM      9  C   UNL d   1      56.989  -0.354  31.632  0.00  0.00     0.002 A 
ENDROOT
BRANCH   1  10
ATOM     10  C   UNL d   1      54.752   0.529  34.242  0.00  0.00     0.235 C 
ATOM     11  O   UNL d   1      55.063   0.681  34.999  0.00  0.00    -0.642 OA
ATOM     12  O   UNL d   1      53.956   0.682  34.083  0.00  0.00    -0.642 OA
ENDBRANCH   1  10
TORSDOF 1
ENDMDL
MODEL 2
REMARK VINA RESULT:      -5.6      1.982      3.226
REMARK  1 active torsions:
REMARK  status: ('A' for Active; 'I' for Inactive)
REMARK    1  A    between atoms: C_4  and  C_1 
ROOT
ATOM      1  C   UNL d   1      57.258   0.094  31.292  0.00  0.00     0.164 A 
ATOM      2  O   UNL d   1      57.086  -0.687  31.496  0.00  0.00    -0.301 OA
ATOM      3  C   UNL d   1      56.827   0.589  31.787  0.00  0.00     0.033 A 
ATOM      4  C   UNL d   1      56.546  -0.673  32.120  0.00  0.00     0.100 A 
ATOM      5  C   UNL d   1      56.385   0.120  32.301  0.00  0.00     0.025 A 
ATOM      6  C   UNL d   1      56.180  -1.273  32.547  0.00  0.00     0.025 A 
ATOM      7  C   UNL d   1      55.858   0.308  32.909  0.00  0.00     0.002 A 
ATOM      8  C   UNL d   1      55.487  -0.300  33.341  0.00  0.00     0.000 A 
ATOM      9  C   UNL d   1      55.648  -1.089  33.161  0.00  0.00     0.002 A 
ENDROOT
BRANCH   1  10
ATOM     10  C   UNL d   1      57.773   0.325  30.696  0.00  0.00     0.235 C 
ATOM     11  O   UNL d   1      57.489   0.383  29.914  0.00  0.00    -0.642 OA
ATOM     12  O   UNL d   1      58.562   0.500  30.864  0.00  0.00    -0.642 OA
ENDBRANCH   1  10
TORSDOF 1
ENDMDL
MODEL 3
REMARK VINA RESULT:      -4.7      1.424      2.218
REMARK  1 active torsions:
REMARK  status: ('A' for Active; 'I' for Inactive)
REMARK    1  A    between atoms: C_4  and  C_1 
ROOT
ATOM      1  C   UNL d   1      56.295  -0.839  32.430  0.00  0.00     0.164 A 
ATOM      2  O   UNL d   1      56.663  -1.257  31.821  0.00  0.00    -0.301 OA
ATOM      3  C   UNL d   1      56.517  -0.049  32.372  0.00  0.00     0.033 A 
ATOM      4  C   UNL d   1      57.115  -0.721  31.385  0.00  0.00     0.100 A 
ATOM      5  C   UNL d   1      57.024   0.029  31.727  0.00  0.00     0.025 A 
ATOM      6  C   UNL d   1      57.596  -0.813  30.723  0.00  0.00     0.025 A 
ATOM      7  C   UNL d   1      57.415   0.682  31.406  0.00  0.00     0.002 A 
ATOM      8  C   UNL d   1      57.902   0.588  30.736  0.00  0.00     0.000 A 
ATOM      9  C   UNL d   1      57.993  -0.158  30.395  0.00  0.00     0.002 A 
ENDROOT
BRANCH   1  10
ATOM     10  C   UNL d   1      55.794  -1.167  32.992  0.00  0.00     0.235 C 
ATOM     11  O   UNL d   1      55.188  -0.697  33.319  0.00  0.00    -0.642 OA
ATOM     12  O   UNL d   1      55.885  -1.951  33.233  0.00  0.00    -0.642 OA
ENDBRANCH   1  10
TORSDOF 1
ENDMDL
MODEL 4
REMARK VINA RESULT:      -4.1      1.011      1.639
REMARK  1 active torsions:
REMARK  status: ('A' for Active; 'I' for Inactive)
REMARK    1  A    between atoms: C_4  and  C_1 
ROOT
ATOM      1  C   UNL d   1      56.274  -0.045  32.682  0.00  0.00     0.164 A 
ATOM      2  O   UNL d   1      56.544   0.600  32.244  0.00  0.00    -0.301 OA
ATOM      3  C   UNL d   1      56.545  -0.733  32.321  0.00  0.00     0.033 A 
ATOM      4  C   UNL d   1      56.984   0.308  31.610  0.00  0.00     0.100 A 
ATOM      5  C   UNL d   1      56.985  -0.520  31.658  0.00  0.00     0.025 A 
ATOM      6  C   UNL d   1      57.385   0.682  30.996  0.00  0.00     0.025 A 
ATOM      7  C   UNL d   1      57.385  -0.968  31.091  0.00  0.00     0.002 A 
ATOM      8  C   UNL d   1      57.790  -0.588  30.470  0.00  0.00     0.000 A 
ATOM      9  C   UNL d   1      57.790   0.235  30.422  0.00  0.00     0.002 A 
ENDROOT
BRANCH   1  10
ATOM     10  C   UNL d   1      55.814   0.003  33.360  0.00  0.00     0.235 C 
ATOM     11  O   UNL d   1      55.019  -0.246  33.330  0.00  0.00    -0.642 OA
ATOM     12  O   UNL d   1      56.130   0.293  34.065  0.00  0.00    -0.642 OA
ENDBRANCH   1  10
TORSDOF 1
ENDMDL
MODEL 5
REMARK VINA RESULT:      -3.2      9.226     10.042
REMARK  1 active torsions:
REMARK  status: ('A' for Active; 'I' for Inactive)
REMARK    1  A    between atoms: C_4  and  C_1 
ROOT
ATOM      1  C   UNL d   1      59.909  -9.031  34.114  0.00  0.00     0.164 A 
ATOM      2  O   UNL d   1      59.326  -8.622  34.531  0.00  0.00    -0.301 OA
ATOM      3  C   UNL d   1      60.632  -8.896  34.483  0.00  0.00     0.033 A 
ATOM      4  C   UNL d   1      59.692  -8.233  35.160  0.00  0.00     0.100 A 
ATOM      5  C   UNL d   1      60.502  -8.403  35.131  0.00  0.00     0.025 A 
ATOM      6  C   UNL d   1      59.397  -7.747  35.756  0.00  0.00     0.025 A 
ATOM      7  C   UNL d   1      61.014  -8.086  35.696  0.00  0.00     0.002 A 
ATOM      8  C   UNL d   1      60.715  -7.594  36.299  0.00  0.00     0.000 A 
ATOM      9  C   UNL d   1      59.908  -7.425  36.329  0.00  0.00     0.002 A 
ENDROOT
BRANCH   1  10
ATOM     10  C   UNL d   1      59.779  -9.492  33.447  0.00  0.00     0.235 C 
ATOM     11  O   UNL d   1      60.408  -9.627  32.918  0.00  0.00    -0.642 OA
ATOM     12  O   UNL d   1      59.036  -9.818  33.298  0.00  0.00    -0.642 OA
ENDBRANCH   1  10
TORSDOF 1
ENDMDL
MODEL 6
REMARK VINA RESULT:      -2.7      4.574      5.770
REMARK  1 active torsions:
REMARK  status: ('A' for Active; 'I' for Inactive)
REMARK    1  A    between atoms: C_4  and  C_1 
ROOT
ATOM      1  C   UNL d   1      58.929  -2.258  29.087  0.00  0.00     0.164 A 
ATOM      2  O   UNL d   1      58.575  -1.867  29.722  0.00  0.00    -0.301 OA
ATOM      3  C   UNL d   1      59.117  -1.699  28.513  0.00  0.00     0.033 A 
ATOM      4  C   UNL d   1      58.546  -1.062  29.539  0.00  0.00     0.100 A 
ATOM      5  C   UNL d   1      58.882  -0.958  28.788  0.00  0.00     0.025 A 
ATOM      6  C   UNL d   1      58.258  -0.412  29.952  0.00  0.00     0.025 A 
ATOM      7  C   UNL d   1      58.929  -0.203  28.456  0.00  0.00     0.002 A 
ATOM      8  C   UNL d   1      58.638   0.455  28.876  0.00  0.00     0.000 A 
ATOM      9  C   UNL d   1      58.303   0.351  29.622  0.00  0.00     0.002 A 
ENDROOT
BRANCH   1  10
ATOM     10  C   UNL d   1      59.065  -3.066  29.045  0.00  0.00     0.235 C 
ATOM     11  O   UNL d   1      59.835  -3.356  29.175  0.00  0.00    -0.642 OA
ATOM     12  O   UNL d   1      58.449  -3.589  28.877  0.00  0.00    -0.642 OA
ENDBRANCH   1  10
TORSDOF 1
ENDMDL
