MODEL 1
REMARK VINA RESULT:       2.2      0.000      0.000
REMARK  2 active torsions:
REMARK  status: ('A' for Active; 'I' for Inactive)
REMARK    1  A    between atoms: C_6  and  C_1 
REMARK    2  A    between atoms: C_8  and  C_5 
ROOT
ATOM      1  C   UNL d   1     -55.259-102.513 -36.885  0.00  0.00     0.169 A 
ATOM      2  C   UNL d   1     -55.570-102.880 -37.562  0.00  0.00     0.048 A 
ATOM      3  N   UNL d   1     -54.711-101.944 -37.955  0.00  0.00    -0.148 NA
ATOM      4  N   UNL d   1     -54.725-101.930 -37.130  0.00  0.00    -0.142 NA
ATOM      5  C   UNL d   1     -55.235-102.532 -38.212  0.00  0.00     0.105 A 
ENDROOT
BRANCH   1   6
ATOM      6  C   UNL d   1     -55.448-102.694 -36.103  0.00  0.00     0.231 C 
ATOM      7  O   UNL d   1     -56.224-102.878 -35.894  0.00  0.00    -0.643 OA
ATOM      8  O   UNL d   1     -54.854-102.690 -35.526  0.00  0.00    -0.643 OA
ENDBRANCH   1   6
BRANCH   5   9
ATOM      9  C   UNL d   1     -55.391-102.733 -38.999  0.00  0.00     0.019 C 
ATOM     10  C   UNL d   1     -56.159-102.870 -39.244  0.00  0.00     0.002 C 
ATOM     11  C   UNL d   1     -54.771-102.794 -39.535  0.00  0.00     0.002 C 
ENDBRANCH   5   9
TORSDOF 2
ENDMDL
