MODEL 1
REMARK VINA RESULT:      12.9      0.000      0.000
REMARK  2 active torsions:
REMARK  status: ('A' for Active; 'I' for Inactive)
REMARK    1  A    between atoms: CA_3  and  C_1 
REMARK    2  A    between atoms: C_2  and  CA_3 
ROOT
ATOM      1  C   UNL d   1      58.420  49.697  50.518  0.00  0.00     0.026 A 
ATOM      2  C   UNL d   1      57.661  49.690  50.856  0.00  0.00     0.013 A 
ATOM      3  C   UNL d   1      56.995  49.691  50.372  0.00  0.00     0.058 A 
ATOM      4 CL   UNL d   1      56.244  49.684  50.711  0.00  0.00    -0.082 Cl
ATOM      5  C   UNL d   1      58.504  49.704  49.697  0.00  0.00     0.002 A 
ATOM      6  C   UNL d   1      57.829  49.704  49.214  0.00  0.00     0.001 A 
ATOM      7  C   UNL d   1      57.079  49.698  49.552  0.00  0.00     0.011 A 
ENDROOT
BRANCH   1   8
ATOM      8  CA  UNL d   1      59.087  49.697  51.005  0.00  0.00     0.167 C 
ATOM      9  N   UNL d   1      59.003  49.706  51.823  0.00  0.00    -0.142 N 
BRANCH   8  10
ATOM     10  C   UNL d   1      59.840  49.687  50.668  0.00  0.00     0.231 C 
ATOM     11  O   UNL d   1      59.934  49.671  49.850  0.00  0.00    -0.643 OA
ATOM     12  OXT UNL d   1      60.511  49.694  51.153  0.00  0.00    -0.643 OA
ENDBRANCH   8  10
ENDBRANCH   1   8
TORSDOF 2
ENDMDL
