MODEL 1
REMARK VINA RESULT:      17.7      0.000      0.000
REMARK  1 active torsions:
REMARK  status: ('A' for Active; 'I' for Inactive)
REMARK    1  A    between atoms: C_8  and  C_3 
ROOT
ATOM      1  C   UNL d   1     -50.839  24.993  33.322  0.00  0.00     0.199 A 
ATOM      2  C   UNL d   1     -52.004  25.662  33.342  0.00  0.00     0.199 A 
ATOM      3  C   UNL d   1     -51.176  25.741  33.335  0.00  0.00     0.078 A 
ATOM      4  C   UNL d   1     -51.436  24.427  33.321  0.00  0.00     0.042 A 
ATOM      5  C   UNL d   1     -52.158  24.841  33.333  0.00  0.00     0.042 A 
ATOM      6  O   UNL d   1     -52.571  26.298  33.356  0.00  0.00    -0.286 OA
ATOM      7  O   UNL d   1     -50.004  24.824  33.312  0.00  0.00    -0.286 OA
ATOM      8  C   UNL d   1     -52.876  24.436  33.334  0.00  0.00     0.003 A 
ATOM      9  C   UNL d   1     -51.437  23.610  33.310  0.00  0.00     0.003 A 
ATOM     10  C   UNL d   1     -52.868  23.604  33.323  0.00  0.00     0.000 A 
ATOM     11  C   UNL d   1     -52.146  23.190  33.311  0.00  0.00     0.000 A 
ENDROOT
BRANCH   3  12
ATOM     12  C   UNL d   1     -50.744  26.443  33.341  0.00  0.00     0.009 A 
ATOM     13  C   UNL d   1     -51.141  27.165  33.307  0.00  0.00     0.021 A 
ATOM     14  C   UNL d   1     -50.712  27.861  33.312  0.00  0.00     0.099 A 
ATOM     15  N   UNL d   1     -49.897  27.877  33.349  0.00  0.00    -0.242 NA
ATOM     16  C   UNL d   1     -49.507  27.130  33.383  0.00  0.00     0.099 A 
ATOM     17  C   UNL d   1     -49.939  26.427  33.378  0.00  0.00     0.021 A 
ENDBRANCH   3  12
TORSDOF 1
ENDMDL
