MODEL 1
REMARK VINA RESULT:      20.3      0.000      0.000
REMARK  3 active torsions:
REMARK  status: ('A' for Active; 'I' for Inactive)
REMARK    1  A    between atoms: S_9  and  C_6 
REMARK    2  A    between atoms: C_13  and  S_9 
REMARK    3  A    between atoms: C_11  and  C_13 
ROOT
ATOM      1  C   UNL d   1     -51.125  25.980  33.316  0.00  0.00     0.114 A 
ATOM      2  C   UNL d   1     -51.288  25.182  33.312  0.00  0.00     0.048 A 
ATOM      3  S   UNL d   1     -50.316  26.089  33.317  0.00  0.00    -0.068 SA
ATOM      4  C   UNL d   1     -50.564  24.780  33.310  0.00  0.00     0.010 A 
ATOM      5  C   UNL d   1     -49.962  25.312  33.313  0.00  0.00     0.031 A 
ATOM      6  C   UNL d   1     -52.077  24.922  33.310  0.00  0.00     0.111 A 
ATOM      7  N   UNL d   1     -51.746  26.527  33.319  0.00  0.00    -0.217 NA
ATOM      8  N   UNL d   1     -52.698  25.458  33.313  0.00  0.00    -0.218 NA
ATOM      9  C   UNL d   1     -52.530  26.264  33.317  0.00  0.00     0.200 A 
ATOM     10  C   UNL d   1     -50.403  23.970  33.306  0.00  0.00     0.001 A 
ATOM     11  C   UNL d   1     -49.172  25.071  33.313  0.00  0.00     0.006 A 
ATOM     12  C   UNL d   1     -49.616  23.725  33.306  0.00  0.00     0.000 A 
ATOM     13  C   UNL d   1     -49.015  24.252  33.308  0.00  0.00     0.001 A 
ENDROOT
BRANCH   6  14
ATOM     14  S   UNL d   1     -52.256  24.097  33.306  0.00  0.00    -0.083 SA
BRANCH  14  15
ATOM     15  C   UNL d   1     -52.467  23.737  33.994  0.00  0.00     0.161 C 
BRANCH  15  16
ATOM     16  C   UNL d   1     -53.238  23.475  34.081  0.00  0.00     0.197 C 
ATOM     17  O   UNL d   1     -53.510  23.285  34.827  0.00  0.00    -0.647 OA
ATOM     18  O   UNL d   1     -53.726  23.403  33.450  0.00  0.00    -0.647 OA
ENDBRANCH  15  16
ENDBRANCH  14  15
ENDBRANCH   6  14
TORSDOF 3
ENDMDL
MODEL 2
REMARK VINA RESULT:      21.2      2.014      2.776
REMARK  3 active torsions:
REMARK  status: ('A' for Active; 'I' for Inactive)
REMARK    1  A    between atoms: S_9  and  C_6 
REMARK    2  A    between atoms: C_13  and  S_9 
REMARK    3  A    between atoms: C_11  and  C_13 
ROOT
ATOM      1  C   UNL d   1     -52.494  24.520  33.389  0.00  0.00     0.114 A 
ATOM      2  C   UNL d   1     -51.856  25.026  33.361  0.00  0.00     0.048 A 
ATOM      3  S   UNL d   1     -52.225  23.749  33.411  0.00  0.00    -0.068 SA
ATOM      4  C   UNL d   1     -51.171  24.561  33.366  0.00  0.00     0.010 A 
ATOM      5  C   UNL d   1     -51.373  23.784  33.396  0.00  0.00     0.031 A 
ATOM      6  C   UNL d   1     -51.981  25.847  33.335  0.00  0.00     0.111 A 
ATOM      7  N   UNL d   1     -53.262  24.826  33.391  0.00  0.00    -0.217 NA
ATOM      8  N   UNL d   1     -52.740  26.158  33.336  0.00  0.00    -0.218 NA
ATOM      9  C   UNL d   1     -53.383  25.644  33.365  0.00  0.00     0.200 A 
ATOM     10  C   UNL d   1     -50.375  24.783  33.346  0.00  0.00     0.001 A 
ATOM     11  C   UNL d   1     -50.800  23.189  33.407  0.00  0.00     0.006 A 
ATOM     12  C   UNL d   1     -49.801  24.192  33.357  0.00  0.00     0.000 A 
ATOM     13  C   UNL d   1     -49.999  23.419  33.386  0.00  0.00     0.001 A 
ENDROOT
BRANCH   6  14
ATOM     14  S   UNL d   1     -51.326  26.378  33.306  0.00  0.00    -0.083 SA
BRANCH  14  15
ATOM     15  C   UNL d   1     -51.459  27.169  33.369  0.00  0.00     0.161 C 
BRANCH  15  16
ATOM     16  C   UNL d   1     -50.847  27.652  33.622  0.00  0.00     0.197 C 
ATOM     17  O   UNL d   1     -50.213  27.316  34.011  0.00  0.00    -0.647 OA
ATOM     18  O   UNL d   1     -50.860  28.442  33.493  0.00  0.00    -0.647 OA
ENDBRANCH  15  16
ENDBRANCH  14  15
ENDBRANCH   6  14
TORSDOF 3
ENDMDL
