MODEL 1
REMARK VINA RESULT:       6.9      0.000      0.000
REMARK  9 active torsions:
REMARK  status: ('A' for Active; 'I' for Inactive)
REMARK    1  A    between atoms: N_3  and  C_1 
REMARK       I    between atoms: C_5  and  N_3 
REMARK    2  A    between atoms: C_9  and  N_3 
REMARK    3  A    between atoms: C_8  and  C_5 
REMARK    4  A    between atoms: C_16  and  C_9 
REMARK    5  A    between atoms: O_18  and  C_12 
REMARK    6  A    between atoms: N_17  and  C_16 
REMARK    7  A    between atoms: C_22  and  N_17 
REMARK    8  A    between atoms: C_23  and  N_17 
REMARK    9  A    between atoms: C_24  and  O_18 
ROOT
ATOM      1  N   UNL d   1     -41.722-122.470 -52.535  0.00  0.00    -0.250 N 
ATOM      2  C   UNL d   1     -41.921-122.981 -53.147  0.00  0.00     0.289 C 
ATOM      3  O   UNL d   1     -42.154-123.742 -52.989  0.00  0.00    -0.264 OA
ENDROOT
BRANCH   1   4
ATOM      4  C   UNL d   1     -41.760-122.742 -51.753  0.00  0.00     0.182 A 
ATOM      5  N   UNL d   1     -42.400-122.606 -51.219  0.00  0.00    -0.220 NA
ATOM      6  C   UNL d   1     -42.206-122.984 -50.479  0.00  0.00     0.112 A 
ATOM      7  C   UNL d   1     -42.616-123.039 -49.756  0.00  0.00     0.118 A 
ATOM      8  C   UNL d   1     -41.454-123.345 -50.567  0.00  0.00     0.052 A 
ATOM      9  C   UNL d   1     -42.283-123.454 -49.113  0.00  0.00     0.026 A 
ATOM     10  C   UNL d   1     -41.529-123.817 -49.196  0.00  0.00     0.003 A 
ATOM     11  C   UNL d   1     -41.123-123.755 -49.934  0.00  0.00     0.008 A 
ATOM     12  S   UNL d   1     -41.169-123.201 -51.353  0.00  0.00    -0.048 SA
BRANCH   7  13
ATOM     13  O   UNL d   1     -43.373-122.675 -49.672  0.00  0.00    -0.304 OA
BRANCH  13  14
ATOM     14  C   UNL d   1     -43.961-123.033 -49.186  0.00  0.00     0.123 C 
ATOM     15  C   UNL d   1     -44.202-123.558 -49.267  0.00  0.00     0.029 C 
ENDBRANCH  13  14
ENDBRANCH   7  13
ENDBRANCH   1   4
BRANCH   1  16
ATOM     16  C   UNL d   1     -41.487-121.701 -52.695  0.00  0.00     0.104 C 
BRANCH  16  17
ATOM     17  C   UNL d   1     -41.447-121.149 -52.082  0.00  0.00     0.100 C 
BRANCH  17  18
ATOM     18  N   UNL d   1     -41.386-120.351 -52.257  0.00  0.00    -0.301 N 
BRANCH  18  19
ATOM     19  C   UNL d   1     -41.589-120.079 -53.009  0.00  0.00     0.080 C 
ATOM     20  C   UNL d   1     -41.751-119.284 -53.124  0.00  0.00     0.021 C 
ENDBRANCH  18  19
BRANCH  18  21
ATOM     21  C   UNL d   1     -41.125-119.826 -51.686  0.00  0.00     0.080 C 
ATOM     22  C   UNL d   1     -41.127-119.022 -51.842  0.00  0.00     0.021 C 
ENDBRANCH  18  21
ENDBRANCH  17  18
ENDBRANCH  16  17
ENDBRANCH   1  16
BRANCH   2  23
ATOM     23  C   UNL d   1     -41.882-122.708 -53.921  0.00  0.00     0.156 A 
ATOM     24  O   UNL d   1     -41.205-122.568 -54.355  0.00  0.00    -0.300 OA
ATOM     25  C   UNL d   1     -41.434-122.298 -55.104  0.00  0.00     0.123 A 
ATOM     26  C   UNL d   1     -42.241-122.275 -55.122  0.00  0.00     0.029 A 
ATOM     27  C   UNL d   1     -42.541-122.524 -54.401  0.00  0.00     0.032 A 
ENDBRANCH   2  23
TORSDOF 9
ENDMDL
MODEL 2
REMARK VINA RESULT:       9.5      1.551      4.528
REMARK  9 active torsions:
REMARK  status: ('A' for Active; 'I' for Inactive)
REMARK    1  A    between atoms: N_3  and  C_1 
REMARK       I    between atoms: C_5  and  N_3 
REMARK    2  A    between atoms: C_9  and  N_3 
REMARK    3  A    between atoms: C_8  and  C_5 
REMARK    4  A    between atoms: C_16  and  C_9 
REMARK    5  A    between atoms: O_18  and  C_12 
REMARK    6  A    between atoms: N_17  and  C_16 
REMARK    7  A    between atoms: C_22  and  N_17 
REMARK    8  A    between atoms: C_23  and  N_17 
REMARK    9  A    between atoms: C_24  and  O_18 
ROOT
ATOM      1  N   UNL d   1     -42.385-122.736 -50.261  0.00  0.00    -0.250 N 
ATOM      2  C   UNL d   1     -41.864-122.909 -49.649  0.00  0.00     0.289 C 
ATOM      3  O   UNL d   1     -41.123-123.197 -49.808  0.00  0.00    -0.264 OA
ENDROOT
BRANCH   1   4
ATOM      4  C   UNL d   1     -42.143-122.858 -51.044  0.00  0.00     0.182 A 
ATOM      5  N   UNL d   1     -42.357-122.375 -51.704  0.00  0.00    -0.220 NA
ATOM      6  C   UNL d   1     -41.985-122.703 -52.398  0.00  0.00     0.112 A 
ATOM      7  C   UNL d   1     -41.993-122.471 -53.197  0.00  0.00     0.118 A 
ATOM      8  C   UNL d   1     -41.550-123.380 -52.158  0.00  0.00     0.052 A 
ATOM      9  C   UNL d   1     -41.568-122.908 -53.767  0.00  0.00     0.026 A 
ATOM     10  C   UNL d   1     -41.130-123.586 -53.533  0.00  0.00     0.003 A 
ATOM     11  C   UNL d   1     -41.130-123.813 -52.719  0.00  0.00     0.008 A 
ATOM     12  S   UNL d   1     -41.641-123.484 -51.321  0.00  0.00    -0.048 SA
BRANCH   7  13
ATOM     13  O   UNL d   1     -42.432-121.790 -53.434  0.00  0.00    -0.304 OA
BRANCH  13  14
ATOM     14  C   UNL d   1     -42.279-121.429 -54.180  0.00  0.00     0.123 C 
ATOM     15  C   UNL d   1     -42.676-121.287 -54.582  0.00  0.00     0.029 C 
ENDBRANCH  13  14
ENDBRANCH   7  13
ENDBRANCH   1   4
BRANCH   1  16
ATOM     16  C   UNL d   1     -43.135-122.445 -50.100  0.00  0.00     0.104 C 
BRANCH  16  17
ATOM     17  C   UNL d   1     -43.791-122.939 -50.177  0.00  0.00     0.100 C 
BRANCH  17  18
ATOM     18  N   UNL d   1     -44.545-122.622 -50.139  0.00  0.00    -0.301 N 
BRANCH  18  19
ATOM     19  C   UNL d   1     -45.202-123.121 -50.177  0.00  0.00     0.080 C 
ATOM     20  C   UNL d   1     -45.212-123.814 -49.738  0.00  0.00     0.021 C 
ENDBRANCH  18  19
BRANCH  18  21
ATOM     21  C   UNL d   1     -44.647-121.814 -50.065  0.00  0.00     0.080 C 
ATOM     22  C   UNL d   1     -45.302-121.454 -50.399  0.00  0.00     0.021 C 
ENDBRANCH  18  21
ENDBRANCH  17  18
ENDBRANCH  16  17
ENDBRANCH   1  16
BRANCH   2  23
ATOM     23  C   UNL d   1     -42.108-122.787 -48.874  0.00  0.00     0.156 A 
ATOM     24  O   UNL d   1     -42.543-122.155 -48.593  0.00  0.00    -0.300 OA
ATOM     25  C   UNL d   1     -42.658-122.266 -47.780  0.00  0.00     0.123 A 
ATOM     26  C   UNL d   1     -42.295-122.957 -47.573  0.00  0.00     0.029 A 
ATOM     27  C   UNL d   1     -41.948-123.298 -48.232  0.00  0.00     0.032 A 
ENDBRANCH   2  23
TORSDOF 9
ENDMDL
