MODEL 1
REMARK VINA RESULT:      36.6      0.000      0.000
REMARK  5 active torsions:
REMARK  status: ('A' for Active; 'I' for Inactive)
REMARK    1  A    between atoms: N_3  and  C_1 
REMARK    2  A    between atoms: C_12  and  N_2 
REMARK       I    between atoms: C_6  and  N_3 
REMARK    3  A    between atoms: C_8  and  C_6 
REMARK    4  A    between atoms: C_16  and  C_12 
REMARK    5  A    between atoms: O_22  and  C_16 
ROOT
ATOM      1  C   UNL d   1      14.080  13.729  -2.617  0.00  0.00     0.183 A 
ATOM      2  N   UNL d   1      13.888  12.936  -2.516  0.00  0.00    -0.280 N 
ATOM      3  S   UNL d   1      13.899  13.938  -3.394  0.00  0.00    -0.048 SA
ATOM      4  C   UNL d   1      13.593  13.269  -3.776  0.00  0.00     0.051 A 
ATOM      5  C   UNL d   1      13.586  12.647  -3.231  0.00  0.00     0.072 A 
ATOM      6  C   UNL d   1      13.321  13.147  -4.545  0.00  0.00     0.038 A 
ATOM      7  C   UNL d   1      13.307  11.904  -3.456  0.00  0.00     0.020 A 
ATOM      8  C   UNL d   1      13.042  12.404  -4.770  0.00  0.00     0.141 A 
ATOM      9  C   UNL d   1      13.035  11.782  -4.225  0.00  0.00     0.031 A 
ATOM     10  F   UNL d   1      12.774  12.287  -5.534  0.00  0.00    -0.204 F 
ENDROOT
BRANCH   1  11
ATOM     11  N   UNL d   1      14.398  14.223  -2.036  0.00  0.00    -0.183 NA
ATOM     12  C   UNL d   1      14.559  15.012  -2.217  0.00  0.00     0.287 C 
ATOM     13  O   UNL d   1      14.401  15.300  -2.974  0.00  0.00    -0.265 OA
BRANCH  12  14
ATOM     14  C   UNL d   1      14.872  15.505  -1.651  0.00  0.00     0.088 A 
ATOM     15  S   UNL d   1      14.936  16.331  -1.697  0.00  0.00    -0.071 SA
ATOM     16  C   UNL d   1      15.282  16.599  -1.011  0.00  0.00     0.087 A 
ATOM     17 CL   UNL d   1      15.455  17.374  -0.810  0.00  0.00    -0.075 Cl
ATOM     18  C   UNL d   1      15.432  15.950  -0.542  0.00  0.00     0.019 A 
ATOM     19  C   UNL d   1      15.180  15.281  -0.937  0.00  0.00     0.013 A 
ENDBRANCH  12  14
ENDBRANCH   1  11
BRANCH   2  20
ATOM     20  C   UNL d   1      13.836  12.253  -2.061  0.00  0.00     0.151 C 
BRANCH  20  21
ATOM     21  C   UNL d   1      14.336  12.152  -1.424  0.00  0.00     0.314 C 
ATOM     22  O   UNL d   1      15.143  12.097  -1.550  0.00  0.00    -0.257 OA
BRANCH  21  23
ATOM     23  O   UNL d   1      14.037  12.107  -0.670  0.00  0.00    -0.295 OA
ATOM     24  C   UNL d   1      14.483  11.781  -0.072  0.00  0.00     0.185 C 
ENDBRANCH  21  23
ENDBRANCH  20  21
ENDBRANCH   2  20
TORSDOF 5
ENDMDL
