MODEL 1
REMARK VINA RESULT:      20.4      0.000      0.000
REMARK  4 active torsions:
REMARK  status: ('A' for Active; 'I' for Inactive)
REMARK    1  A    between atoms: N_2  and  C_1 
REMARK       I    between atoms: C_3  and  N_2 
REMARK    2  A    between atoms: C_6  and  C_3 
REMARK    3  A    between atoms: C_14  and  C_7 
REMARK    4  A    between atoms: C_15  and  C_14 
ROOT
ATOM      1  C   UNL d   1      14.060  12.218  -1.645  0.00  0.00     0.197 A 
ATOM      2  N   UNL d   1      13.874  11.780  -1.037  0.00  0.00    -0.219 NA
ATOM      3  S   UNL d   1      14.529  12.837  -1.379  0.00  0.00    -0.047 SA
ATOM      4  C   UNL d   1      14.621  12.757  -0.576  0.00  0.00     0.051 A 
ATOM      5  C   UNL d   1      14.206  12.086  -0.358  0.00  0.00     0.108 A 
ENDROOT
BRANCH   1   6
ATOM      6  N   UNL d   1      13.790  12.033  -2.436  0.00  0.00    -0.182 NA
ATOM      7  C   UNL d   1      13.645  12.649  -2.961  0.00  0.00     0.287 C 
ATOM      8  O   UNL d   1      13.759  13.434  -2.724  0.00  0.00    -0.265 OA
BRANCH   7   9
ATOM      9  C   UNL d   1      13.391  12.473  -3.703  0.00  0.00     0.087 A 
ATOM     10  S   UNL d   1      13.548  12.879  -4.411  0.00  0.00    -0.082 SA
ATOM     11  C   UNL d   1      13.184  12.506  -4.997  0.00  0.00     0.036 A 
ATOM     12  C   UNL d   1      12.776  11.832  -4.659  0.00  0.00     0.008 A 
ATOM     13  C   UNL d   1      12.932  11.856  -3.867  0.00  0.00     0.012 A 
ENDBRANCH   7   9
ENDBRANCH   1   6
BRANCH   4  14
ATOM     14  C   UNL d   1      15.015  13.187  -0.015  0.00  0.00     0.008 C 
BRANCH  14  15
ATOM     15  C   UNL d   1      15.130  14.009  -0.118  0.00  0.00     0.001 A 
ATOM     16  C   UNL d   1      14.475  14.527  -0.094  0.00  0.00     0.002 A 
ATOM     17  C   UNL d   1      14.581  15.348  -0.196  0.00  0.00     0.030 A 
ATOM     18  C   UNL d   1      15.332  15.650  -0.319  0.00  0.00     0.140 A 
ATOM     19  C   UNL d   1      16.009  15.131  -0.345  0.00  0.00     0.030 A 
ATOM     20  F   UNL d   1      15.517  16.387  -0.421  0.00  0.00    -0.204 F 
ATOM     21  C   UNL d   1      15.889  14.316  -0.242  0.00  0.00     0.002 A 
ENDBRANCH  14  15
ENDBRANCH   4  14
TORSDOF 4
ENDMDL
