MODEL 1
REMARK VINA RESULT:      34.9      0.000      0.000
REMARK  5 active torsions:
REMARK  status: ('A' for Active; 'I' for Inactive)
REMARK    1  A    between atoms: C_9  and  S_1 
REMARK    2  A    between atoms: C_14  and  S_1 
REMARK    3  A    between atoms: C_7  and  C_10 
REMARK       I    between atoms: N_11  and  C_7 
REMARK    4  A    between atoms: C_10  and  C_9 
REMARK    5  A    between atoms: C_15  and  N_11 
ROOT
ATOM      1  C   UNL d   1      14.655  12.765  -1.098  0.00  0.00     0.280 C 
ATOM      2  N   UNL d   1      14.311  13.510  -0.983  0.00  0.00    -0.208 NA
ATOM      3  O   UNL d   1      15.485  12.687  -1.052  0.00  0.00    -0.265 OA
ENDROOT
BRANCH   1   4
ATOM      4  C   UNL d   1      14.195  12.113  -1.253  0.00  0.00     0.075 C 
BRANCH   4   5
ATOM      5  C   UNL d   1      14.234  11.782  -1.917  0.00  0.00     0.104 C 
BRANCH   5   6
ATOM      6  S   UNL d   1      13.895  12.020  -2.644  0.00  0.00     0.211 S 
ATOM      7  O   UNL d   1      14.645  12.015  -3.005  0.00  0.00    -0.217 OA
ATOM      8  O   UNL d   1      13.135  12.023  -2.276  0.00  0.00    -0.217 OA
BRANCH   6   9
ATOM      9  C   UNL d   1      13.553  12.255  -3.360  0.00  0.00     0.088 A 
ATOM     10  C   UNL d   1      13.117  12.954  -3.401  0.00  0.00     0.011 A 
ATOM     11  C   UNL d   1      12.773  13.191  -4.118  0.00  0.00     0.001 A 
ATOM     12  C   UNL d   1      12.869  12.724  -4.789  0.00  0.00     0.000 A 
ATOM     13  C   UNL d   1      13.304  12.022  -4.760  0.00  0.00     0.001 A 
ATOM     14  C   UNL d   1      13.647  11.787  -4.040  0.00  0.00     0.011 A 
ENDBRANCH   6   9
ENDBRANCH   5   6
ENDBRANCH   4   5
ENDBRANCH   1   4
BRANCH   2  15
ATOM     15  C   UNL d   1      14.772  14.171  -0.826  0.00  0.00     0.085 A 
ATOM     16  C   UNL d   1      14.509  14.914  -1.041  0.00  0.00     0.027 A 
ATOM     17  C   UNL d   1      14.975  15.566  -0.880  0.00  0.00     0.050 A 
ATOM     18  S   UNL d   1      14.868  16.374  -1.023  0.00  0.00    -0.066 SA
ATOM     19  C   UNL d   1      15.713  15.473  -0.500  0.00  0.00     0.088 A 
ATOM     20  C   UNL d   1      15.526  16.784  -0.740  0.00  0.00     0.111 A 
ATOM     21  C   UNL d   1      15.644  17.597  -0.771  0.00  0.00     0.028 C 
ATOM     22  N   UNL d   1      16.051  16.213  -0.413  0.00  0.00    -0.239 NA
ATOM     23  C   UNL d   1      15.969  14.730  -0.289  0.00  0.00     0.021 A 
ATOM     24  C   UNL d   1      15.503  14.079  -0.450  0.00  0.00     0.021 A 
ENDBRANCH   2  15
TORSDOF 5
ENDMDL
MODEL 2
REMARK VINA RESULT:      36.7      2.464      3.685
REMARK  5 active torsions:
REMARK  status: ('A' for Active; 'I' for Inactive)
REMARK    1  A    between atoms: C_9  and  S_1 
REMARK    2  A    between atoms: C_14  and  S_1 
REMARK    3  A    between atoms: C_7  and  C_10 
REMARK       I    between atoms: N_11  and  C_7 
REMARK    4  A    between atoms: C_10  and  C_9 
REMARK    5  A    between atoms: C_15  and  N_11 
ROOT
ATOM      1  C   UNL d   1      13.127  12.883  -4.024  0.00  0.00     0.280 C 
ATOM      2  N   UNL d   1      13.118  13.670  -3.765  0.00  0.00    -0.208 NA
ATOM      3  O   UNL d   1      13.447  12.703  -4.773  0.00  0.00    -0.265 OA
ENDROOT
BRANCH   1   4
ATOM      4  C   UNL d   1      12.827  12.287  -3.558  0.00  0.00     0.075 C 
BRANCH   4   5
ATOM      5  C   UNL d   1      13.289  11.807  -3.229  0.00  0.00     0.104 C 
BRANCH   5   6
ATOM      6  S   UNL d   1      13.584  11.814  -2.445  0.00  0.00     0.211 S 
ATOM      7  O   UNL d   1      14.365  11.823  -2.731  0.00  0.00    -0.217 OA
ATOM      8  O   UNL d   1      12.790  11.806  -2.159  0.00  0.00    -0.217 OA
BRANCH   6   9
ATOM      9  C   UNL d   1      13.868  11.821  -1.669  0.00  0.00     0.088 A 
ATOM     10  C   UNL d   1      14.679  11.780  -1.524  0.00  0.00     0.011 A 
ATOM     11  C   UNL d   1      14.966  11.787  -0.745  0.00  0.00     0.001 A 
ATOM     12  C   UNL d   1      14.435  11.835  -0.117  0.00  0.00     0.000 A 
ATOM     13  C   UNL d   1      13.622  11.877  -0.250  0.00  0.00     0.001 A 
ATOM     14  C   UNL d   1      13.337  11.870  -1.032  0.00  0.00     0.011 A 
ENDBRANCH   6   9
ENDBRANCH   5   6
ENDBRANCH   4   5
ENDBRANCH   1   4
BRANCH   2  15
ATOM     15  C   UNL d   1      13.419  14.274  -4.232  0.00  0.00     0.085 A 
ATOM     16  C   UNL d   1      13.875  14.863  -3.895  0.00  0.00     0.027 A 
ATOM     17  C   UNL d   1      14.170  15.460  -4.369  0.00  0.00     0.050 A 
ATOM     18  S   UNL d   1      14.639  16.121  -4.201  0.00  0.00    -0.066 SA
ATOM     19  C   UNL d   1      14.007  15.469  -5.188  0.00  0.00     0.088 A 
ATOM     20  C   UNL d   1      14.770  16.539  -4.900  0.00  0.00     0.111 A 
ATOM     21  C   UNL d   1      15.208  17.230  -4.980  0.00  0.00     0.028 C 
ATOM     22  N   UNL d   1      14.371  16.125  -5.514  0.00  0.00    -0.239 NA
ATOM     23  C   UNL d   1      13.552  14.879  -5.516  0.00  0.00     0.021 A 
ATOM     24  C   UNL d   1      13.257  14.282  -5.043  0.00  0.00     0.021 A 
ENDBRANCH   2  15
TORSDOF 5
ENDMDL
