MODEL 1
REMARK VINA RESULT:      -4.7      0.000      0.000
REMARK  3 active torsions:
REMARK  status: ('A' for Active; 'I' for Inactive)
REMARK    1  A    between atoms: S_4  and  C_1 
REMARK    2  A    between atoms: C_8  and  S_4 
REMARK    3  A    between atoms: C_9  and  C_8 
ROOT
ATOM      1  C   UNL d   1     -41.404-122.397 -51.189  0.00  0.00     0.114 A 
ATOM      2  C   UNL d   1     -41.328-122.694 -51.954  0.00  0.00     0.042 A 
ATOM      3  N   UNL d   1     -41.349-121.587 -51.060  0.00  0.00    -0.217 NA
ATOM      4  N   UNL d   1     -41.144-121.372 -52.459  0.00  0.00    -0.224 NA
ATOM      5  C   UNL d   1     -41.219-121.072 -51.697  0.00  0.00     0.200 A 
ATOM      6  C   UNL d   1     -41.198-122.183 -52.588  0.00  0.00     0.085 A 
ATOM      7  C   UNL d   1     -41.382-123.505 -52.083  0.00  0.00     0.004 A 
ATOM      8  C   UNL d   1     -41.123-122.486 -53.354  0.00  0.00     0.019 A 
ATOM      9  C   UNL d   1     -41.308-123.817 -52.851  0.00  0.00     0.000 A 
ATOM     10  C   UNL d   1     -41.178-123.297 -53.483  0.00  0.00     0.002 A 
ENDROOT
BRANCH   1  11
ATOM     11  S   UNL d   1     -41.534-122.914 -50.548  0.00  0.00    -0.067 SA
BRANCH  11  12
ATOM     12  C   UNL d   1     -42.042-122.699 -49.943  0.00  0.00     0.037 C 
BRANCH  12  13
ATOM     13  C   UNL d   1     -41.985-123.069 -49.207  0.00  0.00     0.006 A 
ATOM     14  C   UNL d   1     -42.682-123.257 -48.783  0.00  0.00     0.001 A 
ATOM     15  C   UNL d   1     -43.419-123.072 -49.103  0.00  0.00     0.000 C 
ATOM     16  C   UNL d   1     -42.616-123.630 -48.044  0.00  0.00     0.000 A 
ATOM     17  C   UNL d   1     -41.883-123.809 -47.735  0.00  0.00     0.000 A 
ATOM     18  C   UNL d   1     -41.201-123.622 -48.156  0.00  0.00     0.000 A 
ATOM     19  C   UNL d   1     -41.244-123.251 -48.894  0.00  0.00     0.001 A 
ENDBRANCH  12  13
ENDBRANCH  11  12
ENDBRANCH   1  11
TORSDOF 3
ENDMDL
MODEL 2
REMARK VINA RESULT:      -3.8      1.346      4.293
REMARK  3 active torsions:
REMARK  status: ('A' for Active; 'I' for Inactive)
REMARK    1  A    between atoms: S_4  and  C_1 
REMARK    2  A    between atoms: C_8  and  S_4 
REMARK    3  A    between atoms: C_9  and  C_8 
ROOT
ATOM      1  C   UNL d   1     -41.281-122.104 -51.996  0.00  0.00     0.114 A 
ATOM      2  C   UNL d   1     -41.332-122.544 -51.301  0.00  0.00     0.042 A 
ATOM      3  N   UNL d   1     -41.177-121.289 -51.954  0.00  0.00    -0.217 NA
ATOM      4  N   UNL d   1     -41.176-121.356 -50.525  0.00  0.00    -0.224 NA
ATOM      5  C   UNL d   1     -41.124-120.914 -51.217  0.00  0.00     0.200 A 
ATOM      6  C   UNL d   1     -41.280-122.171 -50.567  0.00  0.00     0.085 A 
ATOM      7  C   UNL d   1     -41.436-123.359 -51.343  0.00  0.00     0.004 A 
ATOM      8  C   UNL d   1     -41.332-122.618 -49.873  0.00  0.00     0.019 A 
ATOM      9  C   UNL d   1     -41.489-123.815 -50.649  0.00  0.00     0.000 A 
ATOM     10  C   UNL d   1     -41.436-123.433 -49.915  0.00  0.00     0.002 A 
ENDROOT
BRANCH   1  11
ATOM     11  S   UNL d   1     -41.334-122.480 -52.737  0.00  0.00    -0.067 SA
BRANCH  11  12
ATOM     12  C   UNL d   1     -41.822-122.176 -53.320  0.00  0.00     0.037 C 
BRANCH  12  13
ATOM     13  C   UNL d   1     -41.727-122.418 -54.104  0.00  0.00     0.006 A 
ATOM     14  C   UNL d   1     -42.160-122.035 -54.710  0.00  0.00     0.001 A 
ATOM     15  C   UNL d   1     -42.677-121.421 -54.520  0.00  0.00     0.000 C 
ATOM     16  C   UNL d   1     -42.060-122.284 -55.496  0.00  0.00     0.000 A 
ATOM     17  C   UNL d   1     -41.546-122.893 -55.675  0.00  0.00     0.000 A 
ATOM     18  C   UNL d   1     -41.124-123.265 -55.075  0.00  0.00     0.000 A 
ATOM     19  C   UNL d   1     -41.209-123.032 -54.285  0.00  0.00     0.001 A 
ENDBRANCH  12  13
ENDBRANCH  11  12
ENDBRANCH   1  11
TORSDOF 3
ENDMDL
