MODEL 1
REMARK VINA RESULT:      -9.0      0.000      0.000
REMARK  6 active torsions:
REMARK  status: ('A' for Active; 'I' for Inactive)
REMARK    1  A    between atoms: C_12  and  N_4 
REMARK    2  A    between atoms: C_10  and  N_6 
REMARK    3  A    between atoms: C_11  and  C_10 
REMARK    4  A    between atoms: O_15  and  C_11 
REMARK    5  A    between atoms: C_16  and  O_15 
REMARK    6  A    between atoms: C_17  and  C_16 
ROOT
ATOM      1  C   UNL d   1      52.473  32.710  53.274  0.00  0.00     0.172 A 
ATOM      2  C   UNL d   1      52.771  33.478  53.229  0.00  0.00     0.113 A 
ATOM      3  N   UNL d   1      51.663  32.579  53.258  0.00  0.00    -0.206 NA
ATOM      4  N   UNL d   1      53.122  32.195  53.330  0.00  0.00    -0.212 N 
ATOM      5  C   UNL d   1      52.259  34.115  53.169  0.00  0.00     0.271 A 
ATOM      6  N   UNL d   1      51.441  33.989  53.153  0.00  0.00    -0.250 N 
ATOM      7  N   UNL d   1      53.803  32.649  53.319  0.00  0.00    -0.162 NA
ATOM      8  C   UNL d   1      51.143  33.221  53.197  0.00  0.00     0.187 A 
ATOM      9  C   UNL d   1      53.599  33.424  53.259  0.00  0.00     0.129 A 
ATOM     10  O   UNL d   1      52.557  34.883  53.124  0.00  0.00    -0.266 OA
ENDROOT
BRANCH   6  11
ATOM     11  C   UNL d   1      50.914  34.633  53.092  0.00  0.00     0.153 C 
BRANCH  11  12
ATOM     12  C   UNL d   1      50.211  34.555  52.655  0.00  0.00     0.318 C 
ATOM     13  O   UNL d   1      50.221  34.171  51.934  0.00  0.00    -0.257 OA
BRANCH  12  14
ATOM     14  O   UNL d   1      49.512  34.870  52.961  0.00  0.00    -0.270 OA
BRANCH  14  15
ATOM     15  C   UNL d   1      49.013  35.306  52.461  0.00  0.00     0.126 C 
BRANCH  15  16
ATOM     16  C   UNL d   1      48.353  35.667  52.781  0.00  0.00     0.025 A 
ATOM     17  C   UNL d   1      47.693  35.800  52.293  0.00  0.00     0.002 A 
ATOM     18  C   UNL d   1      47.018  36.167  52.612  0.00  0.00     0.000 A 
ATOM     19  C   UNL d   1      47.011  36.391  53.398  0.00  0.00     0.000 A 
ATOM     20  C   UNL d   1      47.671  36.258  53.887  0.00  0.00     0.000 A 
ATOM     21  C   UNL d   1      48.338  35.894  53.566  0.00  0.00     0.002 A 
ENDBRANCH  15  16
ENDBRANCH  14  15
ENDBRANCH  12  14
ENDBRANCH  11  12
ENDBRANCH   6  11
BRANCH   4  22
ATOM     22  C   UNL d   1      53.125  31.383  53.387  0.00  0.00     0.085 A 
ATOM     23  C   UNL d   1      52.928  30.917  52.725  0.00  0.00     0.019 A 
ATOM     24  C   UNL d   1      52.933  30.101  52.789  0.00  0.00     0.002 A 
ATOM     25  C   UNL d   1      53.136  29.733  53.518  0.00  0.00     0.000 A 
ATOM     26  C   UNL d   1      53.326  30.198  54.156  0.00  0.00     0.002 A 
ATOM     27  C   UNL d   1      53.324  31.019  54.102  0.00  0.00     0.019 A 
ENDBRANCH   4  22
TORSDOF 6
ENDMDL
MODEL 2
REMARK VINA RESULT:      -9.0      1.273      2.119
REMARK  6 active torsions:
REMARK  status: ('A' for Active; 'I' for Inactive)
REMARK    1  A    between atoms: C_12  and  N_4 
REMARK    2  A    between atoms: C_10  and  N_6 
REMARK    3  A    between atoms: C_11  and  C_10 
REMARK    4  A    between atoms: O_15  and  C_11 
REMARK    5  A    between atoms: C_16  and  O_15 
REMARK    6  A    between atoms: C_17  and  C_16 
ROOT
ATOM      1  C   UNL d   1      52.914  33.051  53.815  0.00  0.00     0.172 A 
ATOM      2  C   UNL d   1      52.496  32.453  53.431  0.00  0.00     0.113 A 
ATOM      3  N   UNL d   1      52.582  33.796  53.904  0.00  0.00    -0.206 NA
ATOM      4  N   UNL d   1      53.645  32.734  54.047  0.00  0.00    -0.212 N 
ATOM      5  C   UNL d   1      51.746  32.599  53.136  0.00  0.00     0.271 A 
ATOM      6  N   UNL d   1      51.405  33.349  53.222  0.00  0.00    -0.250 N 
ATOM      7  N   UNL d   1      53.666  31.953  53.804  0.00  0.00    -0.162 NA
ATOM      8  C   UNL d   1      51.824  33.947  53.606  0.00  0.00     0.187 A 
ATOM      9  C   UNL d   1      52.977  31.776  53.432  0.00  0.00     0.129 A 
ATOM     10  O   UNL d   1      51.327  32.000  52.752  0.00  0.00    -0.266 OA
ENDROOT
BRANCH   6  11
ATOM     11  C   UNL d   1      50.642  33.506  52.924  0.00  0.00     0.153 C 
BRANCH  11  12
ATOM     12  C   UNL d   1      50.479  34.234  52.559  0.00  0.00     0.318 C 
ATOM     13  O   UNL d   1      50.943  34.489  51.937  0.00  0.00    -0.257 OA
BRANCH  12  14
ATOM     14  O   UNL d   1      49.847  34.688  52.835  0.00  0.00    -0.270 OA
BRANCH  14  15
ATOM     15  C   UNL d   1      49.210  34.844  52.325  0.00  0.00     0.126 C 
BRANCH  15  16
ATOM     16  C   UNL d   1      48.630  35.367  52.569  0.00  0.00     0.025 A 
ATOM     17  C   UNL d   1      48.037  35.586  52.030  0.00  0.00     0.002 A 
ATOM     18  C   UNL d   1      47.444  36.117  52.271  0.00  0.00     0.000 A 
ATOM     19  C   UNL d   1      47.451  36.416  53.031  0.00  0.00     0.000 A 
ATOM     20  C   UNL d   1      48.045  36.196  53.571  0.00  0.00     0.000 A 
ATOM     21  C   UNL d   1      48.631  35.670  53.328  0.00  0.00     0.002 A 
ENDBRANCH  15  16
ENDBRANCH  14  15
ENDBRANCH  12  14
ENDBRANCH  11  12
ENDBRANCH   6  11
BRANCH   4  22
ATOM     22  C   UNL d   1      54.257  33.098  54.443  0.00  0.00     0.085 A 
ATOM     23  C   UNL d   1      54.240  33.154  55.275  0.00  0.00     0.019 A 
ATOM     24  C   UNL d   1      54.858  33.520  55.667  0.00  0.00     0.002 A 
ATOM     25  C   UNL d   1      55.507  33.839  55.235  0.00  0.00     0.000 A 
ATOM     26  C   UNL d   1      55.510  33.778  54.425  0.00  0.00     0.002 A 
ATOM     27  C   UNL d   1      54.894  33.411  54.022  0.00  0.00     0.019 A 
ENDBRANCH   4  22
TORSDOF 6
ENDMDL
MODEL 3
REMARK VINA RESULT:      -7.6      1.782      5.868
REMARK  6 active torsions:
REMARK  status: ('A' for Active; 'I' for Inactive)
REMARK    1  A    between atoms: C_12  and  N_4 
REMARK    2  A    between atoms: C_10  and  N_6 
REMARK    3  A    between atoms: C_11  and  C_10 
REMARK    4  A    between atoms: O_15  and  C_11 
REMARK    5  A    between atoms: C_16  and  O_15 
REMARK    6  A    between atoms: C_17  and  C_16 
ROOT
ATOM      1  C   UNL d   1      49.037  35.113  52.652  0.00  0.00     0.172 A 
ATOM      2  C   UNL d   1      49.293  34.832  51.920  0.00  0.00     0.113 A 
ATOM      3  N   UNL d   1      49.504  35.012  53.319  0.00  0.00    -0.206 NA
ATOM      4  N   UNL d   1      48.296  35.467  52.536  0.00  0.00    -0.212 N 
ATOM      5  C   UNL d   1      50.015  34.450  51.854  0.00  0.00     0.271 A 
ATOM      6  N   UNL d   1      50.490  34.345  52.524  0.00  0.00    -0.250 N 
ATOM      7  N   UNL d   1      48.108  35.400  51.743  0.00  0.00    -0.162 NA
ATOM      8  C   UNL d   1      50.235  34.626  53.256  0.00  0.00     0.187 A 
ATOM      9  C   UNL d   1      48.705  35.018  51.365  0.00  0.00     0.129 A 
ATOM     10  O   UNL d   1      50.271  34.169  51.122  0.00  0.00    -0.266 OA
ENDROOT
BRANCH   6  11
ATOM     11  C   UNL d   1      51.227  33.957  52.466  0.00  0.00     0.153 C 
BRANCH  11  12
ATOM     12  C   UNL d   1      51.485  33.459  53.079  0.00  0.00     0.318 C 
ATOM     13  O   UNL d   1      51.020  32.830  53.314  0.00  0.00    -0.257 OA
BRANCH  12  14
ATOM     14  O   UNL d   1      52.211  33.612  53.440  0.00  0.00    -0.270 OA
BRANCH  14  15
ATOM     15  C   UNL d   1      52.699  32.973  53.650  0.00  0.00     0.126 C 
BRANCH  15  16
ATOM     16  C   UNL d   1      53.418  33.128  54.008  0.00  0.00     0.025 A 
ATOM     17  C   UNL d   1      54.112  32.841  53.652  0.00  0.00     0.002 A 
ATOM     18  C   UNL d   1      54.847  32.995  54.010  0.00  0.00     0.000 A 
ATOM     19  C   UNL d   1      54.878  33.424  54.705  0.00  0.00     0.000 A 
ATOM     20  C   UNL d   1      54.183  33.711  55.062  0.00  0.00     0.000 A 
ATOM     21  C   UNL d   1      53.457  33.556  54.703  0.00  0.00     0.002 A 
ENDBRANCH  15  16
ENDBRANCH  14  15
ENDBRANCH  12  14
ENDBRANCH  11  12
ENDBRANCH   6  11
BRANCH   4  22
ATOM     22  C   UNL d   1      47.812  35.827  53.083  0.00  0.00     0.085 A 
ATOM     23  C   UNL d   1      48.134  36.352  53.645  0.00  0.00     0.019 A 
ATOM     24  C   UNL d   1      47.642  36.709  54.192  0.00  0.00     0.002 A 
ATOM     25  C   UNL d   1      46.815  36.550  54.189  0.00  0.00     0.000 A 
ATOM     26  C   UNL d   1      46.514  36.037  53.637  0.00  0.00     0.002 A 
ATOM     27  C   UNL d   1      47.000  35.672  53.083  0.00  0.00     0.019 A 
ENDBRANCH   4  22
TORSDOF 6
ENDMDL
MODEL 4
REMARK VINA RESULT:      -7.2      1.623      5.745
REMARK  6 active torsions:
REMARK  status: ('A' for Active; 'I' for Inactive)
REMARK    1  A    between atoms: C_12  and  N_4 
REMARK    2  A    between atoms: C_10  and  N_6 
REMARK    3  A    between atoms: C_11  and  C_10 
REMARK    4  A    between atoms: O_15  and  C_11 
REMARK    5  A    between atoms: C_16  and  O_15 
REMARK    6  A    between atoms: C_17  and  C_16 
ROOT
ATOM      1  C   UNL d   1      51.760  33.782  52.981  0.00  0.00     0.172 A 
ATOM      2  C   UNL d   1      52.510  33.973  53.268  0.00  0.00     0.113 A 
ATOM      3  N   UNL d   1      51.579  33.007  52.781  0.00  0.00    -0.206 NA
ATOM      4  N   UNL d   1      51.318  34.484  52.956  0.00  0.00    -0.212 N 
ATOM      5  C   UNL d   1      53.078  33.389  53.357  0.00  0.00     0.271 A 
ATOM      6  N   UNL d   1      52.900  32.605  53.157  0.00  0.00    -0.250 N 
ATOM      7  N   UNL d   1      51.797  35.090  53.226  0.00  0.00    -0.162 NA
ATOM      8  C   UNL d   1      52.151  32.414  52.869  0.00  0.00     0.187 A 
ATOM      9  C   UNL d   1      52.517  34.789  53.416  0.00  0.00     0.129 A 
ATOM     10  O   UNL d   1      53.827  33.579  53.645  0.00  0.00    -0.266 OA
ENDROOT
BRANCH   6  11
ATOM     11  C   UNL d   1      53.473  32.004  53.244  0.00  0.00     0.153 C 
BRANCH  11  12
ATOM     12  C   UNL d   1      53.267  31.210  53.114  0.00  0.00     0.318 C 
ATOM     13  O   UNL d   1      53.077  30.958  52.361  0.00  0.00    -0.257 OA
BRANCH  12  14
ATOM     14  O   UNL d   1      53.258  30.689  53.754  0.00  0.00    -0.270 OA
BRANCH  14  15
ATOM     15  C   UNL d   1      53.295  29.872  53.609  0.00  0.00     0.126 C 
BRANCH  15  16
ATOM     16  C   UNL d   1      53.345  29.361  54.246  0.00  0.00     0.025 A 
ATOM     17  C   UNL d   1      53.709  28.621  54.137  0.00  0.00     0.002 A 
ATOM     18  C   UNL d   1      53.763  28.096  54.780  0.00  0.00     0.000 A 
ATOM     19  C   UNL d   1      53.461  28.313  55.507  0.00  0.00     0.000 A 
ATOM     20  C   UNL d   1      53.096  29.053  55.616  0.00  0.00     0.000 A 
ATOM     21  C   UNL d   1      53.045  29.570  54.976  0.00  0.00     0.002 A 
ENDBRANCH  15  16
ENDBRANCH  14  15
ENDBRANCH  12  14
ENDBRANCH  11  12
ENDBRANCH   6  11
BRANCH   4  22
ATOM     22  C   UNL d   1      50.548  34.594  52.714  0.00  0.00     0.085 A 
ATOM     23  C   UNL d   1      49.969  34.835  53.263  0.00  0.00     0.019 A 
ATOM     24  C   UNL d   1      49.197  34.944  53.014  0.00  0.00     0.002 A 
ATOM     25  C   UNL d   1      48.988  34.812  52.209  0.00  0.00     0.000 A 
ATOM     26  C   UNL d   1      49.562  34.577  51.684  0.00  0.00     0.002 A 
ATOM     27  C   UNL d   1      50.340  34.465  51.925  0.00  0.00     0.019 A 
ENDBRANCH   4  22
TORSDOF 6
ENDMDL
MODEL 5
REMARK VINA RESULT:      -6.9      1.958      3.141
REMARK  6 active torsions:
REMARK  status: ('A' for Active; 'I' for Inactive)
REMARK    1  A    between atoms: C_12  and  N_4 
REMARK    2  A    between atoms: C_10  and  N_6 
REMARK    3  A    between atoms: C_11  and  C_10 
REMARK    4  A    between atoms: O_15  and  C_11 
REMARK    5  A    between atoms: C_16  and  O_15 
REMARK    6  A    between atoms: C_17  and  C_16 
ROOT
ATOM      1  C   UNL d   1      50.673  34.554  52.875  0.00  0.00     0.172 A 
ATOM      2  C   UNL d   1      50.249  34.461  52.174  0.00  0.00     0.113 A 
ATOM      3  N   UNL d   1      50.327  34.920  53.522  0.00  0.00    -0.206 NA
ATOM      4  N   UNL d   1      51.426  34.224  52.755  0.00  0.00    -0.212 N 
ATOM      5  C   UNL d   1      49.478  34.735  52.120  0.00  0.00     0.271 A 
ATOM      6  N   UNL d   1      49.124  35.105  52.770  0.00  0.00    -0.250 N 
ATOM      7  N   UNL d   1      51.453  33.936  51.990  0.00  0.00    -0.162 NA
ATOM      8  C   UNL d   1      49.548  35.198  53.471  0.00  0.00     0.187 A 
ATOM      9  C   UNL d   1      50.746  34.076  51.633  0.00  0.00     0.129 A 
ATOM     10  O   UNL d   1      49.053  34.642  51.419  0.00  0.00    -0.266 OA
ENDROOT
BRANCH   6  11
ATOM     11  C   UNL d   1      48.339  35.386  52.723  0.00  0.00     0.153 C 
BRANCH  11  12
ATOM     12  C   UNL d   1      48.071  35.963  53.258  0.00  0.00     0.318 C 
ATOM     13  O   UNL d   1      48.456  36.682  53.307  0.00  0.00    -0.257 OA
BRANCH  12  14
ATOM     14  O   UNL d   1      47.417  35.795  53.732  0.00  0.00    -0.270 OA
BRANCH  14  15
ATOM     15  C   UNL d   1      46.878  36.404  53.906  0.00  0.00     0.126 C 
BRANCH  15  16
ATOM     16  C   UNL d   1      46.226  36.232  54.369  0.00  0.00     0.025 A 
ATOM     17  C   UNL d   1      46.068  36.709  55.030  0.00  0.00     0.002 A 
ATOM     18  C   UNL d   1      45.407  36.541  55.506  0.00  0.00     0.000 A 
ATOM     19  C   UNL d   1      44.922  35.910  55.318  0.00  0.00     0.000 A 
ATOM     20  C   UNL d   1      45.080  35.431  54.656  0.00  0.00     0.000 A 
ATOM     21  C   UNL d   1      45.737  35.603  54.188  0.00  0.00     0.002 A 
ENDBRANCH  15  16
ENDBRANCH  14  15
ENDBRANCH  12  14
ENDBRANCH  11  12
ENDBRANCH   6  11
BRANCH   4  22
ATOM     22  C   UNL d   1      52.050  34.175  53.275  0.00  0.00     0.085 A 
ATOM     23  C   UNL d   1      52.207  33.460  53.673  0.00  0.00     0.019 A 
ATOM     24  C   UNL d   1      52.836  33.418  54.195  0.00  0.00     0.002 A 
ATOM     25  C   UNL d   1      53.323  34.092  54.330  0.00  0.00     0.000 A 
ATOM     26  C   UNL d   1      53.159  34.783  53.936  0.00  0.00     0.002 A 
ATOM     27  C   UNL d   1      52.529  34.835  53.410  0.00  0.00     0.019 A 
ENDBRANCH   4  22
TORSDOF 6
ENDMDL
