MODEL 1
REMARK VINA RESULT:      -3.3      0.000      0.000
REMARK  6 active torsions:
REMARK  status: ('A' for Active; 'I' for Inactive)
REMARK       I    between atoms: C_2  and  N_1 
REMARK    1  A    between atoms: O_20  and  C_2 
REMARK       I    between atoms: C_5  and  N_3 
REMARK    2  A    between atoms: C_15  and  C_5 
REMARK    3  A    between atoms: C_7  and  S_13 
REMARK    4  A    between atoms: C_18  and  C_8 
REMARK    5  A    between atoms: S_13  and  C_15 
REMARK    6  A    between atoms: C_26  and  O_20 
ROOT
ATOM      1  C   UNL d   1      32.850  18.344 -23.228  0.00  0.00     0.098 C 
ENDROOT
BRANCH   1   2
ATOM      2  S   UNL d   1      33.241  18.620 -22.561  0.00  0.00    -0.061 SA
BRANCH   2   3
ATOM      3  C   UNL d   1      33.184  19.413 -22.342  0.00  0.00     0.133 A 
ATOM      4  N   UNL d   1      33.165  20.002 -22.911  0.00  0.00    -0.141 NA
ATOM      5  N   UNL d   1      33.108  20.796 -22.692  0.00  0.00    -0.148 NA
ATOM      6  C   UNL d   1      33.071  21.004 -21.891  0.00  0.00     0.103 A 
ATOM      7  C   UNL d   1      33.091  20.411 -21.314  0.00  0.00     0.023 A 
ATOM      8  C   UNL d   1      33.147  19.621 -21.536  0.00  0.00     0.029 A 
BRANCH   6   9
ATOM      9  C   UNL d   1      33.015  21.797 -21.672  0.00  0.00     0.022 A 
ATOM     10  C   UNL d   1      33.075  22.000 -20.869  0.00  0.00     0.022 A 
ATOM     11  C   UNL d   1      33.017  22.797 -20.659  0.00  0.00     0.099 A 
ATOM     12  N   UNL d   1      32.904  23.372 -21.229  0.00  0.00    -0.242 NA
ATOM     13  C   UNL d   1      32.846  23.154 -22.031  0.00  0.00     0.099 A 
ATOM     14  C   UNL d   1      32.902  22.366 -22.243  0.00  0.00     0.022 A 
ENDBRANCH   6   9
ENDBRANCH   2   3
ENDBRANCH   1   2
BRANCH   1  15
ATOM     15  C   UNL d   1      32.644  17.545 -23.280  0.00  0.00     0.272 C 
ATOM     16  N   UNL d   1      31.942  17.326 -23.649  0.00  0.00    -0.269 N 
ATOM     17  C   UNL d   1      31.738  16.536 -23.700  0.00  0.00     0.102 A 
ATOM     18  C   UNL d   1      31.446  17.911 -23.966  0.00  0.00     0.102 A 
ATOM     19  C   UNL d   1      31.035  16.312 -24.069  0.00  0.00     0.104 A 
ATOM     20  N   UNL d   1      30.538  16.893 -24.387  0.00  0.00    -0.249 N 
ATOM     21  C   UNL d   1      29.842  16.664 -24.752  0.00  0.00     0.378 C 
ATOM     22  C   UNL d   1      30.751  17.685 -24.331  0.00  0.00     0.104 A 
ATOM     23  O   UNL d   1      29.345  17.244 -25.069  0.00  0.00    -0.237 OA
ATOM     24  O   UNL d   1      33.132  16.972 -22.968  0.00  0.00    -0.266 OA
BRANCH  21  25
ATOM     25  O   UNL d   1      29.637  15.869 -24.803  0.00  0.00    -0.257 OA
BRANCH  25  26
ATOM     26  C   UNL d   1      28.869  15.651 -24.976  0.00  0.00     0.128 C 
ATOM     27  C   UNL d   1      28.352  15.453 -24.378  0.00  0.00     0.029 C 
ENDBRANCH  25  26
ENDBRANCH  21  25
ENDBRANCH   1  15
TORSDOF 6
ENDMDL
MODEL 2
REMARK VINA RESULT:      -2.4      2.383      6.387
REMARK  6 active torsions:
REMARK  status: ('A' for Active; 'I' for Inactive)
REMARK       I    between atoms: C_2  and  N_1 
REMARK    1  A    between atoms: O_20  and  C_2 
REMARK       I    between atoms: C_5  and  N_3 
REMARK    2  A    between atoms: C_15  and  C_5 
REMARK    3  A    between atoms: C_7  and  S_13 
REMARK    4  A    between atoms: C_18  and  C_8 
REMARK    5  A    between atoms: S_13  and  C_15 
REMARK    6  A    between atoms: C_26  and  O_20 
ROOT
ATOM      1  C   UNL d   1      32.809  20.128 -22.217  0.00  0.00     0.098 C 
ENDROOT
BRANCH   1   2
ATOM      2  S   UNL d   1      33.237  19.655 -22.734  0.00  0.00    -0.061 SA
BRANCH   2   3
ATOM      3  C   UNL d   1      32.870  19.029 -23.126  0.00  0.00     0.133 A 
ATOM      4  N   UNL d   1      32.783  18.301 -22.760  0.00  0.00    -0.141 NA
ATOM      5  N   UNL d   1      32.417  17.675 -23.152  0.00  0.00    -0.148 NA
ATOM      6  C   UNL d   1      32.132  17.777 -23.924  0.00  0.00     0.103 A 
ATOM      7  C   UNL d   1      32.218  18.511 -24.296  0.00  0.00     0.023 A 
ATOM      8  C   UNL d   1      32.584  19.134 -23.903  0.00  0.00     0.029 A 
BRANCH   6   9
ATOM      9  C   UNL d   1      31.766  17.151 -24.316  0.00  0.00     0.022 A 
ATOM     10  C   UNL d   1      32.225  16.502 -24.559  0.00  0.00     0.022 A 
ATOM     11  C   UNL d   1      31.849  15.880 -24.950  0.00  0.00     0.099 A 
ATOM     12  N   UNL d   1      31.044  15.902 -25.096  0.00  0.00    -0.242 NA
ATOM     13  C   UNL d   1      30.597  16.558 -24.847  0.00  0.00     0.099 A 
ATOM     14  C   UNL d   1      30.965  17.178 -24.459  0.00  0.00     0.022 A 
ENDBRANCH   6   9
ENDBRANCH   2   3
ENDBRANCH   1   2
BRANCH   1  15
ATOM     15  C   UNL d   1      33.021  20.152 -21.417  0.00  0.00     0.272 C 
ATOM     16  N   UNL d   1      33.009  20.868 -21.012  0.00  0.00    -0.269 N 
ATOM     17  C   UNL d   1      33.218  20.892 -20.222  0.00  0.00     0.102 A 
ATOM     18  C   UNL d   1      32.785  21.560 -21.411  0.00  0.00     0.102 A 
ATOM     19  C   UNL d   1      33.207  21.608 -19.812  0.00  0.00     0.104 A 
ATOM     20  N   UNL d   1      32.984  22.300 -20.207  0.00  0.00    -0.249 N 
ATOM     21  C   UNL d   1      32.976  23.008 -19.793  0.00  0.00     0.378 C 
ATOM     22  C   UNL d   1      32.775  22.268 -21.001  0.00  0.00     0.104 A 
ATOM     23  O   UNL d   1      32.752  23.700 -20.187  0.00  0.00    -0.237 OA
ATOM     24  O   UNL d   1      33.241  19.471 -21.028  0.00  0.00    -0.266 OA
BRANCH  21  25
ATOM     25  O   UNL d   1      33.186  23.032 -18.999  0.00  0.00    -0.257 OA
BRANCH  25  26
ATOM     26  C   UNL d   1      32.796  23.531 -18.483  0.00  0.00     0.128 C 
ATOM     27  C   UNL d   1      33.078  23.645 -17.727  0.00  0.00     0.029 C 
ENDBRANCH  25  26
ENDBRANCH  21  25
ENDBRANCH   1  15
TORSDOF 6
ENDMDL
MODEL 3
REMARK VINA RESULT:      -1.7      1.907      6.158
REMARK  6 active torsions:
REMARK  status: ('A' for Active; 'I' for Inactive)
REMARK       I    between atoms: C_2  and  N_1 
REMARK    1  A    between atoms: O_20  and  C_2 
REMARK       I    between atoms: C_5  and  N_3 
REMARK    2  A    between atoms: C_15  and  C_5 
REMARK    3  A    between atoms: C_7  and  S_13 
REMARK    4  A    between atoms: C_18  and  C_8 
REMARK    5  A    between atoms: S_13  and  C_15 
REMARK    6  A    between atoms: C_26  and  O_20 
ROOT
ATOM      1  C   UNL d   1      32.473  18.842 -22.970  0.00  0.00     0.098 C 
ENDROOT
BRANCH   1   2
ATOM      2  S   UNL d   1      32.448  18.302 -23.588  0.00  0.00    -0.061 SA
BRANCH   2   3
ATOM      3  C   UNL d   1      31.781  17.830 -23.702  0.00  0.00     0.133 A 
ATOM      4  N   UNL d   1      31.115  18.131 -24.070  0.00  0.00    -0.141 NA
ATOM      5  N   UNL d   1      30.448  17.659 -24.185  0.00  0.00    -0.148 NA
ATOM      6  C   UNL d   1      30.447  16.872 -23.926  0.00  0.00     0.103 A 
ATOM      7  C   UNL d   1      31.118  16.564 -23.553  0.00  0.00     0.023 A 
ATOM      8  C   UNL d   1      31.782  17.038 -23.441  0.00  0.00     0.029 A 
BRANCH   6   9
ATOM      9  C   UNL d   1      29.780  16.400 -24.040  0.00  0.00     0.022 A 
ATOM     10  C   UNL d   1      29.665  16.035 -24.777  0.00  0.00     0.022 A 
ATOM     11  C   UNL d   1      28.994  15.565 -24.883  0.00  0.00     0.099 A 
ATOM     12  N   UNL d   1      28.457  15.461 -24.274  0.00  0.00    -0.242 NA
ATOM     13  C   UNL d   1      28.585  15.832 -23.541  0.00  0.00     0.099 A 
ATOM     14  C   UNL d   1      29.248  16.299 -23.432  0.00  0.00     0.022 A 
ENDBRANCH   6   9
ENDBRANCH   2   3
ENDBRANCH   1   2
BRANCH   1  15
ATOM     15  C   UNL d   1      32.858  19.566 -23.078  0.00  0.00     0.272 C 
ATOM     16  N   UNL d   1      32.857  20.124 -22.472  0.00  0.00    -0.269 N 
ATOM     17  C   UNL d   1      33.238  20.840 -22.578  0.00  0.00     0.102 A 
ATOM     18  C   UNL d   1      32.469  19.953 -21.759  0.00  0.00     0.102 A 
ATOM     19  C   UNL d   1      33.239  21.401 -21.974  0.00  0.00     0.104 A 
ATOM     20  N   UNL d   1      32.853  21.235 -21.261  0.00  0.00    -0.249 N 
ATOM     21  C   UNL d   1      32.858  21.798 -20.665  0.00  0.00     0.378 C 
ATOM     22  C   UNL d   1      32.473  20.513 -21.163  0.00  0.00     0.104 A 
ATOM     23  O   UNL d   1      32.472  21.631 -19.953  0.00  0.00    -0.237 OA
ATOM     24  O   UNL d   1      33.239  19.732 -23.778  0.00  0.00    -0.266 OA
BRANCH  21  25
ATOM     25  O   UNL d   1      33.241  22.517 -20.772  0.00  0.00    -0.257 OA
BRANCH  25  26
ATOM     26  C   UNL d   1      32.884  23.214 -20.537  0.00  0.00     0.128 C 
ATOM     27  C   UNL d   1      32.349  23.587 -21.025  0.00  0.00     0.029 C 
ENDBRANCH  25  26
ENDBRANCH  21  25
ENDBRANCH   1  15
TORSDOF 6
ENDMDL
