MODEL 1
REMARK VINA RESULT:      -8.3      0.000      0.000
REMARK  6 active torsions:
REMARK  status: ('A' for Active; 'I' for Inactive)
REMARK    1  A    between atoms: C_7  and  S_1 
REMARK    2  A    between atoms: N_9  and  S_1 
REMARK    3  A    between atoms: C_20  and  N_2 
REMARK    4  A    between atoms: C_10  and  N_9 
REMARK    5  A    between atoms: O_24  and  C_13 
REMARK    6  A    between atoms: O_25  and  C_19 
ROOT
ATOM      1  N   UNL d   1     -49.271  14.353  22.795  0.00  0.00    -0.273 N 
ATOM      2  C   UNL d   1     -49.873  13.535  23.148  0.00  0.00     0.265 A 
ATOM      3  C   UNL d   1     -48.520  14.051  22.826  0.00  0.00     0.067 A 
ATOM      4  C   UNL d   1     -48.570  13.282  23.106  0.00  0.00     0.021 A 
ATOM      5  C   UNL d   1     -49.305  12.953  23.298  0.00  0.00     0.058 A 
ATOM      6  C   UNL d   1     -47.135  13.153  23.006  0.00  0.00     0.105 A 
ATOM      7  C   UNL d   1     -47.888  12.826  23.199  0.00  0.00     0.014 A 
ATOM      8  C   UNL d   1     -47.788  14.381  22.634  0.00  0.00     0.018 A 
ATOM      9  C   UNL d   1     -47.085  13.923  22.727  0.00  0.00     0.014 A 
ATOM     10  O   UNL d   1     -50.677  13.372  23.288  0.00  0.00    -0.267 OA
ATOM     11  C   UNL d   1     -49.354  12.188  23.576  0.00  0.00     0.005 A 
ATOM     12  C   UNL d   1     -47.938  12.061  23.477  0.00  0.00     0.001 A 
ATOM     13  C   UNL d   1     -48.670  11.724  23.672  0.00  0.00     0.000 A 
ENDROOT
BRANCH   6  14
ATOM     14  S   UNL d   1     -46.450  12.697  23.099  0.00  0.00     0.285 S 
ATOM     15  O   UNL d   1     -46.710  12.183  22.504  0.00  0.00    -0.198 OA
ATOM     16  O   UNL d   1     -46.185  13.213  23.697  0.00  0.00    -0.198 OA
BRANCH  14  17
ATOM     17  N   UNL d   1     -45.768  12.248  23.195  0.00  0.00    -0.156 NA
BRANCH  17  18
ATOM     18  C   UNL d   1     -45.140  12.346  22.683  0.00  0.00     0.116 A 
ATOM     19  C   UNL d   1     -44.502  11.851  22.737  0.00  0.00     0.114 A 
ATOM     20  C   UNL d   1     -43.870  11.945  22.226  0.00  0.00     0.050 A 
ATOM     21  C   UNL d   1     -43.862  12.526  21.658  0.00  0.00     0.096 A 
ATOM     22  C   UNL d   1     -44.536  13.031  21.617  0.00  0.00     0.026 A 
ATOM     23  C   UNL d   1     -45.167  12.941  22.125  0.00  0.00     0.024 A 
BRANCH  19  24
ATOM     24  O   UNL d   1     -44.490  11.246  23.315  0.00  0.00    -0.327 OA
ATOM     25  C   UNL d   1     -43.895  10.662  23.295  0.00  0.00     0.181 C 
ENDBRANCH  19  24
BRANCH  21  26
ATOM     26  O   UNL d   1     -43.215  12.631  21.126  0.00  0.00    -0.328 OA
ATOM     27  C   UNL d   1     -42.664  13.250  21.270  0.00  0.00     0.181 C 
ENDBRANCH  21  26
ENDBRANCH  17  18
ENDBRANCH  14  17
ENDBRANCH   6  14
BRANCH   1  28
ATOM     28  C   UNL d   1     -49.391  15.133  22.529  0.00  0.00     0.083 C 
ATOM     29  C   UNL d   1     -50.061  15.543  22.748  0.00  0.00     0.021 C 
ENDBRANCH   1  28
TORSDOF 6
ENDMDL
MODEL 2
REMARK VINA RESULT:      -7.3      0.906      2.189
REMARK  6 active torsions:
REMARK  status: ('A' for Active; 'I' for Inactive)
REMARK    1  A    between atoms: C_7  and  S_1 
REMARK    2  A    between atoms: N_9  and  S_1 
REMARK    3  A    between atoms: C_20  and  N_2 
REMARK    4  A    between atoms: C_10  and  N_9 
REMARK    5  A    between atoms: O_24  and  C_13 
REMARK    6  A    between atoms: O_25  and  C_19 
ROOT
ATOM      1  N   UNL d   1     -49.974  13.486  22.903  0.00  0.00    -0.273 N 
ATOM      2  C   UNL d   1     -49.940  14.547  22.721  0.00  0.00     0.265 A 
ATOM      3  C   UNL d   1     -49.195  13.270  22.850  0.00  0.00     0.067 A 
ATOM      4  C   UNL d   1     -48.756  13.943  22.687  0.00  0.00     0.021 A 
ATOM      5  C   UNL d   1     -49.132  14.677  22.607  0.00  0.00     0.058 A 
ATOM      6  C   UNL d   1     -47.547  13.155  22.680  0.00  0.00     0.105 A 
ATOM      7  C   UNL d   1     -47.937  13.899  22.600  0.00  0.00     0.014 A 
ATOM      8  C   UNL d   1     -48.823  12.537  22.930  0.00  0.00     0.018 A 
ATOM      9  C   UNL d   1     -47.985  12.481  22.844  0.00  0.00     0.014 A 
ATOM     10  O   UNL d   1     -50.472  15.185  22.675  0.00  0.00    -0.267 OA
ATOM     11  C   UNL d   1     -48.696  15.348  22.444  0.00  0.00     0.005 A 
ATOM     12  C   UNL d   1     -47.501  14.569  22.438  0.00  0.00     0.001 A 
ATOM     13  C   UNL d   1     -47.869  15.308  22.356  0.00  0.00     0.000 A 
ENDROOT
BRANCH   6  14
ATOM     14  S   UNL d   1     -46.724  13.108  22.594  0.00  0.00     0.285 S 
ATOM     15  O   UNL d   1     -46.627  13.353  23.380  0.00  0.00    -0.198 OA
ATOM     16  O   UNL d   1     -46.819  12.861  21.804  0.00  0.00    -0.198 OA
BRANCH  14  17
ATOM     17  N   UNL d   1     -45.909  13.060  22.504  0.00  0.00    -0.156 NA
BRANCH  17  18
ATOM     18  C   UNL d   1     -45.504  12.415  22.799  0.00  0.00     0.116 A 
ATOM     19  C   UNL d   1     -44.738  12.287  22.569  0.00  0.00     0.114 A 
ATOM     20  C   UNL d   1     -44.328  11.643  22.862  0.00  0.00     0.050 A 
ATOM     21  C   UNL d   1     -44.667  11.121  23.384  0.00  0.00     0.096 A 
ATOM     22  C   UNL d   1     -45.465  11.271  23.612  0.00  0.00     0.026 A 
ATOM     23  C   UNL d   1     -45.878  11.912  23.322  0.00  0.00     0.024 A 
BRANCH  19  24
ATOM     24  O   UNL d   1     -44.370  12.813  22.032  0.00  0.00    -0.327 OA
ATOM     25  C   UNL d   1     -43.657  12.594  21.657  0.00  0.00     0.181 C 
ENDBRANCH  19  24
BRANCH  21  26
ATOM     26  O   UNL d   1     -44.252  10.454  23.692  0.00  0.00    -0.328 OA
ATOM     27  C   UNL d   1     -44.444   9.686  23.407  0.00  0.00     0.181 C 
ENDBRANCH  21  26
ENDBRANCH  17  18
ENDBRANCH  14  17
ENDBRANCH   6  14
BRANCH   1  28
ATOM     28  C   UNL d   1     -50.552  12.910  23.066  0.00  0.00     0.083 C 
ATOM     29  C   UNL d   1     -51.064  13.009  23.692  0.00  0.00     0.021 C 
ENDBRANCH   1  28
TORSDOF 6
ENDMDL
