MODEL 1
REMARK VINA RESULT:      -2.1      0.000      0.000
REMARK  0 active torsions:
REMARK  status: ('A' for Active; 'I' for Inactive)
ROOT
ATOM      1  C   UNL d   1      23.660  12.797  -1.092  0.00  0.00     0.116 A 
ATOM      2  C   UNL d   1      24.398  13.077  -1.330  0.00  0.00     0.192 A 
ATOM      3  N   UNL d   1      24.394  12.146  -2.404  0.00  0.00    -0.145 NA
ATOM      4  C   UNL d   1      23.306  13.132  -0.435  0.00  0.00     0.285 A 
ATOM      5  N   UNL d   1      24.768  13.672  -0.924  0.00  0.00    -0.203 NA
ATOM      6  N   UNL d   1      24.764  12.752  -1.984  0.00  0.00    -0.128 NA
ATOM      7  N   UNL d   1      23.679  13.740  -0.016  0.00  0.00    -0.185 NA
ATOM      8  C   UNL d   1      24.411  14.006  -0.266  0.00  0.00     0.203 A 
ATOM      9  C   UNL d   1      23.663  11.872  -2.165  0.00  0.00     0.130 A 
ATOM     10  O   UNL d   1      22.566  12.862  -0.184  0.00  0.00    -0.265 OA
ENDROOT
TORSDOF 0
ENDMDL
MODEL 2
REMARK VINA RESULT:       0.5      1.263      1.986
REMARK  0 active torsions:
REMARK  status: ('A' for Active; 'I' for Inactive)
ROOT
ATOM      1  C   UNL d   1      23.636  12.562  -0.743  0.00  0.00     0.116 A 
ATOM      2  C   UNL d   1      23.303  13.221  -0.374  0.00  0.00     0.192 A 
ATOM      3  N   UNL d   1      22.172  12.436  -0.020  0.00  0.00    -0.145 NA
ATOM      4  C   UNL d   1      24.368  12.640  -1.100  0.00  0.00     0.285 A 
ATOM      5  N   UNL d   1      23.690  13.932  -0.364  0.00  0.00    -0.203 NA
ATOM      6  N   UNL d   1      22.573  13.157  -0.014  0.00  0.00    -0.128 NA
ATOM      7  N   UNL d   1      24.768  13.365  -1.092  0.00  0.00    -0.185 NA
ATOM      8  C   UNL d   1      24.423  14.007  -0.723  0.00  0.00     0.203 A 
ATOM      9  C   UNL d   1      22.506  11.787  -0.386  0.00  0.00     0.130 A 
ATOM     10  O   UNL d   1      24.715  11.990  -1.473  0.00  0.00    -0.265 OA
ENDROOT
TORSDOF 0
ENDMDL
