MODEL 1
REMARK VINA RESULT:      -4.5      0.000      0.000
REMARK  2 active torsions:
REMARK  status: ('A' for Active; 'I' for Inactive)
REMARK    1  A    between atoms: CA_3  and  C_1 
REMARK    2  A    between atoms: C_2  and  CA_3 
ROOT
ATOM      1  C   UNL d   1     -41.576-122.659 -54.028  0.00  0.00     0.026 A 
ATOM      2  C   UNL d   1     -41.454-122.182 -53.364  0.00  0.00     0.009 A 
ATOM      3  C   UNL d   1     -41.243-122.521 -52.644  0.00  0.00     0.035 A 
ATOM      4 BR   UNL d   1     -41.123-122.044 -51.985  0.00  0.00    -0.049 Br
ATOM      5  C   UNL d   1     -41.485-123.477 -53.968  0.00  0.00     0.002 A 
ATOM      6  C   UNL d   1     -41.273-123.817 -53.244  0.00  0.00     0.001 A 
ATOM      7  C   UNL d   1     -41.153-123.339 -52.584  0.00  0.00     0.007 A 
ENDROOT
BRANCH   1   8
ATOM      8  CA  UNL d   1     -41.787-122.315 -54.747  0.00  0.00     0.167 C 
ATOM      9  N   UNL d   1     -41.206-122.063 -55.269  0.00  0.00    -0.142 N 
BRANCH   8  10
ATOM     10  C   UNL d   1     -42.582-122.222 -54.943  0.00  0.00     0.231 C 
ATOM     11  O   UNL d   1     -42.977-122.814 -55.372  0.00  0.00    -0.643 OA
ATOM     12  OXT UNL d   1     -42.991-121.540 -54.714  0.00  0.00    -0.643 OA
ENDBRANCH   8  10
ENDBRANCH   1   8
TORSDOF 2
ENDMDL
MODEL 2
REMARK VINA RESULT:      -4.2      1.063      1.481
REMARK  2 active torsions:
REMARK  status: ('A' for Active; 'I' for Inactive)
REMARK    1  A    between atoms: CA_3  and  C_1 
REMARK    2  A    between atoms: C_2  and  CA_3 
ROOT
ATOM      1  C   UNL d   1     -41.379-122.751 -53.209  0.00  0.00     0.026 A 
ATOM      2  C   UNL d   1     -41.437-123.362 -52.654  0.00  0.00     0.009 A 
ATOM      3  C   UNL d   1     -41.339-123.202 -51.852  0.00  0.00     0.035 A 
ATOM      4 BR   UNL d   1     -41.397-123.811 -51.302  0.00  0.00    -0.049 Br
ATOM      5  C   UNL d   1     -41.221-121.982 -52.957  0.00  0.00     0.002 A 
ATOM      6  C   UNL d   1     -41.123-121.822 -52.151  0.00  0.00     0.001 A 
ATOM      7  C   UNL d   1     -41.181-122.432 -51.601  0.00  0.00     0.007 A 
ENDROOT
BRANCH   1   8
ATOM      8  CA  UNL d   1     -41.478-122.916 -54.011  0.00  0.00     0.167 C 
ATOM      9  N   UNL d   1     -41.174-123.608 -54.329  0.00  0.00    -0.142 N 
BRANCH   8  10
ATOM     10  C   UNL d   1     -41.883-122.386 -54.494  0.00  0.00     0.231 C 
ATOM     11  O   UNL d   1     -42.712-122.348 -54.469  0.00  0.00    -0.643 OA
ATOM     12  OXT UNL d   1     -41.466-121.887 -55.008  0.00  0.00    -0.643 OA
ENDBRANCH   8  10
ENDBRANCH   1   8
TORSDOF 2
ENDMDL
MODEL 3
REMARK VINA RESULT:      -4.0      2.103      2.615
REMARK  2 active torsions:
REMARK  status: ('A' for Active; 'I' for Inactive)
REMARK    1  A    between atoms: CA_3  and  C_1 
REMARK    2  A    between atoms: C_2  and  CA_3 
ROOT
ATOM      1  C   UNL d   1     -41.448-122.601 -53.192  0.00  0.00     0.026 A 
ATOM      2  C   UNL d   1     -41.833-122.145 -53.765  0.00  0.00     0.009 A 
ATOM      3  C   UNL d   1     -41.891-122.417 -54.539  0.00  0.00     0.035 A 
ATOM      4 BR   UNL d   1     -42.274-121.961 -55.107  0.00  0.00    -0.049 Br
ATOM      5  C   UNL d   1     -41.123-123.330 -53.399  0.00  0.00     0.002 A 
ATOM      6  C   UNL d   1     -41.181-123.603 -54.177  0.00  0.00     0.001 A 
ATOM      7  C   UNL d   1     -41.565-123.147 -54.746  0.00  0.00     0.007 A 
ENDROOT
BRANCH   1   8
ATOM      8  CA  UNL d   1     -41.392-122.324 -52.417  0.00  0.00     0.167 C 
ATOM      9  N   UNL d   1     -41.123-121.563 -52.271  0.00  0.00    -0.142 N 
BRANCH   8  10
ATOM     10  C   UNL d   1     -41.607-122.811 -51.788  0.00  0.00     0.231 C 
ATOM     11  O   UNL d   1     -42.300-122.653 -51.357  0.00  0.00    -0.643 OA
ATOM     12  OXT UNL d   1     -41.136-123.459 -51.582  0.00  0.00    -0.643 OA
ENDBRANCH   8  10
ENDBRANCH   1   8
TORSDOF 2
ENDMDL
MODEL 4
REMARK VINA RESULT:      -3.8      3.254      3.972
REMARK  2 active torsions:
REMARK  status: ('A' for Active; 'I' for Inactive)
REMARK    1  A    between atoms: CA_3  and  C_1 
REMARK    2  A    between atoms: C_2  and  CA_3 
ROOT
ATOM      1  C   UNL d   1     -41.642-122.863 -50.673  0.00  0.00     0.026 A 
ATOM      2  C   UNL d   1     -41.512-123.446 -51.244  0.00  0.00     0.009 A 
ATOM      3  C   UNL d   1     -41.253-123.235 -51.997  0.00  0.00     0.035 A 
ATOM      4 BR   UNL d   1     -41.124-123.817 -52.564  0.00  0.00    -0.049 Br
ATOM      5  C   UNL d   1     -41.512-122.069 -50.858  0.00  0.00     0.002 A 
ATOM      6  C   UNL d   1     -41.252-121.859 -51.615  0.00  0.00     0.001 A 
ATOM      7  C   UNL d   1     -41.123-122.442 -52.182  0.00  0.00     0.007 A 
ENDROOT
BRANCH   1   8
ATOM      8  CA  UNL d   1     -41.901-123.078 -49.920  0.00  0.00     0.167 C 
ATOM      9  N   UNL d   1     -41.366-123.358 -49.365  0.00  0.00    -0.142 N 
BRANCH   8  10
ATOM     10  C   UNL d   1     -42.699-123.012 -49.723  0.00  0.00     0.231 C 
ATOM     11  O   UNL d   1     -43.226-123.626 -49.911  0.00  0.00    -0.643 OA
ATOM     12  OXT UNL d   1     -42.979-122.335 -49.337  0.00  0.00    -0.643 OA
ENDBRANCH   8  10
ENDBRANCH   1   8
TORSDOF 2
ENDMDL
MODEL 5
REMARK VINA RESULT:      -3.5      3.399      4.046
REMARK  2 active torsions:
REMARK  status: ('A' for Active; 'I' for Inactive)
REMARK    1  A    between atoms: CA_3  and  C_1 
REMARK    2  A    between atoms: C_2  and  CA_3 
ROOT
ATOM      1  C   UNL d   1     -41.859-122.951 -50.131  0.00  0.00     0.026 A 
ATOM      2  C   UNL d   1     -41.381-123.165 -49.491  0.00  0.00     0.009 A 
ATOM      3  C   UNL d   1     -41.704-123.227 -48.736  0.00  0.00     0.035 A 
ATOM      4 BR   UNL d   1     -41.227-123.440 -48.102  0.00  0.00    -0.049 Br
ATOM      5  C   UNL d   1     -42.661-122.799 -50.012  0.00  0.00     0.002 A 
ATOM      6  C   UNL d   1     -42.985-122.861 -49.253  0.00  0.00     0.001 A 
ATOM      7  C   UNL d   1     -42.506-123.075 -48.617  0.00  0.00     0.007 A 
ENDROOT
BRANCH   1   8
ATOM      8  CA  UNL d   1     -41.531-122.891 -50.886  0.00  0.00     0.167 C 
ATOM      9  N   UNL d   1     -41.123-123.524 -51.208  0.00  0.00    -0.142 N 
BRANCH   8  10
ATOM     10  C   UNL d   1     -41.613-122.193 -51.317  0.00  0.00     0.231 C 
ATOM     11  O   UNL d   1     -42.188-122.138 -51.914  0.00  0.00    -0.643 OA
ATOM     12  OXT UNL d   1     -41.124-121.544 -51.159  0.00  0.00    -0.643 OA
ENDBRANCH   8  10
ENDBRANCH   1   8
TORSDOF 2
ENDMDL
