MODEL 1
REMARK VINA RESULT:      -4.9      0.000      0.000
REMARK  6 active torsions:
REMARK  status: ('A' for Active; 'I' for Inactive)
REMARK    1  A    between atoms: N_2  and  S_1 
REMARK    2  A    between atoms: C_5  and  S_1 
REMARK    3  A    between atoms: C_4  and  C_3 
REMARK       I    between atoms: N_6  and  C_4 
REMARK    4  A    between atoms: C_15  and  N_6 
REMARK    5  A    between atoms: C_9  and  C_10 
REMARK    6  A    between atoms: O_20  and  C_9 
ROOT
ATOM      1  N   UNL d   1     -40.236  14.797  17.269  0.00  0.00    -0.226 N 
ATOM      2  C   UNL d   1     -40.343  15.344  17.881  0.00  0.00     0.133 A 
ATOM      3  C   UNL d   1     -40.691  15.036  16.627  0.00  0.00     0.092 A 
ATOM      4  C   UNL d   1     -40.869  15.922  17.608  0.00  0.00     0.025 A 
ATOM      5  C   UNL d   1     -41.080  15.728  16.836  0.00  0.00     0.021 A 
ENDROOT
BRANCH   2   6
ATOM      6  C   UNL d   1     -39.988  15.316  18.626  0.00  0.00     0.296 C 
ATOM      7  N   UNL d   1     -40.468  15.238  19.289  0.00  0.00    -0.207 NA
ATOM      8  O   UNL d   1     -39.172  15.365  18.697  0.00  0.00    -0.264 OA
BRANCH   7   9
ATOM      9  C   UNL d   1     -40.113  15.209  20.039  0.00  0.00     0.085 A 
ATOM     10  C   UNL d   1     -40.246  14.561  20.540  0.00  0.00     0.019 A 
ATOM     11  C   UNL d   1     -39.895  14.533  21.281  0.00  0.00     0.007 A 
ATOM     12  C   UNL d   1     -39.406  15.152  21.533  0.00  0.00     0.063 A 
ATOM     13  C   UNL d   1     -39.272  15.801  21.032  0.00  0.00     0.007 A 
ATOM     14  C   UNL d   1     -39.628  15.826  20.284  0.00  0.00     0.019 A 
BRANCH  12  15
ATOM     15  C   UNL d   1     -39.053  15.128  22.272  0.00  0.00     0.296 C 
ATOM     16  O   UNL d   1     -38.590  14.477  22.495  0.00  0.00    -0.259 OA
BRANCH  15  17
ATOM     17  O   UNL d   1     -39.158  15.756  22.806  0.00  0.00    -0.296 OA
ATOM     18  C   UNL d   1     -38.783  15.746  23.540  0.00  0.00     0.185 C 
ENDBRANCH  15  17
ENDBRANCH  12  15
ENDBRANCH   7   9
ENDBRANCH   2   6
BRANCH   1  19
ATOM     19  S   UNL d   1     -39.739  14.143  17.359  0.00  0.00     0.271 S 
ATOM     20  O   UNL d   1     -40.423  13.717  17.515  0.00  0.00    -0.200 OA
ATOM     21  O   UNL d   1     -39.054  14.583  17.200  0.00  0.00    -0.200 OA
BRANCH  19  22
ATOM     22  C   UNL d   1     -39.289  13.463  17.459  0.00  0.00     0.104 A 
ATOM     23  C   UNL d   1     -38.480  13.477  17.298  0.00  0.00     0.013 A 
ATOM     24  C   UNL d   1     -38.031  12.792  17.399  0.00  0.00     0.001 A 
ATOM     25  C   UNL d   1     -38.389  12.097  17.661  0.00  0.00     0.000 A 
ATOM     26  C   UNL d   1     -39.199  12.086  17.821  0.00  0.00     0.001 A 
ATOM     27  C   UNL d   1     -37.940  11.412  17.762  0.00  0.00     0.000 C 
ATOM     28  C   UNL d   1     -39.655  12.767  17.722  0.00  0.00     0.013 A 
ENDBRANCH  19  22
ENDBRANCH   1  19
TORSDOF 6
ENDMDL
MODEL 2
REMARK VINA RESULT:      -4.7      8.546      9.737
REMARK  6 active torsions:
REMARK  status: ('A' for Active; 'I' for Inactive)
REMARK    1  A    between atoms: N_2  and  S_1 
REMARK    2  A    between atoms: C_5  and  S_1 
REMARK    3  A    between atoms: C_4  and  C_3 
REMARK       I    between atoms: N_6  and  C_4 
REMARK    4  A    between atoms: C_15  and  N_6 
REMARK    5  A    between atoms: C_9  and  C_10 
REMARK    6  A    between atoms: O_20  and  C_9 
ROOT
ATOM      1  N   UNL d   1     -48.588  14.671  22.516  0.00  0.00    -0.226 N 
ATOM      2  C   UNL d   1     -47.763  14.622  22.562  0.00  0.00     0.133 A 
ATOM      3  C   UNL d   1     -48.788  15.414  22.227  0.00  0.00     0.092 A 
ATOM      4  C   UNL d   1     -47.457  15.344  22.298  0.00  0.00     0.025 A 
ATOM      5  C   UNL d   1     -48.092  15.828  22.092  0.00  0.00     0.021 A 
ENDROOT
BRANCH   2   6
ATOM      6  C   UNL d   1     -47.328  13.971  22.825  0.00  0.00     0.296 C 
ATOM      7  N   UNL d   1     -46.766  13.642  22.322  0.00  0.00    -0.207 NA
ATOM      8  O   UNL d   1     -47.458  13.661  23.574  0.00  0.00    -0.264 OA
BRANCH   7   9
ATOM      9  C   UNL d   1     -46.328  12.988  22.583  0.00  0.00     0.085 A 
ATOM     10  C   UNL d   1     -46.606  12.523  23.212  0.00  0.00     0.019 A 
ATOM     11  C   UNL d   1     -46.172  11.876  23.470  0.00  0.00     0.007 A 
ATOM     12  C   UNL d   1     -45.454  11.684  23.104  0.00  0.00     0.063 A 
ATOM     13  C   UNL d   1     -45.175  12.149  22.475  0.00  0.00     0.007 A 
ATOM     14  C   UNL d   1     -45.616  12.802  22.216  0.00  0.00     0.019 A 
BRANCH  12  15
ATOM     15  C   UNL d   1     -45.018  11.039  23.359  0.00  0.00     0.296 C 
ATOM     16  O   UNL d   1     -45.397  10.383  23.698  0.00  0.00    -0.259 OA
BRANCH  15  17
ATOM     17  O   UNL d   1     -44.191  11.035  23.280  0.00  0.00    -0.296 OA
ATOM     18  C   UNL d   1     -43.750  10.389  23.539  0.00  0.00     0.185 C 
ENDBRANCH  15  17
ENDBRANCH  12  15
ENDBRANCH   7   9
ENDBRANCH   2   6
BRANCH   1  19
ATOM     19  S   UNL d   1     -49.069  14.037  22.742  0.00  0.00     0.271 S 
ATOM     20  O   UNL d   1     -49.189  13.917  21.938  0.00  0.00    -0.200 OA
ATOM     21  O   UNL d   1     -48.942  14.167  23.550  0.00  0.00    -0.200 OA
BRANCH  19  22
ATOM     22  C   UNL d   1     -49.556  13.399  22.913  0.00  0.00     0.104 A 
ATOM     23  C   UNL d   1     -50.103  13.450  23.529  0.00  0.00     0.013 A 
ATOM     24  C   UNL d   1     -50.590  12.807  23.698  0.00  0.00     0.001 A 
ATOM     25  C   UNL d   1     -50.532  12.114  23.254  0.00  0.00     0.000 A 
ATOM     26  C   UNL d   1     -49.984  12.065  22.638  0.00  0.00     0.001 A 
ATOM     27  C   UNL d   1     -51.020  11.470  23.423  0.00  0.00     0.000 C 
ATOM     28  C   UNL d   1     -49.493  12.705  22.462  0.00  0.00     0.013 A 
ENDBRANCH  19  22
ENDBRANCH   1  19
TORSDOF 6
ENDMDL
MODEL 3
REMARK VINA RESULT:      -3.5      9.531     10.797
REMARK  6 active torsions:
REMARK  status: ('A' for Active; 'I' for Inactive)
REMARK    1  A    between atoms: N_2  and  S_1 
REMARK    2  A    between atoms: C_5  and  S_1 
REMARK    3  A    between atoms: C_4  and  C_3 
REMARK       I    between atoms: N_6  and  C_4 
REMARK    4  A    between atoms: C_15  and  N_6 
REMARK    5  A    between atoms: C_9  and  C_10 
REMARK    6  A    between atoms: O_20  and  C_9 
ROOT
ATOM      1  N   UNL d   1     -50.426  12.098  23.203  0.00  0.00    -0.226 N 
ATOM      2  C   UNL d   1     -49.670  11.815  23.386  0.00  0.00     0.133 A 
ATOM      3  C   UNL d   1     -50.974  11.515  23.393  0.00  0.00     0.092 A 
ATOM      4  C   UNL d   1     -49.759  11.051  23.690  0.00  0.00     0.025 A 
ATOM      5  C   UNL d   1     -50.563  10.871  23.693  0.00  0.00     0.021 A 
ENDROOT
BRANCH   2   6
ATOM      6  C   UNL d   1     -48.959  12.222  23.282  0.00  0.00     0.296 C 
ATOM      7  N   UNL d   1     -48.403  11.920  22.757  0.00  0.00    -0.207 NA
ATOM      8  O   UNL d   1     -48.816  12.916  23.697  0.00  0.00    -0.264 OA
BRANCH   7   9
ATOM      9  C   UNL d   1     -47.689  12.328  22.651  0.00  0.00     0.085 A 
ATOM     10  C   UNL d   1     -47.474  12.609  21.900  0.00  0.00     0.019 A 
ATOM     11  C   UNL d   1     -46.767  13.012  21.797  0.00  0.00     0.007 A 
ATOM     12  C   UNL d   1     -46.264  13.141  22.442  0.00  0.00     0.063 A 
ATOM     13  C   UNL d   1     -46.478  12.861  23.194  0.00  0.00     0.007 A 
ATOM     14  C   UNL d   1     -47.193  12.453  23.295  0.00  0.00     0.019 A 
BRANCH  12  15
ATOM     15  C   UNL d   1     -45.557  13.544  22.342  0.00  0.00     0.296 C 
ATOM     16  O   UNL d   1     -45.361  14.177  22.841  0.00  0.00    -0.259 OA
BRANCH  15  17
ATOM     17  O   UNL d   1     -45.031  13.321  21.740  0.00  0.00    -0.296 OA
ATOM     18  C   UNL d   1     -44.219  13.304  21.881  0.00  0.00     0.185 C 
ENDBRANCH  15  17
ENDBRANCH  12  15
ENDBRANCH   7   9
ENDBRANCH   2   6
BRANCH   1  19
ATOM     19  S   UNL d   1     -50.537  12.853  22.885  0.00  0.00     0.271 S 
ATOM     20  O   UNL d   1     -50.527  12.483  22.152  0.00  0.00    -0.200 OA
ATOM     21  O   UNL d   1     -50.544  13.217  23.630  0.00  0.00    -0.200 OA
BRANCH  19  22
ATOM     22  C   UNL d   1     -50.646  13.581  22.520  0.00  0.00     0.104 A 
ATOM     23  C   UNL d   1     -50.874  13.615  21.728  0.00  0.00     0.013 A 
ATOM     24  C   UNL d   1     -50.983  14.347  21.364  0.00  0.00     0.001 A 
ATOM     25  C   UNL d   1     -50.865  15.043  21.791  0.00  0.00     0.000 A 
ATOM     26  C   UNL d   1     -50.636  15.006  22.584  0.00  0.00     0.001 A 
ATOM     27  C   UNL d   1     -50.974  15.776  21.427  0.00  0.00     0.000 C 
ATOM     28  C   UNL d   1     -50.525  14.277  22.954  0.00  0.00     0.013 A 
ENDBRANCH  19  22
ENDBRANCH   1  19
TORSDOF 6
ENDMDL
MODEL 4
REMARK VINA RESULT:      -3.3      2.242      3.609
REMARK  6 active torsions:
REMARK  status: ('A' for Active; 'I' for Inactive)
REMARK    1  A    between atoms: N_2  and  S_1 
REMARK    2  A    between atoms: C_5  and  S_1 
REMARK    3  A    between atoms: C_4  and  C_3 
REMARK       I    between atoms: N_6  and  C_4 
REMARK    4  A    between atoms: C_15  and  N_6 
REMARK    5  A    between atoms: C_9  and  C_10 
REMARK    6  A    between atoms: O_20  and  C_9 
ROOT
ATOM      1  N   UNL d   1     -38.793  15.193  19.937  0.00  0.00    -0.226 N 
ATOM      2  C   UNL d   1     -39.101  14.839  20.618  0.00  0.00     0.133 A 
ATOM      3  C   UNL d   1     -38.080  15.554  20.133  0.00  0.00     0.092 A 
ATOM      4  C   UNL d   1     -38.570  14.985  21.236  0.00  0.00     0.025 A 
ATOM      5  C   UNL d   1     -37.943  15.425  20.932  0.00  0.00     0.021 A 
ENDROOT
BRANCH   2   6
ATOM      6  C   UNL d   1     -39.810  14.417  20.669  0.00  0.00     0.296 C 
ATOM      7  N   UNL d   1     -40.410  14.710  21.149  0.00  0.00    -0.207 NA
ATOM      8  O   UNL d   1     -39.907  13.721  20.245  0.00  0.00    -0.264 OA
BRANCH   7   9
ATOM      9  C   UNL d   1     -41.122  14.288  21.201  0.00  0.00     0.085 A 
ATOM     10  C   UNL d   1     -41.121  13.489  21.428  0.00  0.00     0.019 A 
ATOM     11  C   UNL d   1     -41.826  13.073  21.479  0.00  0.00     0.007 A 
ATOM     12  C   UNL d   1     -42.543  13.448  21.304  0.00  0.00     0.063 A 
ATOM     13  C   UNL d   1     -42.546  14.246  21.077  0.00  0.00     0.007 A 
ATOM     14  C   UNL d   1     -41.832  14.665  21.026  0.00  0.00     0.019 A 
BRANCH  12  15
ATOM     15  C   UNL d   1     -43.250  13.035  21.354  0.00  0.00     0.296 C 
ATOM     16  O   UNL d   1     -43.346  12.317  20.949  0.00  0.00    -0.259 OA
BRANCH  15  17
ATOM     17  O   UNL d   1     -43.876  13.332  21.812  0.00  0.00    -0.296 OA
ATOM     18  C   UNL d   1     -44.632  13.011  21.742  0.00  0.00     0.185 C 
ENDBRANCH  15  17
ENDBRANCH  12  15
ENDBRANCH   7   9
ENDBRANCH   2   6
BRANCH   1  19
ATOM     19  S   UNL d   1     -39.190  15.152  19.213  0.00  0.00     0.271 S 
ATOM     20  O   UNL d   1     -39.431  15.922  19.367  0.00  0.00    -0.200 OA
ATOM     21  O   UNL d   1     -38.940  14.375  19.068  0.00  0.00    -0.200 OA
BRANCH  19  22
ATOM     22  C   UNL d   1     -39.601  15.161  18.502  0.00  0.00     0.104 A 
ATOM     23  C   UNL d   1     -39.514  14.539  17.968  0.00  0.00     0.013 A 
ATOM     24  C   UNL d   1     -39.929  14.552  17.254  0.00  0.00     0.001 A 
ATOM     25  C   UNL d   1     -40.429  15.184  17.076  0.00  0.00     0.000 A 
ATOM     26  C   UNL d   1     -40.513  15.806  17.614  0.00  0.00     0.001 A 
ATOM     27  C   UNL d   1     -40.843  15.196  16.363  0.00  0.00     0.000 C 
ATOM     28  C   UNL d   1     -40.102  15.800  18.329  0.00  0.00     0.013 A 
ENDBRANCH  19  22
ENDBRANCH   1  19
TORSDOF 6
ENDMDL
MODEL 5
REMARK VINA RESULT:      -2.6      8.356      9.729
REMARK  6 active torsions:
REMARK  status: ('A' for Active; 'I' for Inactive)
REMARK    1  A    between atoms: N_2  and  S_1 
REMARK    2  A    between atoms: C_5  and  S_1 
REMARK    3  A    between atoms: C_4  and  C_3 
REMARK       I    between atoms: N_6  and  C_4 
REMARK    4  A    between atoms: C_15  and  N_6 
REMARK    5  A    between atoms: C_9  and  C_10 
REMARK    6  A    between atoms: O_20  and  C_9 
ROOT
ATOM      1  N   UNL d   1     -49.100  12.036  23.235  0.00  0.00    -0.226 N 
ATOM      2  C   UNL d   1     -48.405  11.603  23.113  0.00  0.00     0.133 A 
ATOM      3  C   UNL d   1     -49.652  11.544  23.595  0.00  0.00     0.092 A 
ATOM      4  C   UNL d   1     -48.536  10.839  23.402  0.00  0.00     0.025 A 
ATOM      5  C   UNL d   1     -49.305  10.807  23.697  0.00  0.00     0.021 A 
ENDROOT
BRANCH   2   6
ATOM      6  C   UNL d   1     -47.710  11.885  22.767  0.00  0.00     0.296 C 
ATOM      7  N   UNL d   1     -47.068  12.054  23.252  0.00  0.00    -0.207 NA
ATOM      8  O   UNL d   1     -47.668  11.992  21.954  0.00  0.00    -0.264 OA
BRANCH   7   9
ATOM      9  C   UNL d   1     -46.369  12.337  22.906  0.00  0.00     0.085 A 
ATOM     10  C   UNL d   1     -45.716  11.834  22.810  0.00  0.00     0.019 A 
ATOM     11  C   UNL d   1     -45.025  12.115  22.467  0.00  0.00     0.007 A 
ATOM     12  C   UNL d   1     -44.976  12.903  22.216  0.00  0.00     0.063 A 
ATOM     13  C   UNL d   1     -45.629  13.407  22.311  0.00  0.00     0.007 A 
ATOM     14  C   UNL d   1     -46.326  13.120  22.658  0.00  0.00     0.019 A 
BRANCH  12  15
ATOM     15  C   UNL d   1     -44.288  13.187  21.874  0.00  0.00     0.296 C 
ATOM     16  O   UNL d   1     -44.029  13.959  22.031  0.00  0.00    -0.259 OA
BRANCH  15  17
ATOM     17  O   UNL d   1     -43.843  12.704  21.365  0.00  0.00    -0.296 OA
ATOM     18  C   UNL d   1     -43.036  12.835  21.265  0.00  0.00     0.185 C 
ENDBRANCH  15  17
ENDBRANCH  12  15
ENDBRANCH   7   9
ENDBRANCH   2   6
BRANCH   1  19
ATOM     19  S   UNL d   1     -49.157  12.829  23.007  0.00  0.00     0.271 S 
ATOM     20  O   UNL d   1     -49.619  12.557  22.385  0.00  0.00    -0.200 OA
ATOM     21  O   UNL d   1     -48.689  13.093  23.639  0.00  0.00    -0.200 OA
BRANCH  19  22
ATOM     22  C   UNL d   1     -49.245  13.600  22.739  0.00  0.00     0.104 A 
ATOM     23  C   UNL d   1     -49.120  14.232  23.254  0.00  0.00     0.013 A 
ATOM     24  C   UNL d   1     -49.209  15.006  22.982  0.00  0.00     0.001 A 
ATOM     25  C   UNL d   1     -49.422  15.148  22.198  0.00  0.00     0.000 A 
ATOM     26  C   UNL d   1     -49.547  14.512  21.684  0.00  0.00     0.001 A 
ATOM     27  C   UNL d   1     -49.511  15.921  21.925  0.00  0.00     0.000 C 
ATOM     28  C   UNL d   1     -49.460  13.736  21.949  0.00  0.00     0.013 A 
ENDBRANCH  19  22
ENDBRANCH   1  19
TORSDOF 6
ENDMDL
