MODEL 1
REMARK VINA RESULT:      -5.6      0.000      0.000
REMARK  5 active torsions:
REMARK  status: ('A' for Active; 'I' for Inactive)
REMARK    1  A    between atoms: N_2  and  S_1 
REMARK    2  A    between atoms: C_6  and  S_1 
REMARK    3  A    between atoms: C_5  and  N_2 
REMARK    4  A    between atoms: C_3  and  C_8 
REMARK    5  A    between atoms: C_7  and  C_4 
ROOT
ATOM      1  S   UNL d   1      57.550   0.179  30.989  0.00  0.00     0.285 S 
ATOM      2  O   UNL d   1      56.793   0.044  30.727  0.00  0.00    -0.198 OA
ATOM      3  O   UNL d   1      58.319   0.316  31.255  0.00  0.00    -0.198 OA
ENDROOT
BRANCH   1   4
ATOM      4  N   UNL d   1      57.815   0.195  30.214  0.00  0.00    -0.158 NA
BRANCH   4   5
ATOM      5  C   UNL d   1      58.182  -0.463  29.877  0.00  0.00     0.100 A 
ATOM      6  C   UNL d   1      58.581  -0.402  29.199  0.00  0.00     0.083 A 
ATOM      7  C   UNL d   1      58.948  -1.060  28.862  0.00  0.00     0.008 A 
ATOM      8  C   UNL d   1      58.892  -1.818  29.256  0.00  0.00     0.000 A 
ATOM      9  C   UNL d   1      58.492  -1.879  29.933  0.00  0.00     0.002 A 
ATOM     10  C   UNL d   1      58.117  -1.186  30.269  0.00  0.00     0.020 A 
BRANCH   6  11
ATOM     11  C   UNL d   1      58.646   0.321  28.807  0.00  0.00     0.212 C 
ATOM     12  O   UNL d   1      57.994   0.669  28.455  0.00  0.00    -0.644 OA
ATOM     13  O   UNL d   1      59.387   0.682  28.780  0.00  0.00    -0.644 OA
ENDBRANCH   6  11
ENDBRANCH   4   5
ENDBRANCH   1   4
BRANCH   1  14
ATOM     14  C   UNL d   1      57.283   0.163  31.771  0.00  0.00     0.105 A 
ATOM     15  C   UNL d   1      56.694  -0.362  32.006  0.00  0.00     0.017 A 
ATOM     16  C   UNL d   1      56.436  -0.378  32.760  0.00  0.00     0.072 A 
ATOM     17  C   UNL d   1      56.752   0.131  33.326  0.00  0.00     0.004 A 
ATOM     18  C   UNL d   1      57.342   0.656  33.090  0.00  0.00     0.001 A 
ATOM     19  C   UNL d   1      57.599   0.672  32.337  0.00  0.00     0.013 A 
BRANCH  16  20
ATOM     20  C   UNL d   1      55.823  -0.930  32.987  0.00  0.00     0.419 C 
ATOM     21  F   UNL d   1      55.208  -1.448  33.208  0.00  0.00    -0.166 F 
ATOM     22  F   UNL d   1      55.249  -0.296  32.981  0.00  0.00    -0.166 F 
ATOM     23  F   UNL d   1      56.389  -1.531  32.989  0.00  0.00    -0.166 F 
ENDBRANCH  16  20
ENDBRANCH   1  14
TORSDOF 5
ENDMDL
MODEL 2
REMARK VINA RESULT:      -4.5      2.210      4.001
REMARK  5 active torsions:
REMARK  status: ('A' for Active; 'I' for Inactive)
REMARK    1  A    between atoms: N_2  and  S_1 
REMARK    2  A    between atoms: C_6  and  S_1 
REMARK    3  A    between atoms: C_5  and  N_2 
REMARK    4  A    between atoms: C_3  and  C_8 
REMARK    5  A    between atoms: C_7  and  C_4 
ROOT
ATOM      1  S   UNL d   1      57.129   0.360  31.929  0.00  0.00     0.285 S 
ATOM      2  O   UNL d   1      56.648   0.541  31.299  0.00  0.00    -0.198 OA
ATOM      3  O   UNL d   1      57.617   0.177  32.568  0.00  0.00    -0.198 OA
ENDROOT
BRANCH   1   4
ATOM      4  N   UNL d   1      56.477   0.354  32.424  0.00  0.00    -0.158 NA
BRANCH   4   5
ATOM      5  C   UNL d   1      56.146  -0.356  32.682  0.00  0.00     0.100 A 
ATOM      6  C   UNL d   1      55.598  -0.367  33.250  0.00  0.00     0.083 A 
ATOM      7  C   UNL d   1      55.267  -1.079  33.508  0.00  0.00     0.008 A 
ATOM      8  C   UNL d   1      55.524  -1.813  33.150  0.00  0.00     0.000 A 
ATOM      9  C   UNL d   1      56.071  -1.802  32.582  0.00  0.00     0.002 A 
ATOM     10  C   UNL d   1      56.404  -1.056  32.327  0.00  0.00     0.020 A 
BRANCH   6  11
ATOM     11  C   UNL d   1      55.340   0.331  33.605  0.00  0.00     0.212 C 
ATOM     12  O   UNL d   1      54.621   0.666  33.403  0.00  0.00    -0.644 OA
ATOM     13  O   UNL d   1      55.829   0.682  34.170  0.00  0.00    -0.644 OA
ENDBRANCH   6  11
ENDBRANCH   4   5
ENDBRANCH   1   4
BRANCH   1  14
ATOM     14  C   UNL d   1      57.786   0.367  31.429  0.00  0.00     0.105 A 
ATOM     15  C   UNL d   1      57.740   0.065  30.663  0.00  0.00     0.017 A 
ATOM     16  C   UNL d   1      58.374   0.071  30.182  0.00  0.00     0.072 A 
ATOM     17  C   UNL d   1      59.095   0.380  30.434  0.00  0.00     0.004 A 
ATOM     18  C   UNL d   1      59.142   0.682  31.200  0.00  0.00     0.001 A 
ATOM     19  C   UNL d   1      58.508   0.676  31.682  0.00  0.00     0.013 A 
BRANCH  16  20
ATOM     20  C   UNL d   1      58.308  -0.246  29.390  0.00  0.00     0.419 C 
ATOM     21  F   UNL d   1      58.244  -0.531  28.609  0.00  0.00    -0.166 F 
ATOM     22  F   UNL d   1      58.321   0.546  29.070  0.00  0.00    -0.166 F 
ATOM     23  F   UNL d   1      58.297  -1.005  29.714  0.00  0.00    -0.166 F 
ENDBRANCH  16  20
ENDBRANCH   1  14
TORSDOF 5
ENDMDL
