MODEL 1
REMARK VINA RESULT:      -9.7      0.000      0.000
REMARK  1 active torsions:
REMARK  status: ('A' for Active; 'I' for Inactive)
REMARK    1  A    between atoms: C_12  and  N_4 
ROOT
ATOM      1  C   UNL d   1      52.895  32.576  53.373  0.00  0.00     0.081 A 
ATOM      2  C   UNL d   1      53.387  32.869  53.920  0.00  0.00     0.118 A 
ATOM      3  C   UNL d   1      52.382  33.082  52.958  0.00  0.00     0.268 A 
ATOM      4  N   UNL d   1      52.396  33.884  53.125  0.00  0.00    -0.249 N 
ATOM      5  N   UNL d   1      53.397  33.664  54.082  0.00  0.00    -0.212 NA
ATOM      6  C   UNL d   1      52.881  34.189  53.668  0.00  0.00     0.209 A 
ATOM      7  S   UNL d   1      53.847  32.275  54.265  0.00  0.00    -0.068 SA
ATOM      8  C   UNL d   1      53.030  31.754  53.350  0.00  0.00     0.013 A 
ATOM      9  C   UNL d   1      53.627  31.560  53.908  0.00  0.00     0.031 A 
ATOM     10  S   UNL d   1      52.862  35.008  53.807  0.00  0.00    -0.038 SA
ATOM     11  O   UNL d   1      51.860  32.799  52.383  0.00  0.00    -0.267 OA
ATOM     12  C   UNL d   1      52.602  31.305  52.836  0.00  0.00     0.001 A 
ATOM     13  C   UNL d   1      53.914  30.806  54.050  0.00  0.00     0.006 A 
ATOM     14  C   UNL d   1      52.662  30.472  52.737  0.00  0.00     0.000 A 
ATOM     15  C   UNL d   1      53.713  30.095  53.713  0.00  0.00     0.001 A 
ATOM     16  C   UNL d   1      53.155  29.937  53.126  0.00  0.00     0.000 A 
ENDROOT
BRANCH   4  17
ATOM     17  C   UNL d   1      51.875  34.408  52.707  0.00  0.00     0.085 C 
ATOM     18  C   UNL d   1      51.090  34.467  52.935  0.00  0.00     0.021 C 
ENDBRANCH   4  17
TORSDOF 1
ENDMDL
MODEL 2
REMARK VINA RESULT:      -9.7      1.536      3.552
REMARK  1 active torsions:
REMARK  status: ('A' for Active; 'I' for Inactive)
REMARK    1  A    between atoms: C_12  and  N_4 
ROOT
ATOM      1  C   UNL d   1      53.103  32.461  53.632  0.00  0.00     0.081 A 
ATOM      2  C   UNL d   1      52.610  32.404  53.015  0.00  0.00     0.118 A 
ATOM      3  C   UNL d   1      53.492  31.787  53.922  0.00  0.00     0.268 A 
ATOM      4  N   UNL d   1      53.357  31.065  53.559  0.00  0.00    -0.249 N 
ATOM      5  N   UNL d   1      52.479  31.687  52.659  0.00  0.00    -0.212 NA
ATOM      6  C   UNL d   1      52.868  30.993  52.943  0.00  0.00     0.209 A 
ATOM      7  S   UNL d   1      52.283  33.136  52.817  0.00  0.00    -0.068 SA
ATOM      8  C   UNL d   1      53.107  33.265  53.857  0.00  0.00     0.013 A 
ATOM      9  C   UNL d   1      52.594  33.692  53.348  0.00  0.00     0.031 A 
ATOM     10  S   UNL d   1      52.759  30.242  52.604  0.00  0.00    -0.038 SA
ATOM     11  O   UNL d   1      54.011  31.823  54.565  0.00  0.00    -0.267 OA
ATOM     12  C   UNL d   1      53.565  33.491  54.479  0.00  0.00     0.001 A 
ATOM     13  C   UNL d   1      52.448  34.497  53.391  0.00  0.00     0.006 A 
ATOM     14  C   UNL d   1      53.639  34.272  54.783  0.00  0.00     0.000 A 
ATOM     15  C   UNL d   1      52.740  35.057  53.901  0.00  0.00     0.001 A 
ATOM     16  C   UNL d   1      53.272  34.965  54.525  0.00  0.00     0.000 A 
ENDROOT
BRANCH   4  17
ATOM     17  C   UNL d   1      53.750  30.370  53.848  0.00  0.00     0.085 C 
ATOM     18  C   UNL d   1      53.318  29.796  54.243  0.00  0.00     0.021 C 
ENDBRANCH   4  17
TORSDOF 1
ENDMDL
MODEL 3
REMARK VINA RESULT:      -9.6      1.312      2.032
REMARK  1 active torsions:
REMARK  status: ('A' for Active; 'I' for Inactive)
REMARK    1  A    between atoms: C_12  and  N_4 
ROOT
ATOM      1  C   UNL d   1      53.371  32.408  53.952  0.00  0.00     0.081 A 
ATOM      2  C   UNL d   1      52.921  32.848  53.471  0.00  0.00     0.118 A 
ATOM      3  C   UNL d   1      53.813  32.768  54.557  0.00  0.00     0.268 A 
ATOM      4  N   UNL d   1      53.774  33.582  54.646  0.00  0.00    -0.249 N 
ATOM      5  N   UNL d   1      52.885  33.654  53.564  0.00  0.00    -0.212 NA
ATOM      6  C   UNL d   1      53.329  34.032  54.174  0.00  0.00     0.209 A 
ATOM      7  S   UNL d   1      52.530  32.383  52.911  0.00  0.00    -0.068 SA
ATOM      8  C   UNL d   1      53.279  31.618  53.704  0.00  0.00     0.013 A 
ATOM      9  C   UNL d   1      52.752  31.597  53.051  0.00  0.00     0.031 A 
ATOM     10  S   UNL d   1      53.317  34.854  54.299  0.00  0.00    -0.038 SA
ATOM     11  O   UNL d   1      54.290  32.329  55.070  0.00  0.00    -0.267 OA
ATOM     12  C   UNL d   1      53.677  31.039  54.097  0.00  0.00     0.001 A 
ATOM     13  C   UNL d   1      52.520  30.920  52.652  0.00  0.00     0.006 A 
ATOM     14  C   UNL d   1      53.652  30.216  53.927  0.00  0.00     0.000 A 
ATOM     15  C   UNL d   1      52.724  30.143  52.772  0.00  0.00     0.001 A 
ATOM     16  C   UNL d   1      53.229  29.821  53.339  0.00  0.00     0.000 A 
ENDROOT
BRANCH   4  17
ATOM     17  C   UNL d   1      54.222  33.959  55.262  0.00  0.00     0.085 C 
ATOM     18  C   UNL d   1      55.035  34.030  55.185  0.00  0.00     0.021 C 
ENDBRANCH   4  17
TORSDOF 1
ENDMDL
MODEL 4
REMARK VINA RESULT:      -7.9      1.810      2.486
REMARK  1 active torsions:
REMARK  status: ('A' for Active; 'I' for Inactive)
REMARK    1  A    between atoms: C_12  and  N_4 
ROOT
ATOM      1  C   UNL d   1      52.608  33.785  53.519  0.00  0.00     0.081 A 
ATOM      2  C   UNL d   1      52.580  33.174  53.015  0.00  0.00     0.118 A 
ATOM      3  C   UNL d   1      52.019  34.370  53.501  0.00  0.00     0.268 A 
ATOM      4  N   UNL d   1      51.412  34.305  52.954  0.00  0.00    -0.249 N 
ATOM      5  N   UNL d   1      51.977  33.114  52.475  0.00  0.00    -0.212 NA
ATOM      6  C   UNL d   1      51.372  33.702  52.446  0.00  0.00     0.209 A 
ATOM      7  S   UNL d   1      53.215  32.658  53.126  0.00  0.00    -0.068 SA
ATOM      8  C   UNL d   1      53.289  33.673  53.987  0.00  0.00     0.013 A 
ATOM      9  C   UNL d   1      53.673  32.967  53.744  0.00  0.00     0.031 A 
ATOM     10  S   UNL d   1      50.739  33.674  51.907  0.00  0.00    -0.038 SA
ATOM     11  O   UNL d   1      52.028  35.016  54.017  0.00  0.00    -0.267 OA
ATOM     12  C   UNL d   1      53.462  34.216  54.556  0.00  0.00     0.001 A 
ATOM     13  C   UNL d   1      54.363  32.668  54.071  0.00  0.00     0.006 A 
ATOM     14  C   UNL d   1      54.121  34.195  55.077  0.00  0.00     0.000 A 
ATOM     15  C   UNL d   1      54.826  32.954  54.674  0.00  0.00     0.001 A 
ATOM     16  C   UNL d   1      54.725  33.635  55.128  0.00  0.00     0.000 A 
ENDROOT
BRANCH   4  17
ATOM     17  C   UNL d   1      50.806  34.899  52.927  0.00  0.00     0.085 C 
ATOM     18  C   UNL d   1      50.056  34.725  53.211  0.00  0.00     0.021 C 
ENDBRANCH   4  17
TORSDOF 1
ENDMDL
MODEL 5
REMARK VINA RESULT:      -7.6      0.896      3.180
REMARK  1 active torsions:
REMARK  status: ('A' for Active; 'I' for Inactive)
REMARK    1  A    between atoms: C_12  and  N_4 
ROOT
ATOM      1  C   UNL d   1      52.511  33.268  53.256  0.00  0.00     0.081 A 
ATOM      2  C   UNL d   1      52.942  33.826  53.618  0.00  0.00     0.118 A 
ATOM      3  C   UNL d   1      52.830  32.513  53.123  0.00  0.00     0.268 A 
ATOM      4  N   UNL d   1      53.595  32.357  53.372  0.00  0.00    -0.249 N 
ATOM      5  N   UNL d   1      53.699  33.666  53.863  0.00  0.00    -0.212 NA
ATOM      6  C   UNL d   1      54.036  32.903  53.733  0.00  0.00     0.209 A 
ATOM      7  S   UNL d   1      52.522  34.533  53.696  0.00  0.00    -0.068 SA
ATOM      8  C   UNL d   1      51.772  33.616  53.084  0.00  0.00     0.013 A 
ATOM      9  C   UNL d   1      51.775  34.410  53.358  0.00  0.00     0.031 A 
ATOM     10  S   UNL d   1      54.807  32.702  53.969  0.00  0.00    -0.038 SA
ATOM     11  O   UNL d   1      52.398  31.916  52.747  0.00  0.00    -0.267 OA
ATOM     12  C   UNL d   1      51.213  33.173  52.711  0.00  0.00     0.001 A 
ATOM     13  C   UNL d   1      51.149  34.935  53.291  0.00  0.00     0.006 A 
ATOM     14  C   UNL d   1      50.442  33.429  52.494  0.00  0.00     0.000 A 
ATOM     15  C   UNL d   1      50.412  34.835  52.966  0.00  0.00     0.001 A 
ATOM     16  C   UNL d   1      50.089  34.166  52.608  0.00  0.00     0.000 A 
ENDROOT
BRANCH   4  17
ATOM     17  C   UNL d   1      53.930  31.587  53.239  0.00  0.00     0.085 C 
ATOM     18  C   UNL d   1      53.720  30.965  53.730  0.00  0.00     0.021 C 
ENDBRANCH   4  17
TORSDOF 1
ENDMDL
