MODEL 1
REMARK VINA RESULT:      59.3      0.000      0.000
REMARK  3 active torsions:
REMARK  status: ('A' for Active; 'I' for Inactive)
REMARK    1  A    between atoms: C_9  and  C_4 
REMARK    2  A    between atoms: C_10  and  C_7 
REMARK    3  A    between atoms: C_13  and  C_10 
ROOT
ATOM      1  C   UNL d   1     -50.057  26.259  33.568  0.00  0.00     0.179 A 
ATOM      2  N   UNL d   1     -50.648  26.842  33.545  0.00  0.00    -0.282 N 
ATOM      3  N   UNL d   1     -50.417  25.522  33.529  0.00  0.00    -0.221 NA
ATOM      4  C   UNL d   1     -51.241  25.645  33.483  0.00  0.00     0.101 A 
ATOM      5  S   UNL d   1     -49.326  26.637  33.620  0.00  0.00    -0.048 SA
ATOM      6  C   UNL d   1     -51.375  26.454  33.493  0.00  0.00     0.101 A 
ATOM      7  C   UNL d   1     -49.467  27.454  33.630  0.00  0.00     0.050 A 
ATOM      8  C   UNL d   1     -50.273  27.571  33.584  0.00  0.00     0.089 A 
ENDROOT
BRANCH   7   9
ATOM      9  C   UNL d   1     -48.880  28.037  33.678  0.00  0.00     0.008 C 
BRANCH   9  10
ATOM     10  C   UNL d   1     -48.655  28.343  34.403  0.00  0.00     0.001 A 
ATOM     11  C   UNL d   1     -48.885  27.957  35.104  0.00  0.00     0.002 A 
ATOM     12  C   UNL d   1     -48.656  28.269  35.838  0.00  0.00     0.030 A 
ATOM     13  C   UNL d   1     -48.202  28.956  35.873  0.00  0.00     0.140 A 
ATOM     14  C   UNL d   1     -47.974  29.339  35.178  0.00  0.00     0.030 A 
ATOM     15  F   UNL d   1     -47.968  29.276  36.592  0.00  0.00    -0.204 F 
ATOM     16  C   UNL d   1     -48.201  29.030  34.445  0.00  0.00     0.002 A 
ENDBRANCH   9  10
ENDBRANCH   7   9
BRANCH   4  17
ATOM     17  C   UNL d   1     -51.810  25.056  33.435  0.00  0.00     0.019 A 
ATOM     18  C   UNL d   1     -52.598  25.265  33.354  0.00  0.00     0.004 A 
ATOM     19  C   UNL d   1     -53.183  24.680  33.305  0.00  0.00     0.030 A 
ATOM     20  C   UNL d   1     -52.963  23.882  33.339  0.00  0.00     0.140 A 
ATOM     21  C   UNL d   1     -52.174  23.672  33.420  0.00  0.00     0.030 A 
ATOM     22  F   UNL d   1     -53.404  23.188  33.306  0.00  0.00    -0.204 F 
ATOM     23  C   UNL d   1     -51.595  24.255  33.469  0.00  0.00     0.004 A 
ENDBRANCH   4  17
TORSDOF 3
ENDMDL
MODEL 2
REMARK VINA RESULT:      59.7      0.927      5.391
REMARK  3 active torsions:
REMARK  status: ('A' for Active; 'I' for Inactive)
REMARK    1  A    between atoms: C_9  and  C_4 
REMARK    2  A    between atoms: C_10  and  C_7 
REMARK    3  A    between atoms: C_13  and  C_10 
ROOT
ATOM      1  C   UNL d   1     -50.642  26.066  34.000  0.00  0.00     0.179 A 
ATOM      2  N   UNL d   1     -49.947  25.758  33.665  0.00  0.00    -0.282 N 
ATOM      3  N   UNL d   1     -50.478  26.811  34.301  0.00  0.00    -0.221 NA
ATOM      4  C   UNL d   1     -49.672  26.973  34.154  0.00  0.00     0.101 A 
ATOM      5  S   UNL d   1     -51.241  25.506  33.905  0.00  0.00    -0.048 SA
ATOM      6  C   UNL d   1     -49.354  26.324  33.765  0.00  0.00     0.101 A 
ATOM      7  C   UNL d   1     -50.914  24.854  33.512  0.00  0.00     0.050 A 
ATOM      8  C   UNL d   1     -50.127  25.014  33.369  0.00  0.00     0.089 A 
ENDROOT
BRANCH   7   9
ATOM      9  C   UNL d   1     -51.328  24.166  33.307  0.00  0.00     0.008 C 
BRANCH   9  10
ATOM     10  C   UNL d   1     -52.144  24.139  33.360  0.00  0.00     0.001 A 
ATOM     11  C   UNL d   1     -52.585  24.844  33.315  0.00  0.00     0.002 A 
ATOM     12  C   UNL d   1     -53.412  24.814  33.370  0.00  0.00     0.030 A 
ATOM     13  C   UNL d   1     -53.796  24.092  33.468  0.00  0.00     0.140 A 
ATOM     14  C   UNL d   1     -53.359  23.392  33.513  0.00  0.00     0.030 A 
ATOM     15  F   UNL d   1     -54.614  24.047  33.524  0.00  0.00    -0.204 F 
ATOM     16  C   UNL d   1     -52.534  23.419  33.459  0.00  0.00     0.002 A 
ENDBRANCH   9  10
ENDBRANCH   7   9
BRANCH   4  17
ATOM     17  C   UNL d   1     -49.277  27.659  34.364  0.00  0.00     0.019 A 
ATOM     18  C   UNL d   1     -49.494  28.369  34.017  0.00  0.00     0.004 A 
ATOM     19  C   UNL d   1     -49.101  29.071  34.220  0.00  0.00     0.030 A 
ATOM     20  C   UNL d   1     -48.489  29.047  34.777  0.00  0.00     0.140 A 
ATOM     21  C   UNL d   1     -48.271  28.336  35.124  0.00  0.00     0.030 A 
ATOM     22  F   UNL d   1     -48.005  29.635  35.087  0.00  0.00    -0.204 F 
ATOM     23  C   UNL d   1     -48.662  27.641  34.921  0.00  0.00     0.004 A 
ENDBRANCH   4  17
TORSDOF 3
ENDMDL
MODEL 3
REMARK VINA RESULT:      61.5      1.199      5.478
REMARK  3 active torsions:
REMARK  status: ('A' for Active; 'I' for Inactive)
REMARK    1  A    between atoms: C_9  and  C_4 
REMARK    2  A    between atoms: C_10  and  C_7 
REMARK    3  A    between atoms: C_13  and  C_10 
ROOT
ATOM      1  C   UNL d   1     -49.855  27.814  34.573  0.00  0.00     0.179 A 
ATOM      2  N   UNL d   1     -49.250  27.559  34.063  0.00  0.00    -0.282 N 
ATOM      3  N   UNL d   1     -49.534  28.346  35.109  0.00  0.00    -0.221 NA
ATOM      4  C   UNL d   1     -48.722  28.424  34.935  0.00  0.00     0.101 A 
ATOM      5  S   UNL d   1     -50.554  27.438  34.349  0.00  0.00    -0.048 SA
ATOM      6  C   UNL d   1     -48.556  27.940  34.294  0.00  0.00     0.101 A 
ATOM      7  C   UNL d   1     -50.380  26.951  33.702  0.00  0.00     0.050 A 
ATOM      8  C   UNL d   1     -49.586  27.029  33.533  0.00  0.00     0.089 A 
ENDROOT
BRANCH   7   9
ATOM      9  C   UNL d   1     -50.929  26.473  33.306  0.00  0.00     0.008 C 
BRANCH   9  10
ATOM     10  C   UNL d   1     -50.873  25.657  33.340  0.00  0.00     0.001 A 
ATOM     11  C   UNL d   1     -51.564  25.196  33.398  0.00  0.00     0.002 A 
ATOM     12  C   UNL d   1     -51.504  24.370  33.433  0.00  0.00     0.030 A 
ATOM     13  C   UNL d   1     -50.765  24.006  33.409  0.00  0.00     0.140 A 
ATOM     14  C   UNL d   1     -50.079  24.462  33.351  0.00  0.00     0.030 A 
ATOM     15  F   UNL d   1     -50.691  23.189  33.442  0.00  0.00    -0.204 F 
ATOM     16  C   UNL d   1     -50.136  25.287  33.316  0.00  0.00     0.002 A 
ENDBRANCH   9  10
ENDBRANCH   7   9
BRANCH   4  17
ATOM     17  C   UNL d   1     -48.191  28.902  35.337  0.00  0.00     0.019 A 
ATOM     18  C   UNL d   1     -47.580  29.260  34.923  0.00  0.00     0.004 A 
ATOM     19  C   UNL d   1     -47.036  29.745  35.318  0.00  0.00     0.030 A 
ATOM     20  C   UNL d   1     -47.116  29.865  36.134  0.00  0.00     0.140 A 
ATOM     21  C   UNL d   1     -47.727  29.508  36.547  0.00  0.00     0.030 A 
ATOM     22  F   UNL d   1     -46.675  30.306  36.670  0.00  0.00    -0.204 F 
ATOM     23  C   UNL d   1     -48.266  29.026  36.154  0.00  0.00     0.004 A 
ENDBRANCH   4  17
TORSDOF 3
ENDMDL
