MODEL 1
REMARK VINA RESULT:      56.1      0.000      0.000
REMARK  5 active torsions:
REMARK  status: ('A' for Active; 'I' for Inactive)
REMARK       I    between atoms: C_3  and  N_1 
REMARK    1  A    between atoms: S_7  and  C_2 
REMARK    2  A    between atoms: C_6  and  C_3 
REMARK    3  A    between atoms: N_4  and  C_8 
REMARK    4  A    between atoms: C_17  and  S_7 
REMARK    5  A    between atoms: C_18  and  C_17 
ROOT
ATOM      1  N   UNL d   1     -56.159 -99.746 -44.447  0.00  0.00    -0.251 N 
ATOM      2  C   UNL d   1     -55.427-100.121 -44.549  0.00  0.00     0.182 A 
ATOM      3  C   UNL d   1     -56.897-100.113 -44.420  0.00  0.00     0.266 C 
ATOM      4  N   UNL d   1     -54.846 -99.542 -44.541  0.00  0.00    -0.219 NA
ATOM      5  O   UNL d   1     -56.957-100.934 -44.499  0.00  0.00    -0.267 OA
ATOM      6  C   UNL d   1     -56.022 -98.927 -44.375  0.00  0.00     0.106 A 
ATOM      7  C   UNL d   1     -55.204 -98.806 -44.434  0.00  0.00     0.120 A 
ENDROOT
BRANCH   2   8
ATOM      8  S   UNL d   1     -55.317-100.931 -44.642  0.00  0.00    -0.049 SA
BRANCH   8   9
ATOM      9  C   UNL d   1     -54.726-101.312 -44.224  0.00  0.00     0.038 C 
BRANCH   9  10
ATOM     10  C   UNL d   1     -54.871-101.587 -43.465  0.00  0.00     0.007 A 
ATOM     11  C   UNL d   1     -54.713-101.099 -42.811  0.00  0.00     0.002 A 
ATOM     12  C   UNL d   1     -54.859-101.378 -42.046  0.00  0.00     0.024 A 
ATOM     13  C   UNL d   1     -55.159-102.135 -41.939  0.00  0.00     0.127 A 
ATOM     14  C   UNL d   1     -55.317-102.621 -42.581  0.00  0.00     0.024 A 
ATOM     15  C   UNL d   1     -55.172-102.343 -43.344  0.00  0.00     0.002 A 
BRANCH  13  16
ATOM     16  N   UNL d   1     -55.303-102.407 -41.169  0.00  0.00    -0.114 N 
ATOM     17  O   UNL d   1     -54.712-102.332 -40.576  0.00  0.00    -0.532 OA
ATOM     18  O   UNL d   1     -56.032-102.759 -40.970  0.00  0.00    -0.532 OA
ENDBRANCH  13  16
ENDBRANCH   9  10
ENDBRANCH   8   9
ENDBRANCH   2   8
BRANCH   3  19
ATOM     19  C   UNL d   1     -57.584 -99.659 -44.313  0.00  0.00     0.057 A 
ATOM     20  C   UNL d   1     -58.061 -99.479 -44.968  0.00  0.00     0.005 A 
ATOM     21  C   UNL d   1     -58.739 -99.027 -44.849  0.00  0.00     0.000 A 
ATOM     22  C   UNL d   1     -59.216 -98.846 -45.500  0.00  0.00     0.000 C 
ATOM     23  C   UNL d   1     -58.941 -98.759 -44.091  0.00  0.00     0.000 A 
ATOM     24  C   UNL d   1     -58.465 -98.940 -43.448  0.00  0.00     0.000 A 
ATOM     25  C   UNL d   1     -57.785 -99.391 -43.559  0.00  0.00     0.005 A 
ENDBRANCH   3  19
TORSDOF 5
ENDMDL
