MODEL 1
REMARK VINA RESULT:      24.6      0.000      0.000
REMARK  5 active torsions:
REMARK  status: ('A' for Active; 'I' for Inactive)
REMARK    1  A    between atoms: C_11  and  C_4 
REMARK    2  A    between atoms: N_10  and  C_6 
REMARK    3  A    between atoms: C_13  and  C_9 
REMARK    4  A    between atoms: C_14  and  N_10 
REMARK    5  A    between atoms: C_15  and  C_14 
ROOT
ATOM      1  C   UNL d   1      46.155 -18.291  43.187  0.00  0.00     0.167 A 
ATOM      2  N   UNL d   1      46.050 -17.600  43.616  0.00  0.00    -0.195 N 
ATOM      3  N   UNL d   1      46.236 -16.845  42.445  0.00  0.00    -0.163 NA
ATOM      4  C   UNL d   1      46.298 -18.254  42.401  0.00  0.00     0.055 A 
ATOM      5  N   UNL d   1      46.113 -19.005  43.566  0.00  0.00    -0.227 NA
ATOM      6  C   UNL d   1      45.906 -17.647  44.409  0.00  0.00     0.167 A 
ATOM      7  C   UNL d   1      46.341 -17.536  42.016  0.00  0.00     0.104 A 
ATOM      8  C   UNL d   1      45.865 -18.388  44.792  0.00  0.00     0.058 A 
ATOM      9  C   UNL d   1      45.970 -19.044  44.355  0.00  0.00     0.086 A 
ATOM     10  C   UNL d   1      46.483 -17.501  41.233  0.00  0.00     0.023 C 
ENDROOT
BRANCH   6  11
ATOM     11  N   UNL d   1      45.798 -16.940  44.854  0.00  0.00    -0.224 NA
BRANCH  11  12
ATOM     12  C   UNL d   1      45.264 -16.298  44.954  0.00  0.00     0.120 C 
BRANCH  12  13
ATOM     13  C   UNL d   1      45.482 -15.523  44.723  0.00  0.00     0.101 A 
ATOM     14  N   UNL d   1      46.281 -15.269  44.803  0.00  0.00    -0.242 NA
ATOM     15  C   UNL d   1      46.500 -14.494  44.572  0.00  0.00     0.099 A 
ATOM     16  C   UNL d   1      45.916 -13.971  44.260  0.00  0.00     0.021 A 
ATOM     17  C   UNL d   1      45.115 -14.223  44.179  0.00  0.00     0.003 A 
ATOM     18  C   UNL d   1      44.903 -15.002  44.413  0.00  0.00     0.021 A 
ENDBRANCH  12  13
ENDBRANCH  11  12
ENDBRANCH   6  11
BRANCH   9  19
ATOM     19  C   UNL d   1      45.926 -19.799  44.749  0.00  0.00     0.018 C 
ATOM     20  C   UNL d   1      45.160 -20.128  44.936  0.00  0.00     0.002 C 
ATOM     21  C   UNL d   1      46.637 -20.216  44.953  0.00  0.00     0.002 C 
ENDBRANCH   9  19
BRANCH   4  22
ATOM     22  C   UNL d   1      46.404 -18.952  41.968  0.00  0.00     0.004 A 
ATOM     23  C   UNL d   1      46.369 -18.934  41.161  0.00  0.00     0.000 A 
ATOM     24  C   UNL d   1      46.473 -19.623  40.734  0.00  0.00     0.000 A 
ATOM     25  C   UNL d   1      46.610 -20.314  41.122  0.00  0.00     0.000 A 
ATOM     26  C   UNL d   1      46.645 -20.329  41.938  0.00  0.00     0.000 A 
ATOM     27  C   UNL d   1      46.541 -19.647  42.351  0.00  0.00     0.000 A 
ENDBRANCH   4  22
TORSDOF 5
ENDMDL
