MODEL 1
REMARK VINA RESULT:      35.5      0.000      0.000
REMARK  5 active torsions:
REMARK  status: ('A' for Active; 'I' for Inactive)
REMARK    1  A    between atoms: C_5  and  N_1 
REMARK    2  A    between atoms: C_8  and  C_3 
REMARK    3  A    between atoms: C_7  and  C_4 
REMARK    4  A    between atoms: N_12  and  C_5 
REMARK    5  A    between atoms: N_11  and  C_10 
ROOT
ATOM      1  N   UNL d   1      46.041 -17.935  43.697  0.00  0.00    -0.203 N 
ATOM      2  N   UNL d   1      46.168 -18.513  43.138  0.00  0.00    -0.163 NA
ATOM      3  C   UNL d   1      46.179 -18.182  42.408  0.00  0.00     0.103 A 
ATOM      4  C   UNL d   1      45.968 -17.202  43.307  0.00  0.00     0.087 A 
ATOM      5  C   UNL d   1      46.056 -17.362  42.495  0.00  0.00     0.040 A 
ENDROOT
BRANCH   4   6
ATOM      6  C   UNL d   1      45.836 -16.456  43.634  0.00  0.00     0.018 A 
ATOM      7  C   UNL d   1      45.555 -16.384  44.380  0.00  0.00     0.003 A 
ATOM      8  C   UNL d   1      45.421 -15.635  44.711  0.00  0.00     0.018 A 
ATOM      9  C   UNL d   1      45.583 -14.964  44.259  0.00  0.00     0.064 A 
ATOM     10  C   UNL d   1      45.870 -15.029  43.498  0.00  0.00     0.018 A 
ATOM     11  C   UNL d   1      45.997 -15.785  43.184  0.00  0.00     0.003 A 
BRANCH   9  12
ATOM     12  N   UNL d   1      45.456 -14.232  44.574  0.00  0.00    -0.301 N 
ATOM     13  C   UNL d   1      44.710 -13.931  44.581  0.00  0.00     0.100 C 
ATOM     14  C   UNL d   1      46.081 -13.809  44.879  0.00  0.00     0.100 C 
ENDBRANCH   9  12
ENDBRANCH   4   6
BRANCH   1  15
ATOM     15  C   UNL d   1      45.993 -18.059  44.525  0.00  0.00     0.222 C 
ATOM     16  S   UNL d   1      45.379 -17.690  44.954  0.00  0.00    -0.037 SA
BRANCH  15  17
ATOM     17  N   UNL d   1      46.555 -18.546  44.912  0.00  0.00    -0.214 NA
ATOM     18  C   UNL d   1      46.450 -19.375  44.947  0.00  0.00     0.122 C 
ENDBRANCH  15  17
ENDBRANCH   1  15
BRANCH   3  19
ATOM     19  C   UNL d   1      46.294 -18.602  41.717  0.00  0.00     0.019 A 
ATOM     20  C   UNL d   1      46.431 -19.417  41.765  0.00  0.00     0.002 A 
ATOM     21  C   UNL d   1      46.547 -19.848  41.085  0.00  0.00     0.000 A 
ATOM     22  C   UNL d   1      46.528 -19.473  40.349  0.00  0.00     0.000 A 
ATOM     23  C   UNL d   1      46.389 -18.648  40.302  0.00  0.00     0.000 A 
ATOM     24  C   UNL d   1      46.646 -19.913  39.661  0.00  0.00     0.000 C 
ATOM     25  C   UNL d   1      46.274 -18.230  41.001  0.00  0.00     0.002 A 
ENDBRANCH   3  19
TORSDOF 5
ENDMDL
