MODEL 1
REMARK VINA RESULT:      -8.5      0.000      0.000
REMARK  4 active torsions:
REMARK  status: ('A' for Active; 'I' for Inactive)
REMARK    1  A    between atoms: S_11  and  C_4 
REMARK       I    between atoms: N_8  and  C_10 
REMARK    2  A    between atoms: C_20  and  N_9 
REMARK    3  A    between atoms: C_10  and  C_15 
REMARK    4  A    between atoms: C_15  and  S_11 
ROOT
ATOM      1  N   UNL d   1      51.282  34.049  52.759  0.00  0.00    -0.269 N 
ATOM      2  N   UNL d   1      52.569  33.687  53.717  0.00  0.00    -0.301 N 
ATOM      3  C   UNL d   1      50.637  34.231  52.279  0.00  0.00     0.272 C 
ATOM      4  C   UNL d   1      51.260  34.230  53.564  0.00  0.00     0.102 A 
ATOM      5  C   UNL d   1      51.949  33.687  52.434  0.00  0.00     0.102 A 
ATOM      6  C   UNL d   1      52.591  33.507  52.912  0.00  0.00     0.100 A 
ATOM      7  C   UNL d   1      51.903  34.049  54.042  0.00  0.00     0.100 A 
ATOM      8  O   UNL d   1      50.658  34.051  51.473  0.00  0.00    -0.266 OA
ENDROOT
BRANCH   3   9
ATOM      9  C   UNL d   1      49.969  34.593  52.603  0.00  0.00     0.099 C 
BRANCH   9  10
ATOM     10  S   UNL d   1      49.355  34.843  52.111  0.00  0.00    -0.044 SA
BRANCH  10  11
ATOM     11  C   UNL d   1      48.692  35.225  52.442  0.00  0.00     0.182 A 
ATOM     12  N   UNL d   1      48.685  35.417  53.253  0.00  0.00    -0.222 NA
ATOM     13  C   UNL d   1      48.038  35.791  53.575  0.00  0.00     0.095 A 
ATOM     14  C   UNL d   1      47.387  35.981  53.104  0.00  0.00     0.104 A 
ATOM     15  C   UNL d   1      47.880  36.042  54.344  0.00  0.00     0.026 A 
ATOM     16  C   UNL d   1      47.385  35.798  52.311  0.00  0.00     0.274 A 
ATOM     17  S   UNL d   1      46.829  36.350  53.583  0.00  0.00    -0.081 SA
ATOM     18  N   UNL d   1      48.042  35.416  51.971  0.00  0.00    -0.251 N 
ATOM     19  O   UNL d   1      46.735  35.989  51.840  0.00  0.00    -0.266 OA
ATOM     20  C   UNL d   1      48.044  35.227  51.161  0.00  0.00     0.104 C 
ATOM     21  C   UNL d   1      47.139  36.386  54.351  0.00  0.00     0.031 A 
ATOM     22  C   UNL d   1      46.771  36.709  55.014  0.00  0.00     0.007 C 
ENDBRANCH  10  11
ENDBRANCH   9  10
ENDBRANCH   3   9
BRANCH   2  23
ATOM     23  C   UNL d   1      53.215  33.505  54.198  0.00  0.00     0.064 A 
ATOM     24  C   UNL d   1      53.628  34.109  54.581  0.00  0.00     0.018 A 
ATOM     25  C   UNL d   1      54.273  33.927  55.061  0.00  0.00     0.002 A 
ATOM     26  C   UNL d   1      54.506  33.142  55.159  0.00  0.00     0.000 A 
ATOM     27  C   UNL d   1      54.094  32.537  54.777  0.00  0.00     0.002 A 
ATOM     28  C   UNL d   1      53.448  32.719  54.297  0.00  0.00     0.018 A 
ENDBRANCH   2  23
TORSDOF 4
ENDMDL
MODEL 2
REMARK VINA RESULT:      -8.5      1.705      5.831
REMARK  4 active torsions:
REMARK  status: ('A' for Active; 'I' for Inactive)
REMARK    1  A    between atoms: S_11  and  C_4 
REMARK       I    between atoms: N_8  and  C_10 
REMARK    2  A    between atoms: C_20  and  N_9 
REMARK    3  A    between atoms: C_10  and  C_15 
REMARK    4  A    between atoms: C_15  and  S_11 
ROOT
ATOM      1  N   UNL d   1      50.119  34.559  52.480  0.00  0.00    -0.269 N 
ATOM      2  N   UNL d   1      48.792  35.417  52.935  0.00  0.00    -0.301 N 
ATOM      3  C   UNL d   1      50.785  34.128  52.253  0.00  0.00     0.272 C 
ATOM      4  C   UNL d   1      50.010  34.759  53.273  0.00  0.00     0.102 A 
ATOM      5  C   UNL d   1      49.564  34.788  51.915  0.00  0.00     0.102 A 
ATOM      6  C   UNL d   1      48.901  35.217  52.142  0.00  0.00     0.100 A 
ATOM      7  C   UNL d   1      49.347  35.188  53.500  0.00  0.00     0.100 A 
ATOM      8  O   UNL d   1      50.895  33.927  51.459  0.00  0.00    -0.266 OA
ENDROOT
BRANCH   3   9
ATOM      9  C   UNL d   1      51.341  33.898  52.818  0.00  0.00     0.099 C 
BRANCH   9  10
ATOM     10  S   UNL d   1      51.857  33.273  52.659  0.00  0.00    -0.044 SA
BRANCH  10  11
ATOM     11  C   UNL d   1      52.490  33.119  53.178  0.00  0.00     0.182 A 
ATOM     12  N   UNL d   1      52.845  33.746  53.598  0.00  0.00    -0.222 NA
ATOM     13  C   UNL d   1      53.464  33.596  54.105  0.00  0.00     0.095 A 
ATOM     14  C   UNL d   1      53.743  32.826  54.208  0.00  0.00     0.104 A 
ATOM     15  C   UNL d   1      53.911  34.097  54.583  0.00  0.00     0.026 A 
ATOM     16  C   UNL d   1      53.403  32.207  53.802  0.00  0.00     0.274 A 
ATOM     17  S   UNL d   1      54.362  32.852  54.748  0.00  0.00    -0.081 SA
ATOM     18  N   UNL d   1      52.769  32.350  53.281  0.00  0.00    -0.251 N 
ATOM     19  O   UNL d   1      53.682  31.438  53.905  0.00  0.00    -0.266 OA
ATOM     20  C   UNL d   1      52.420  31.721  52.865  0.00  0.00     0.104 C 
ATOM     21  C   UNL d   1      54.463  33.642  54.978  0.00  0.00     0.031 A 
ATOM     22  C   UNL d   1      55.021  33.931  55.513  0.00  0.00     0.007 C 
ENDBRANCH  10  11
ENDBRANCH   9  10
ENDBRANCH   3   9
BRANCH   2  23
ATOM     23  C   UNL d   1      48.126  35.848  53.163  0.00  0.00     0.064 A 
ATOM     24  C   UNL d   1      47.516  35.982  52.622  0.00  0.00     0.018 A 
ATOM     25  C   UNL d   1      46.850  36.412  52.850  0.00  0.00     0.002 A 
ATOM     26  C   UNL d   1      46.794  36.709  53.618  0.00  0.00     0.000 A 
ATOM     27  C   UNL d   1      47.403  36.576  54.159  0.00  0.00     0.002 A 
ATOM     28  C   UNL d   1      48.069  36.145  53.931  0.00  0.00     0.018 A 
ENDBRANCH   2  23
TORSDOF 4
ENDMDL
MODEL 3
REMARK VINA RESULT:      -7.8      1.768      5.990
REMARK  4 active torsions:
REMARK  status: ('A' for Active; 'I' for Inactive)
REMARK    1  A    between atoms: S_11  and  C_4 
REMARK       I    between atoms: N_8  and  C_10 
REMARK    2  A    between atoms: C_20  and  N_9 
REMARK    3  A    between atoms: C_10  and  C_15 
REMARK    4  A    between atoms: C_15  and  S_11 
ROOT
ATOM      1  N   UNL d   1      49.776  34.653  52.145  0.00  0.00    -0.269 N 
ATOM      2  N   UNL d   1      48.349  35.410  52.451  0.00  0.00    -0.301 N 
ATOM      3  C   UNL d   1      50.492  34.273  51.992  0.00  0.00     0.272 C 
ATOM      4  C   UNL d   1      49.564  34.833  52.922  0.00  0.00     0.102 A 
ATOM      5  C   UNL d   1      49.273  34.851  51.522  0.00  0.00     0.102 A 
ATOM      6  C   UNL d   1      48.561  35.230  51.675  0.00  0.00     0.100 A 
ATOM      7  C   UNL d   1      48.851  35.212  53.075  0.00  0.00     0.100 A 
ATOM      8  O   UNL d   1      50.705  34.091  51.215  0.00  0.00    -0.266 OA
ENDROOT
BRANCH   3   9
ATOM      9  C   UNL d   1      50.996  34.073  52.615  0.00  0.00     0.099 C 
BRANCH   9  10
ATOM     10  S   UNL d   1      51.814  34.132  52.519  0.00  0.00    -0.044 SA
BRANCH  10  11
ATOM     11  C   UNL d   1      52.313  33.577  52.890  0.00  0.00     0.182 A 
ATOM     12  N   UNL d   1      52.245  32.767  52.704  0.00  0.00    -0.222 NA
ATOM     13  C   UNL d   1      52.732  32.225  53.067  0.00  0.00     0.095 A 
ATOM     14  C   UNL d   1      53.294  32.472  53.619  0.00  0.00     0.104 A 
ATOM     15  C   UNL d   1      52.788  31.407  52.992  0.00  0.00     0.026 A 
ATOM     16  C   UNL d   1      53.367  33.260  53.808  0.00  0.00     0.274 A 
ATOM     17  S   UNL d   1      53.696  31.805  53.885  0.00  0.00    -0.081 SA
ATOM     18  N   UNL d   1      52.874  33.823  53.442  0.00  0.00    -0.251 N 
ATOM     19  O   UNL d   1      53.929  33.507  54.360  0.00  0.00    -0.266 OA
ATOM     20  C   UNL d   1      52.946  34.629  53.632  0.00  0.00     0.104 C 
ATOM     21  C   UNL d   1      53.379  31.147  53.494  0.00  0.00     0.031 A 
ATOM     22  C   UNL d   1      53.612  30.361  53.586  0.00  0.00     0.007 C 
ENDBRANCH  10  11
ENDBRANCH   9  10
ENDBRANCH   3   9
BRANCH   2  23
ATOM     23  C   UNL d   1      47.633  35.790  52.605  0.00  0.00     0.064 A 
ATOM     24  C   UNL d   1      47.576  36.329  53.228  0.00  0.00     0.018 A 
ATOM     25  C   UNL d   1      46.860  36.709  53.381  0.00  0.00     0.002 A 
ATOM     26  C   UNL d   1      46.201  36.550  52.912  0.00  0.00     0.000 A 
ATOM     27  C   UNL d   1      46.256  36.012  52.289  0.00  0.00     0.002 A 
ATOM     28  C   UNL d   1      46.972  35.632  52.136  0.00  0.00     0.018 A 
ENDBRANCH   2  23
TORSDOF 4
ENDMDL
MODEL 4
REMARK VINA RESULT:      -7.7      1.365      1.729
REMARK  4 active torsions:
REMARK  status: ('A' for Active; 'I' for Inactive)
REMARK    1  A    between atoms: S_11  and  C_4 
REMARK       I    between atoms: N_8  and  C_10 
REMARK    2  A    between atoms: C_20  and  N_9 
REMARK    3  A    between atoms: C_10  and  C_15 
REMARK    4  A    between atoms: C_15  and  S_11 
ROOT
ATOM      1  N   UNL d   1      51.651  33.511  52.798  0.00  0.00    -0.269 N 
ATOM      2  N   UNL d   1      52.403  32.084  53.124  0.00  0.00    -0.301 N 
ATOM      3  C   UNL d   1      51.274  34.226  52.634  0.00  0.00     0.272 C 
ATOM      4  C   UNL d   1      51.209  32.859  53.045  0.00  0.00     0.102 A 
ATOM      5  C   UNL d   1      52.469  33.448  52.714  0.00  0.00     0.102 A 
ATOM      6  C   UNL d   1      52.845  32.736  52.877  0.00  0.00     0.100 A 
ATOM      7  C   UNL d   1      51.584  32.147  53.208  0.00  0.00     0.100 A 
ATOM      8  O   UNL d   1      51.715  34.878  52.386  0.00  0.00    -0.266 OA
ENDROOT
BRANCH   3   9
ATOM      9  C   UNL d   1      50.455  34.289  52.718  0.00  0.00     0.099 C 
BRANCH   9  10
ATOM     10  S   UNL d   1      50.006  34.649  52.125  0.00  0.00    -0.044 SA
BRANCH  10  11
ATOM     11  C   UNL d   1      49.276  35.002  52.318  0.00  0.00     0.182 A 
ATOM     12  N   UNL d   1      49.167  35.344  53.070  0.00  0.00    -0.222 NA
ATOM     13  C   UNL d   1      48.453  35.689  53.259  0.00  0.00     0.095 A 
ATOM     14  C   UNL d   1      47.837  35.702  52.710  0.00  0.00     0.104 A 
ATOM     15  C   UNL d   1      48.193  36.062  53.946  0.00  0.00     0.026 A 
ATOM     16  C   UNL d   1      47.935  35.371  51.973  0.00  0.00     0.274 A 
ATOM     17  S   UNL d   1      47.197  36.084  53.059  0.00  0.00    -0.081 SA
ATOM     18  N   UNL d   1      48.660  35.016  51.769  0.00  0.00    -0.251 N 
ATOM     19  O   UNL d   1      47.319  35.385  51.424  0.00  0.00    -0.266 OA
ATOM     20  C   UNL d   1      48.764  34.676  51.018  0.00  0.00     0.104 C 
ATOM     21  C   UNL d   1      47.422  36.305  53.825  0.00  0.00     0.031 A 
ATOM     22  C   UNL d   1      46.957  36.702  54.378  0.00  0.00     0.007 C 
ENDBRANCH  10  11
ENDBRANCH   9  10
ENDBRANCH   3   9
BRANCH   2  23
ATOM     23  C   UNL d   1      52.780  31.369  53.288  0.00  0.00     0.064 A 
ATOM     24  C   UNL d   1      52.539  30.678  52.906  0.00  0.00     0.018 A 
ATOM     25  C   UNL d   1      52.917  29.963  53.070  0.00  0.00     0.002 A 
ATOM     26  C   UNL d   1      53.535  29.939  53.616  0.00  0.00     0.000 A 
ATOM     27  C   UNL d   1      53.776  30.629  53.999  0.00  0.00     0.002 A 
ATOM     28  C   UNL d   1      53.399  31.344  53.835  0.00  0.00     0.018 A 
ENDBRANCH   2  23
TORSDOF 4
ENDMDL
MODEL 5
REMARK VINA RESULT:      -6.4      9.930     10.599
REMARK  4 active torsions:
REMARK  status: ('A' for Active; 'I' for Inactive)
REMARK    1  A    between atoms: S_11  and  C_4 
REMARK       I    between atoms: N_8  and  C_10 
REMARK    2  A    between atoms: C_20  and  N_9 
REMARK    3  A    between atoms: C_10  and  C_15 
REMARK    4  A    between atoms: C_15  and  S_11 
ROOT
ATOM      1  N   UNL d   1      44.707  26.437  57.768  0.00  0.00    -0.269 N 
ATOM      2  N   UNL d   1      44.698  25.382  56.505  0.00  0.00    -0.301 N 
ATOM      3  C   UNL d   1      44.711  26.965  58.401  0.00  0.00     0.272 C 
ATOM      4  C   UNL d   1      44.726  26.721  56.994  0.00  0.00     0.102 A 
ATOM      5  C   UNL d   1      44.684  25.624  57.910  0.00  0.00     0.102 A 
ATOM      6  C   UNL d   1      44.680  25.098  57.280  0.00  0.00     0.100 A 
ATOM      7  C   UNL d   1      44.721  26.195  56.363  0.00  0.00     0.100 A 
ATOM      8  O   UNL d   1      44.692  26.682  59.176  0.00  0.00    -0.266 OA
ENDROOT
BRANCH   3   9
ATOM      9  C   UNL d   1      44.734  27.779  58.260  0.00  0.00     0.099 C 
BRANCH   9  10
ATOM     10  S   UNL d   1      44.728  28.308  58.894  0.00  0.00    -0.044 SA
BRANCH  10  11
ATOM     11  C   UNL d   1      44.707  29.128  58.745  0.00  0.00     0.182 A 
ATOM     12  N   UNL d   1      44.704  29.408  57.960  0.00  0.00    -0.222 NA
ATOM     13  C   UNL d   1      44.684  30.209  57.816  0.00  0.00     0.095 A 
ATOM     14  C   UNL d   1      44.667  30.747  58.441  0.00  0.00     0.104 A 
ATOM     15  C   UNL d   1      44.676  30.635  57.110  0.00  0.00     0.026 A 
ATOM     16  C   UNL d   1      44.670  30.483  59.211  0.00  0.00     0.274 A 
ATOM     17  S   UNL d   1      44.649  31.504  58.122  0.00  0.00    -0.081 SA
ATOM     18  N   UNL d   1      44.691  29.665  59.371  0.00  0.00    -0.251 N 
ATOM     19  O   UNL d   1      44.654  31.020  59.837  0.00  0.00    -0.266 OA
ATOM     20  C   UNL d   1      44.694  29.392  60.156  0.00  0.00     0.104 C 
ATOM     21  C   UNL d   1      44.655  31.431  57.297  0.00  0.00     0.031 A 
ATOM     22  C   UNL d   1      44.641  32.047  56.748  0.00  0.00     0.007 C 
ENDBRANCH  10  11
ENDBRANCH   9  10
ENDBRANCH   3   9
BRANCH   2  23
ATOM     23  C   UNL d   1      44.694  24.854  55.872  0.00  0.00     0.064 A 
ATOM     24  C   UNL d   1      45.066  24.120  55.944  0.00  0.00     0.018 A 
ATOM     25  C   UNL d   1      45.061  23.591  55.311  0.00  0.00     0.002 A 
ATOM     26  C   UNL d   1      44.686  23.796  54.606  0.00  0.00     0.000 A 
ATOM     27  C   UNL d   1      44.314  24.529  54.533  0.00  0.00     0.002 A 
ATOM     28  C   UNL d   1      44.318  25.058  55.166  0.00  0.00     0.018 A 
ENDBRANCH   2  23
TORSDOF 4
ENDMDL
MODEL 6
REMARK VINA RESULT:      -6.4     10.279     11.040
REMARK  4 active torsions:
REMARK  status: ('A' for Active; 'I' for Inactive)
REMARK    1  A    between atoms: S_11  and  C_4 
REMARK       I    between atoms: N_8  and  C_10 
REMARK    2  A    between atoms: C_20  and  N_9 
REMARK    3  A    between atoms: C_10  and  C_15 
REMARK    4  A    between atoms: C_15  and  S_11 
ROOT
ATOM      1  N   UNL d   1      44.934  27.917  57.763  0.00  0.00    -0.269 N 
ATOM      2  N   UNL d   1      44.781  26.395  57.157  0.00  0.00    -0.301 N 
ATOM      3  C   UNL d   1      45.011  28.680  58.066  0.00  0.00     0.272 C 
ATOM      4  C   UNL d   1      44.674  27.304  58.250  0.00  0.00     0.102 A 
ATOM      5  C   UNL d   1      45.118  27.767  56.972  0.00  0.00     0.102 A 
ATOM      6  C   UNL d   1      45.041  27.008  56.670  0.00  0.00     0.100 A 
ATOM      7  C   UNL d   1      44.597  26.544  57.948  0.00  0.00     0.100 A 
ATOM      8  O   UNL d   1      45.271  29.294  57.579  0.00  0.00    -0.266 OA
ENDROOT
BRANCH   3   9
ATOM      9  C   UNL d   1      44.827  28.830  58.857  0.00  0.00     0.099 C 
BRANCH   9  10
ATOM     10  S   UNL d   1      44.793  29.608  59.132  0.00  0.00    -0.044 SA
BRANCH  10  11
ATOM     11  C   UNL d   1      44.717  29.752  59.950  0.00  0.00     0.182 A 
ATOM     12  N   UNL d   1      44.660  29.113  60.481  0.00  0.00    -0.222 NA
ATOM     13  C   UNL d   1      44.586  29.255  61.280  0.00  0.00     0.095 A 
ATOM     14  C   UNL d   1      44.567  30.028  61.567  0.00  0.00     0.104 A 
ATOM     15  C   UNL d   1      44.519  28.740  61.920  0.00  0.00     0.026 A 
ATOM     16  C   UNL d   1      44.623  30.659  61.056  0.00  0.00     0.274 A 
ATOM     17  S   UNL d   1      44.489  29.990  62.385  0.00  0.00    -0.081 SA
ATOM     18  N   UNL d   1      44.699  30.525  60.237  0.00  0.00    -0.251 N 
ATOM     19  O   UNL d   1      44.604  31.432  61.344  0.00  0.00    -0.266 OA
ATOM     20  C   UNL d   1      44.756  31.167  59.712  0.00  0.00     0.104 C 
ATOM     21  C   UNL d   1      44.460  29.191  62.600  0.00  0.00     0.031 A 
ATOM     22  C   UNL d   1      44.384  28.890  63.364  0.00  0.00     0.007 C 
ENDBRANCH  10  11
ENDBRANCH   9  10
ENDBRANCH   3   9
BRANCH   2  23
ATOM     23  C   UNL d   1      44.704  25.632  56.854  0.00  0.00     0.064 A 
ATOM     24  C   UNL d   1      44.510  25.005  57.355  0.00  0.00     0.018 A 
ATOM     25  C   UNL d   1      44.434  24.242  57.052  0.00  0.00     0.002 A 
ATOM     26  C   UNL d   1      44.551  24.105  56.246  0.00  0.00     0.000 A 
ATOM     27  C   UNL d   1      44.745  24.731  55.744  0.00  0.00     0.002 A 
ATOM     28  C   UNL d   1      44.822  25.494  56.048  0.00  0.00     0.018 A 
ENDBRANCH   2  23
TORSDOF 4
ENDMDL
MODEL 7
REMARK VINA RESULT:      -6.3      9.961     11.255
REMARK  4 active torsions:
REMARK  status: ('A' for Active; 'I' for Inactive)
REMARK    1  A    between atoms: S_11  and  C_4 
REMARK       I    between atoms: N_8  and  C_10 
REMARK    2  A    between atoms: C_20  and  N_9 
REMARK    3  A    between atoms: C_10  and  C_15 
REMARK    4  A    between atoms: C_15  and  S_11 
ROOT
ATOM      1  N   UNL d   1      44.388  28.768  61.235  0.00  0.00    -0.269 N 
ATOM      2  N   UNL d   1      44.362  30.005  62.320  0.00  0.00    -0.301 N 
ATOM      3  C   UNL d   1      44.401  28.148  60.691  0.00  0.00     0.272 C 
ATOM      4  C   UNL d   1      44.340  29.548  60.970  0.00  0.00     0.102 A 
ATOM      5  C   UNL d   1      44.423  28.608  62.044  0.00  0.00     0.102 A 
ATOM      6  C   UNL d   1      44.410  29.225  62.585  0.00  0.00     0.100 A 
ATOM      7  C   UNL d   1      44.327  30.165  61.512  0.00  0.00     0.100 A 
ATOM      8  O   UNL d   1      44.449  27.367  60.956  0.00  0.00    -0.266 OA
ENDROOT
BRANCH   3   9
ATOM      9  C   UNL d   1      44.366  28.308  59.882  0.00  0.00     0.099 C 
BRANCH   9  10
ATOM     10  S   UNL d   1      44.584  27.727  59.337  0.00  0.00    -0.044 SA
BRANCH  10  11
ATOM     11  C   UNL d   1      44.671  27.930  58.533  0.00  0.00     0.182 A 
ATOM     12  N   UNL d   1      44.507  28.707  58.280  0.00  0.00    -0.222 NA
ATOM     13  C   UNL d   1      44.592  28.904  57.494  0.00  0.00     0.095 A 
ATOM     14  C   UNL d   1      44.840  28.339  56.946  0.00  0.00     0.104 A 
ATOM     15  C   UNL d   1      44.472  29.614  57.095  0.00  0.00     0.026 A 
ATOM     16  C   UNL d   1      45.002  27.578  57.184  0.00  0.00     0.274 A 
ATOM     17  S   UNL d   1      44.872  28.701  56.208  0.00  0.00    -0.081 SA
ATOM     18  N   UNL d   1      44.918  27.365  57.985  0.00  0.00    -0.251 N 
ATOM     19  O   UNL d   1      45.250  27.013  56.635  0.00  0.00    -0.266 OA
ATOM     20  C   UNL d   1      45.083  26.589  58.231  0.00  0.00     0.104 C 
ATOM     21  C   UNL d   1      44.644  29.492  56.305  0.00  0.00     0.031 A 
ATOM     22  C   UNL d   1      44.594  30.065  55.714  0.00  0.00     0.007 C 
ENDBRANCH  10  11
ENDBRANCH   9  10
ENDBRANCH   3   9
BRANCH   2  23
ATOM     23  C   UNL d   1      44.349  30.625  62.864  0.00  0.00     0.064 A 
ATOM     24  C   UNL d   1      44.327  30.463  63.674  0.00  0.00     0.018 A 
ATOM     25  C   UNL d   1      44.314  31.083  64.218  0.00  0.00     0.002 A 
ATOM     26  C   UNL d   1      44.323  31.865  63.952  0.00  0.00     0.000 A 
ATOM     27  C   UNL d   1      44.345  32.027  63.143  0.00  0.00     0.002 A 
ATOM     28  C   UNL d   1      44.358  31.407  62.599  0.00  0.00     0.018 A 
ENDBRANCH   2  23
TORSDOF 4
ENDMDL
MODEL 8
REMARK VINA RESULT:      -6.2     10.201     10.728
REMARK  4 active torsions:
REMARK  status: ('A' for Active; 'I' for Inactive)
REMARK    1  A    between atoms: S_11  and  C_4 
REMARK       I    between atoms: N_8  and  C_10 
REMARK    2  A    between atoms: C_20  and  N_9 
REMARK    3  A    between atoms: C_10  and  C_15 
REMARK    4  A    between atoms: C_15  and  S_11 
ROOT
ATOM      1  N   UNL d   1      44.933  26.908  57.303  0.00  0.00    -0.269 N 
ATOM      2  N   UNL d   1      44.699  25.306  57.592  0.00  0.00    -0.301 N 
ATOM      3  C   UNL d   1      45.050  27.712  57.157  0.00  0.00     0.272 C 
ATOM      4  C   UNL d   1      44.733  26.652  58.061  0.00  0.00     0.102 A 
ATOM      5  C   UNL d   1      45.016  26.362  56.689  0.00  0.00     0.102 A 
ATOM      6  C   UNL d   1      44.899  25.563  56.834  0.00  0.00     0.100 A 
ATOM      7  C   UNL d   1      44.616  25.852  58.206  0.00  0.00     0.100 A 
ATOM      8  O   UNL d   1      45.251  27.970  56.399  0.00  0.00    -0.266 OA
ENDROOT
BRANCH   3   9
ATOM      9  C   UNL d   1      44.968  28.259  57.770  0.00  0.00     0.099 C 
BRANCH   9  10
ATOM     10  S   UNL d   1      45.017  29.068  57.611  0.00  0.00    -0.044 SA
BRANCH  10  11
ATOM     11  C   UNL d   1      44.884  29.617  58.224  0.00  0.00     0.182 A 
ATOM     12  N   UNL d   1      44.954  29.377  59.019  0.00  0.00    -0.222 NA
ATOM     13  C   UNL d   1      44.824  29.914  59.618  0.00  0.00     0.095 A 
ATOM     14  C   UNL d   1      44.622  30.694  59.443  0.00  0.00     0.104 A 
ATOM     15  C   UNL d   1      44.854  29.834  60.437  0.00  0.00     0.026 A 
ATOM     16  C   UNL d   1      44.550  30.938  58.669  0.00  0.00     0.274 A 
ATOM     17  S   UNL d   1      44.527  31.096  60.154  0.00  0.00    -0.081 SA
ATOM     18  N   UNL d   1      44.682  30.397  58.049  0.00  0.00    -0.251 N 
ATOM     19  O   UNL d   1      44.348  31.718  58.494  0.00  0.00    -0.266 OA
ATOM     20  C   UNL d   1      44.610  30.642  57.258  0.00  0.00     0.104 C 
ATOM     21  C   UNL d   1      44.672  30.558  60.768  0.00  0.00     0.031 A 
ATOM     22  C   UNL d   1      44.641  30.717  61.577  0.00  0.00     0.007 C 
ENDBRANCH  10  11
ENDBRANCH   9  10
ENDBRANCH   3   9
BRANCH   2  23
ATOM     23  C   UNL d   1      44.582  24.502  57.738  0.00  0.00     0.064 A 
ATOM     24  C   UNL d   1      44.432  23.987  57.110  0.00  0.00     0.018 A 
ATOM     25  C   UNL d   1      44.314  23.183  57.256  0.00  0.00     0.002 A 
ATOM     26  C   UNL d   1      44.347  22.895  58.028  0.00  0.00     0.000 A 
ATOM     27  C   UNL d   1      44.497  23.410  58.656  0.00  0.00     0.002 A 
ATOM     28  C   UNL d   1      44.615  24.213  58.510  0.00  0.00     0.018 A 
ENDBRANCH   2  23
TORSDOF 4
ENDMDL
MODEL 9
REMARK VINA RESULT:      -6.1      1.158      1.833
REMARK  4 active torsions:
REMARK  status: ('A' for Active; 'I' for Inactive)
REMARK    1  A    between atoms: S_11  and  C_4 
REMARK       I    between atoms: N_8  and  C_10 
REMARK    2  A    between atoms: C_20  and  N_9 
REMARK    3  A    between atoms: C_10  and  C_15 
REMARK    4  A    between atoms: C_15  and  S_11 
ROOT
ATOM      1  N   UNL d   1      50.418  34.271  52.343  0.00  0.00    -0.269 N 
ATOM      2  N   UNL d   1      51.724  33.525  53.010  0.00  0.00    -0.301 N 
ATOM      3  C   UNL d   1      49.763  34.644  52.008  0.00  0.00     0.272 C 
ATOM      4  C   UNL d   1      50.419  34.081  53.146  0.00  0.00     0.102 A 
ATOM      5  C   UNL d   1      51.071  34.086  51.874  0.00  0.00     0.102 A 
ATOM      6  C   UNL d   1      51.723  33.714  52.207  0.00  0.00     0.100 A 
ATOM      7  C   UNL d   1      51.070  33.710  53.479  0.00  0.00     0.100 A 
ATOM      8  O   UNL d   1      49.762  34.834  51.205  0.00  0.00    -0.266 OA
ENDROOT
BRANCH   3   9
ATOM      9  C   UNL d   1      49.109  34.829  52.477  0.00  0.00     0.099 C 
BRANCH   9  10
ATOM     10  S   UNL d   1      48.812  35.599  52.486  0.00  0.00    -0.044 SA
BRANCH  10  11
ATOM     11  C   UNL d   1      47.988  35.723  52.526  0.00  0.00     0.182 A 
ATOM     12  N   UNL d   1      47.499  35.464  51.903  0.00  0.00    -0.222 NA
ATOM     13  C   UNL d   1      46.694  35.585  51.943  0.00  0.00     0.095 A 
ATOM     14  C   UNL d   1      46.360  35.962  52.596  0.00  0.00     0.104 A 
ATOM     15  C   UNL d   1      46.088  35.391  51.419  0.00  0.00     0.026 A 
ATOM     16  C   UNL d   1      46.830  36.218  53.209  0.00  0.00     0.274 A 
ATOM     17  S   UNL d   1      45.547  36.001  52.476  0.00  0.00    -0.081 SA
ATOM     18  N   UNL d   1      47.654  36.100  53.179  0.00  0.00    -0.251 N 
ATOM     19  O   UNL d   1      46.495  36.595  53.862  0.00  0.00    -0.266 OA
ATOM     20  C   UNL d   1      48.137  36.360  53.803  0.00  0.00     0.104 C 
ATOM     21  C   UNL d   1      45.383  35.646  51.745  0.00  0.00     0.031 A 
ATOM     22  C   UNL d   1      44.640  35.560  51.397  0.00  0.00     0.007 C 
ENDBRANCH  10  11
ENDBRANCH   9  10
ENDBRANCH   3   9
BRANCH   2  23
ATOM     23  C   UNL d   1      52.379  33.152  53.345  0.00  0.00     0.064 A 
ATOM     24  C   UNL d   1      52.793  33.516  53.959  0.00  0.00     0.018 A 
ATOM     25  C   UNL d   1      53.448  33.142  54.294  0.00  0.00     0.002 A 
ATOM     26  C   UNL d   1      53.689  32.404  54.014  0.00  0.00     0.000 A 
ATOM     27  C   UNL d   1      53.275  32.039  53.400  0.00  0.00     0.002 A 
ATOM     28  C   UNL d   1      52.620  32.413  53.066  0.00  0.00     0.018 A 
ENDBRANCH   2  23
TORSDOF 4
ENDMDL
