MODEL 1
REMARK VINA RESULT:      -0.9      0.000      0.000
REMARK  4 active torsions:
REMARK  status: ('A' for Active; 'I' for Inactive)
REMARK    1  A    between atoms: N_3  and  C_1 
REMARK    2  A    between atoms: C_2  and  S_10 
REMARK    3  A    between atoms: N_5  and  C_9 
REMARK    4  A    between atoms: S_10  and  C_8 
ROOT
ATOM      1  C   UNL d   1      28.599  17.248 -24.180  0.00  0.00     0.134 A 
ATOM      2  C   UNL d   1      27.955  16.891 -23.796  0.00  0.00     0.048 A 
ATOM      3  C   UNL d   1      29.271  16.800 -24.386  0.00  0.00     0.055 A 
ATOM      4  C   UNL d   1      27.966  16.078 -23.606  0.00  0.00     0.128 A 
ATOM      5  C   UNL d   1      29.289  16.006 -24.204  0.00  0.00     0.010 A 
ATOM      6  C   UNL d   1      28.653  15.645 -23.822  0.00  0.00     0.024 A 
ENDROOT
BRANCH   3   7
ATOM      7  S   UNL d   1      29.904  17.133 -24.760  0.00  0.00    -0.041 SA
BRANCH   7   8
ATOM      8  C   UNL d   1      30.763  16.940 -24.432  0.00  0.00     0.215 A 
ATOM      9  N   UNL d   1      31.229  16.351 -24.698  0.00  0.00    -0.214 NA
ATOM     10  C   UNL d   1      31.936  16.379 -24.256  0.00  0.00     0.107 A 
ATOM     11  C   UNL d   1      32.634  15.919 -24.267  0.00  0.00     0.021 A 
ATOM     12  C   UNL d   1      31.881  16.997 -23.722  0.00  0.00     0.120 A 
ATOM     13  C   UNL d   1      33.241  16.097 -23.748  0.00  0.00     0.002 A 
ATOM     14  C   UNL d   1      33.182  16.710 -23.221  0.00  0.00     0.002 A 
ATOM     15  C   UNL d   1      32.496  17.170 -23.203  0.00  0.00     0.026 A 
ATOM     16  O   UNL d   1      31.120  17.359 -23.838  0.00  0.00    -0.283 OA
ENDBRANCH   7   8
ENDBRANCH   3   7
BRANCH   1  17
ATOM     17  N   UNL d   1      28.554  18.051 -24.351  0.00  0.00    -0.113 N 
ATOM     18  O   UNL d   1      28.505  18.349 -25.093  0.00  0.00    -0.532 OA
ATOM     19  O   UNL d   1      28.556  18.636 -23.763  0.00  0.00    -0.532 OA
ENDBRANCH   1  17
BRANCH   4  20
ATOM     20  N   UNL d   1      27.343  15.703 -23.227  0.00  0.00    -0.114 N 
ATOM     21  O   UNL d   1      26.631  15.453 -23.615  0.00  0.00    -0.532 OA
ATOM     22  O   UNL d   1      27.311  15.520 -22.444  0.00  0.00    -0.532 OA
ENDBRANCH   4  20
TORSDOF 4
ENDMDL
MODEL 2
REMARK VINA RESULT:      -0.4      3.677      5.140
REMARK  4 active torsions:
REMARK  status: ('A' for Active; 'I' for Inactive)
REMARK    1  A    between atoms: N_3  and  C_1 
REMARK    2  A    between atoms: C_2  and  S_10 
REMARK    3  A    between atoms: N_5  and  C_9 
REMARK    4  A    between atoms: S_10  and  C_8 
ROOT
ATOM      1  C   UNL d   1      32.664  18.513 -23.883  0.00  0.00     0.134 A 
ATOM      2  C   UNL d   1      32.719  17.696 -23.747  0.00  0.00     0.048 A 
ATOM      3  C   UNL d   1      32.899  19.058 -23.297  0.00  0.00     0.055 A 
ATOM      4  C   UNL d   1      33.009  17.402 -23.021  0.00  0.00     0.128 A 
ATOM      5  C   UNL d   1      33.183  18.778 -22.587  0.00  0.00     0.010 A 
ATOM      6  C   UNL d   1      33.240  17.967 -22.445  0.00  0.00     0.024 A 
ENDROOT
BRANCH   3   7
ATOM      7  S   UNL d   1      32.851  19.855 -23.416  0.00  0.00    -0.041 SA
BRANCH   7   8
ATOM      8  C   UNL d   1      32.780  20.411 -22.662  0.00  0.00     0.215 A 
ATOM      9  N   UNL d   1      33.224  21.060 -22.533  0.00  0.00    -0.214 NA
ATOM     10  C   UNL d   1      32.980  21.383 -21.804  0.00  0.00     0.107 A 
ATOM     11  C   UNL d   1      33.223  22.053 -21.367  0.00  0.00     0.021 A 
ATOM     12  C   UNL d   1      32.382  20.912 -21.502  0.00  0.00     0.120 A 
ATOM     13  C   UNL d   1      32.861  22.219 -20.652  0.00  0.00     0.002 A 
ATOM     14  C   UNL d   1      32.269  21.750 -20.357  0.00  0.00     0.002 A 
ATOM     15  C   UNL d   1      32.022  21.087 -20.783  0.00  0.00     0.026 A 
ATOM     16  O   UNL d   1      32.255  20.283 -22.059  0.00  0.00    -0.283 OA
ENDBRANCH   7   8
ENDBRANCH   3   7
BRANCH   1  17
ATOM     17  N   UNL d   1      32.373  18.769 -24.609  0.00  0.00    -0.113 N 
ATOM     18  O   UNL d   1      31.673  18.534 -24.920  0.00  0.00    -0.532 OA
ATOM     19  O   UNL d   1      32.783  19.302 -25.094  0.00  0.00    -0.532 OA
ENDBRANCH   1  17
BRANCH   4  20
ATOM     20  N   UNL d   1      33.073  16.599 -22.864  0.00  0.00    -0.114 N 
ATOM     21  O   UNL d   1      33.197  16.006 -23.457  0.00  0.00    -0.532 OA
ATOM     22  O   UNL d   1      33.027  16.259 -22.136  0.00  0.00    -0.532 OA
ENDBRANCH   4  20
TORSDOF 4
ENDMDL
MODEL 3
REMARK VINA RESULT:      -0.2      1.097      2.229
REMARK  4 active torsions:
REMARK  status: ('A' for Active; 'I' for Inactive)
REMARK    1  A    between atoms: N_3  and  C_1 
REMARK    2  A    between atoms: C_2  and  S_10 
REMARK    3  A    between atoms: N_5  and  C_9 
REMARK    4  A    between atoms: S_10  and  C_8 
ROOT
ATOM      1  C   UNL d   1      28.591  16.461 -23.771  0.00  0.00     0.134 A 
ATOM      2  C   UNL d   1      28.239  17.212 -23.760  0.00  0.00     0.048 A 
ATOM      3  C   UNL d   1      29.265  16.314 -24.240  0.00  0.00     0.055 A 
ATOM      4  C   UNL d   1      28.550  17.837 -24.218  0.00  0.00     0.128 A 
ATOM      5  C   UNL d   1      29.574  16.920 -24.689  0.00  0.00     0.010 A 
ATOM      6  C   UNL d   1      29.228  17.670 -24.684  0.00  0.00     0.024 A 
ENDROOT
BRANCH   3   7
ATOM      7  S   UNL d   1      29.618  15.589 -24.260  0.00  0.00    -0.041 SA
BRANCH   7   8
ATOM      8  C   UNL d   1      30.557  15.554 -24.253  0.00  0.00     0.215 A 
ATOM      9  N   UNL d   1      31.006  15.539 -23.595  0.00  0.00    -0.214 NA
ATOM     10  C   UNL d   1      31.802  15.509 -23.841  0.00  0.00     0.107 A 
ATOM     11  C   UNL d   1      32.527  15.483 -23.426  0.00  0.00     0.021 A 
ATOM     12  C   UNL d   1      31.817  15.506 -24.660  0.00  0.00     0.120 A 
ATOM     13  C   UNL d   1      33.229  15.456 -23.846  0.00  0.00     0.002 A 
ATOM     14  C   UNL d   1      33.239  15.453 -24.656  0.00  0.00     0.002 A 
ATOM     15  C   UNL d   1      32.527  15.478 -25.075  0.00  0.00     0.026 A 
ATOM     16  O   UNL d   1      31.010  15.535 -24.924  0.00  0.00    -0.283 OA
ENDBRANCH   7   8
ENDBRANCH   3   7
BRANCH   1  17
ATOM     17  N   UNL d   1      28.259  15.868 -23.308  0.00  0.00    -0.113 N 
ATOM     18  O   UNL d   1      28.569  15.614 -22.613  0.00  0.00    -0.532 OA
ATOM     19  O   UNL d   1      27.562  15.470 -23.520  0.00  0.00    -0.532 OA
ENDBRANCH   1  17
BRANCH   4  20
ATOM     20  N   UNL d   1      28.219  18.588 -24.224  0.00  0.00    -0.114 N 
ATOM     21  O   UNL d   1      28.127  19.063 -24.921  0.00  0.00    -0.532 OA
ATOM     22  O   UNL d   1      27.937  18.982 -23.581  0.00  0.00    -0.532 OA
ENDBRANCH   4  20
TORSDOF 4
ENDMDL
MODEL 4
REMARK VINA RESULT:       0.7      2.965      4.674
REMARK  4 active torsions:
REMARK  status: ('A' for Active; 'I' for Inactive)
REMARK    1  A    between atoms: N_3  and  C_1 
REMARK    2  A    between atoms: C_2  and  S_10 
REMARK    3  A    between atoms: N_5  and  C_9 
REMARK    4  A    between atoms: S_10  and  C_8 
ROOT
ATOM      1  C   UNL d   1      32.715  20.031 -23.597  0.00  0.00     0.134 A 
ATOM      2  C   UNL d   1      32.658  20.571 -22.968  0.00  0.00     0.048 A 
ATOM      3  C   UNL d   1      32.804  19.215 -23.449  0.00  0.00     0.055 A 
ATOM      4  C   UNL d   1      32.688  20.309 -22.176  0.00  0.00     0.128 A 
ATOM      5  C   UNL d   1      32.835  18.954 -22.679  0.00  0.00     0.010 A 
ATOM      6  C   UNL d   1      32.778  19.484 -22.049  0.00  0.00     0.024 A 
ENDROOT
BRANCH   3   7
ATOM      7  S   UNL d   1      32.861  18.680 -24.050  0.00  0.00    -0.041 SA
BRANCH   7   8
ATOM      8  C   UNL d   1      32.329  17.907 -24.006  0.00  0.00     0.215 A 
ATOM      9  N   UNL d   1      32.361  17.367 -23.421  0.00  0.00    -0.214 NA
ATOM     10  C   UNL d   1      31.799  16.778 -23.601  0.00  0.00     0.107 A 
ATOM     11  C   UNL d   1      31.566  16.074 -23.214  0.00  0.00     0.021 A 
ATOM     12  C   UNL d   1      31.432  16.979 -24.305  0.00  0.00     0.120 A 
ATOM     13  C   UNL d   1      30.982  15.607 -23.546  0.00  0.00     0.002 A 
ATOM     14  C   UNL d   1      30.622  15.810 -24.243  0.00  0.00     0.002 A 
ATOM     15  C   UNL d   1      30.845  16.504 -24.633  0.00  0.00     0.026 A 
ATOM     16  O   UNL d   1      31.777  17.711 -24.565  0.00  0.00    -0.283 OA
ENDBRANCH   7   8
ENDBRANCH   3   7
BRANCH   1  17
ATOM     17  N   UNL d   1      32.681  20.323 -24.365  0.00  0.00    -0.113 N 
ATOM     18  O   UNL d   1      33.193  20.116 -24.946  0.00  0.00    -0.532 OA
ATOM     19  O   UNL d   1      32.106  20.867 -24.614  0.00  0.00    -0.532 OA
ENDBRANCH   1  17
BRANCH   4  20
ATOM     20  N   UNL d   1      32.633  20.823 -21.538  0.00  0.00    -0.114 N 
ATOM     21  O   UNL d   1      31.920  21.218 -21.305  0.00  0.00    -0.532 OA
ATOM     22  O   UNL d   1      33.237  21.027 -21.047  0.00  0.00    -0.532 OA
ENDBRANCH   4  20
TORSDOF 4
ENDMDL
MODEL 5
REMARK VINA RESULT:       1.5      1.536      2.086
REMARK  4 active torsions:
REMARK  status: ('A' for Active; 'I' for Inactive)
REMARK    1  A    between atoms: N_3  and  C_1 
REMARK    2  A    between atoms: C_2  and  S_10 
REMARK    3  A    between atoms: N_5  and  C_9 
REMARK    4  A    between atoms: S_10  and  C_8 
ROOT
ATOM      1  C   UNL d   1      29.796  15.886 -23.119  0.00  0.00     0.134 A 
ATOM      2  C   UNL d   1      28.971  15.983 -23.132  0.00  0.00     0.048 A 
ATOM      3  C   UNL d   1      30.255  16.070 -23.790  0.00  0.00     0.055 A 
ATOM      4  C   UNL d   1      28.584  16.265 -23.815  0.00  0.00     0.128 A 
ATOM      5  C   UNL d   1      29.884  16.346 -24.460  0.00  0.00     0.010 A 
ATOM      6  C   UNL d   1      29.064  16.444 -24.480  0.00  0.00     0.024 A 
ENDROOT
BRANCH   3   7
ATOM      7  S   UNL d   1      31.058  15.982 -23.792  0.00  0.00    -0.041 SA
BRANCH   7   8
ATOM      8  C   UNL d   1      31.585  16.738 -23.971  0.00  0.00     0.215 A 
ATOM      9  N   UNL d   1      31.956  16.880 -24.662  0.00  0.00    -0.214 NA
ATOM     10  C   UNL d   1      32.358  17.606 -24.580  0.00  0.00     0.107 A 
ATOM     11  C   UNL d   1      32.839  18.053 -25.097  0.00  0.00     0.021 A 
ATOM     12  C   UNL d   1      32.219  17.892 -23.825  0.00  0.00     0.120 A 
ATOM     13  C   UNL d   1      33.158  18.761 -24.837  0.00  0.00     0.002 A 
ATOM     14  C   UNL d   1      33.018  19.041 -24.089  0.00  0.00     0.002 A 
ATOM     15  C   UNL d   1      32.543  18.605 -23.572  0.00  0.00     0.026 A 
ATOM     16  O   UNL d   1      31.719  17.328 -23.433  0.00  0.00    -0.283 OA
ENDBRANCH   7   8
ENDBRANCH   3   7
BRANCH   1  17
ATOM     17  N   UNL d   1      30.145  15.606 -22.429  0.00  0.00    -0.113 N 
ATOM     18  O   UNL d   1      30.928  15.454 -22.352  0.00  0.00    -0.532 OA
ATOM     19  O   UNL d   1      29.713  15.453 -21.737  0.00  0.00    -0.532 OA
ENDBRANCH   1  17
BRANCH   4  20
ATOM     20  N   UNL d   1      27.771  16.368 -23.852  0.00  0.00    -0.114 N 
ATOM     21  O   UNL d   1      27.283  16.088 -24.487  0.00  0.00    -0.532 OA
ATOM     22  O   UNL d   1      27.320  16.744 -23.301  0.00  0.00    -0.532 OA
ENDBRANCH   4  20
TORSDOF 4
ENDMDL
