MODEL 1
REMARK VINA RESULT:      73.6      0.000      0.000
REMARK  4 active torsions:
REMARK  status: ('A' for Active; 'I' for Inactive)
REMARK    1  A    between atoms: C_6  and  C_1 
REMARK    2  A    between atoms: C_8  and  N_3 
REMARK    3  A    between atoms: C_9  and  C_6 
REMARK    4  A    between atoms: N_7  and  C_9 
ROOT
ATOM      1  C   UNL d   1      60.784  48.164  50.955  0.00  0.00     0.058 A 
ATOM      2  C   UNL d   1      61.126  47.778  50.333  0.00  0.00     0.067 A 
ATOM      3  N   UNL d   1      61.184  46.988  50.496  0.00  0.00    -0.306 N 
ATOM      4  C   UNL d   1      60.872  46.909  51.225  0.00  0.00     0.064 A 
ATOM      5  C   UNL d   1      60.621  47.672  51.503  0.00  0.00     0.022 A 
ATOM      6  C   UNL d   1      61.374  48.149  49.639  0.00  0.00     0.019 C 
ATOM      7  C   UNL d   1      60.814  46.223  51.610  0.00  0.00     0.019 C 
ENDROOT
BRANCH   1   8
ATOM      8  C   UNL d   1      60.618  49.000  51.018  0.00  0.00     0.214 C 
ATOM      9  O   UNL d   1      60.911  49.432  51.627  0.00  0.00    -0.285 OA
BRANCH   8  10
ATOM     10  C   UNL d   1      60.131  49.425  50.437  0.00  0.00     0.123 C 
BRANCH  10  11
ATOM     11  N   UNL d   1      59.309  49.491  50.496  0.00  0.00    -0.300 N 
ATOM     12  C   UNL d   1      58.909  49.438  51.204  0.00  0.00     0.080 A 
ATOM     13  C   UNL d   1      58.040  49.508  51.262  0.00  0.00     0.019 A 
ATOM     14  C   UNL d   1      57.648  49.624  50.619  0.00  0.00     0.003 A 
ATOM     15  C   UNL d   1      58.047  49.681  49.880  0.00  0.00     0.019 A 
ATOM     16  C   UNL d   1      56.804  49.691  50.687  0.00  0.00     0.000 C 
ATOM     17  C   UNL d   1      58.871  49.616  49.816  0.00  0.00     0.080 A 
ENDBRANCH  10  11
ENDBRANCH   8  10
ENDBRANCH   1   8
BRANCH   3  18
ATOM     18  C   UNL d   1      61.479  46.326  50.082  0.00  0.00     0.064 A 
ATOM     19  C   UNL d   1      62.055  46.367  49.552  0.00  0.00     0.020 A 
ATOM     20  C   UNL d   1      62.361  45.673  49.120  0.00  0.00     0.031 A 
ATOM     21  C   UNL d   1      62.052  44.972  49.262  0.00  0.00     0.140 A 
ATOM     22  C   UNL d   1      61.456  44.893  49.803  0.00  0.00     0.031 A 
ATOM     23  F   UNL d   1      62.356  44.276  48.833  0.00  0.00    -0.204 F 
ATOM     24  C   UNL d   1      61.186  45.581  50.200  0.00  0.00     0.020 A 
ENDBRANCH   3  18
TORSDOF 4
ENDMDL
