MODEL 1
REMARK VINA RESULT:      33.5      0.000      0.000
REMARK  6 active torsions:
REMARK  status: ('A' for Active; 'I' for Inactive)
REMARK    1  A    between atoms: C_3  and  C_2 
REMARK    2  A    between atoms: O_5  and  C_3 
REMARK    3  A    between atoms: C_9  and  O_5 
REMARK    4  A    between atoms: C_6  and  C_9 
REMARK    5  A    between atoms: C_7  and  C_6 
REMARK    6  A    between atoms: O_19  and  C_16 
ROOT
ATOM      1  C   UNL d   1      45.006 -17.249  39.379  0.00  0.00     0.318 C 
ATOM      2  O   UNL d   1      44.392 -17.200  39.928  0.00  0.00    -0.257 OA
ENDROOT
BRANCH   1   3
ATOM      3  C   UNL d   1      44.954 -16.852  38.658  0.00  0.00     0.145 A 
ATOM      4  N   UNL d   1      45.478 -16.222  38.493  0.00  0.00    -0.240 NA
ATOM      5  C   UNL d   1      45.430 -15.822  37.774  0.00  0.00     0.082 A 
ATOM      6  C   UNL d   1      44.854 -16.046  37.208  0.00  0.00     0.018 A 
ATOM      7  C   UNL d   1      45.944 -15.204  37.611  0.00  0.00     0.019 A 
ATOM      8  C   UNL d   1      44.331 -16.673  37.371  0.00  0.00     0.003 A 
ATOM      9  C   UNL d   1      44.805 -15.647  36.490  0.00  0.00     0.002 A 
ATOM     10  C   UNL d   1      44.381 -17.074  38.095  0.00  0.00     0.025 A 
ATOM     11  C   UNL d   1      45.329 -15.025  36.335  0.00  0.00     0.000 A 
ATOM     12  C   UNL d   1      45.895 -14.805  36.892  0.00  0.00     0.002 A 
ENDBRANCH   1   3
BRANCH   1  13
ATOM     13  O   UNL d   1      45.680 -17.702  39.555  0.00  0.00    -0.266 OA
BRANCH  13  14
ATOM     14  C   UNL d   1      45.883 -17.857  40.337  0.00  0.00     0.168 C 
BRANCH  14  15
ATOM     15  C   UNL d   1      46.295 -18.541  40.534  0.00  0.00     0.220 C 
ATOM     16  O   UNL d   1      46.638 -18.994  39.936  0.00  0.00    -0.284 OA
BRANCH  15  17
ATOM     17  C   UNL d   1      46.366 -18.771  41.324  0.00  0.00     0.041 A 
ATOM     18  C   UNL d   1      46.365 -18.196  41.916  0.00  0.00     0.005 A 
ATOM     19  C   UNL d   1      46.435 -18.429  42.702  0.00  0.00     0.024 A 
ATOM     20  C   UNL d   1      46.506 -19.233  42.894  0.00  0.00     0.094 A 
ATOM     21  C   UNL d   1      46.505 -19.799  42.294  0.00  0.00     0.024 A 
ATOM     22  C   UNL d   1      46.435 -19.567  41.507  0.00  0.00     0.005 A 
BRANCH  20  23
ATOM     23  O   UNL d   1      46.575 -19.461  43.675  0.00  0.00    -0.328 OA
ATOM     24  C   UNL d   1      46.645 -20.265  43.867  0.00  0.00     0.181 C 
ENDBRANCH  20  23
ENDBRANCH  15  17
ENDBRANCH  14  15
ENDBRANCH  13  14
ENDBRANCH   1  13
TORSDOF 6
ENDMDL
MODEL 2
REMARK VINA RESULT:      33.7      1.328      5.736
REMARK  6 active torsions:
REMARK  status: ('A' for Active; 'I' for Inactive)
REMARK    1  A    between atoms: C_3  and  C_2 
REMARK    2  A    between atoms: O_5  and  C_3 
REMARK    3  A    between atoms: C_9  and  O_5 
REMARK    4  A    between atoms: C_6  and  C_9 
REMARK    5  A    between atoms: C_7  and  C_6 
REMARK    6  A    between atoms: O_19  and  C_16 
ROOT
ATOM      1  C   UNL d   1      46.145 -17.843  40.824  0.00  0.00     0.318 C 
ATOM      2  O   UNL d   1      46.647 -17.187  40.827  0.00  0.00    -0.257 OA
ENDROOT
BRANCH   1   3
ATOM      3  C   UNL d   1      46.269 -18.464  41.352  0.00  0.00     0.145 A 
ATOM      4  N   UNL d   1      46.251 -18.319  42.176  0.00  0.00    -0.240 NA
ATOM      5  C   UNL d   1      46.374 -18.937  42.706  0.00  0.00     0.082 A 
ATOM      6  C   UNL d   1      46.517 -19.712  42.421  0.00  0.00     0.018 A 
ATOM      7  C   UNL d   1      46.357 -18.796  43.514  0.00  0.00     0.019 A 
ATOM      8  C   UNL d   1      46.535 -19.859  41.602  0.00  0.00     0.003 A 
ATOM      9  C   UNL d   1      46.640 -20.329  42.951  0.00  0.00     0.002 A 
ATOM     10  C   UNL d   1      46.411 -19.235  41.069  0.00  0.00     0.025 A 
ATOM     11  C   UNL d   1      46.621 -20.177  43.765  0.00  0.00     0.000 A 
ATOM     12  C   UNL d   1      46.480 -19.415  44.045  0.00  0.00     0.002 A 
ENDBRANCH   1   3
BRANCH   1  13
ATOM     13  O   UNL d   1      45.513 -17.875  40.287  0.00  0.00    -0.266 OA
BRANCH  13  14
ATOM     14  C   UNL d   1      45.559 -17.476  39.568  0.00  0.00     0.168 C 
BRANCH  14  15
ATOM     15  C   UNL d   1      44.875 -17.256  39.168  0.00  0.00     0.220 C 
ATOM     16  O   UNL d   1      44.142 -17.514  39.446  0.00  0.00    -0.284 OA
BRANCH  15  17
ATOM     17  C   UNL d   1      44.921 -16.780  38.495  0.00  0.00     0.041 A 
ATOM     18  C   UNL d   1      45.568 -16.277  38.398  0.00  0.00     0.005 A 
ATOM     19  C   UNL d   1      45.610 -15.804  37.725  0.00  0.00     0.024 A 
ATOM     20  C   UNL d   1      45.010 -15.836  37.154  0.00  0.00     0.094 A 
ATOM     21  C   UNL d   1      44.369 -16.344  37.262  0.00  0.00     0.024 A 
ATOM     22  C   UNL d   1      44.325 -16.817  37.934  0.00  0.00     0.005 A 
BRANCH  20  23
ATOM     23  O   UNL d   1      45.056 -15.366  36.488  0.00  0.00    -0.328 OA
ATOM     24  C   UNL d   1      45.443 -14.634  36.524  0.00  0.00     0.181 C 
ENDBRANCH  20  23
ENDBRANCH  15  17
ENDBRANCH  14  15
ENDBRANCH  13  14
ENDBRANCH   1  13
TORSDOF 6
ENDMDL
