MODEL 1
REMARK VINA RESULT:      15.3      0.000      0.000
REMARK  2 active torsions:
REMARK  status: ('A' for Active; 'I' for Inactive)
REMARK    1  A    between atoms: N_2  and  C_1 
REMARK    2  A    between atoms: C_4  and  C_1 
ROOT
ATOM      1  C   UNL d   1     -51.348  24.687  33.411  0.00  0.00     0.120 C 
ATOM      2  S   UNL d   1     -50.674  24.212  33.463  0.00  0.00    -0.059 SA
ENDROOT
BRANCH   1   3
ATOM      3  N   UNL d   1     -51.269  25.514  33.385  0.00  0.00    -0.293 N 
ATOM      4  C   UNL d   1     -50.517  25.854  33.350  0.00  0.00     0.100 A 
ATOM      5  C   UNL d   1     -50.436  26.674  33.324  0.00  0.00     0.100 A 
ATOM      6  N   UNL d   1     -51.106  27.154  33.332  0.00  0.00    -0.299 N 
ATOM      7  C   UNL d   1     -51.858  26.814  33.367  0.00  0.00     0.100 A 
ATOM      8  C   UNL d   1     -51.026  27.977  33.306  0.00  0.00     0.100 C 
ATOM      9  C   UNL d   1     -51.936  25.986  33.393  0.00  0.00     0.100 A 
ENDBRANCH   1   3
BRANCH   1  10
ATOM     10  C   UNL d   1     -52.102  24.347  33.385  0.00  0.00     0.027 A 
ATOM     11  C   UNL d   1     -52.193  23.521  33.380  0.00  0.00     0.003 A 
ATOM     12  C   UNL d   1     -52.947  23.189  33.353  0.00  0.00     0.007 A 
ATOM     13  C   UNL d   1     -53.611  23.676  33.332  0.00  0.00     0.035 A 
ATOM     14  C   UNL d   1     -53.520  24.502  33.337  0.00  0.00     0.007 A 
ATOM     15 BR   UNL d   1     -54.368  23.345  33.306  0.00  0.00    -0.049 Br
ATOM     16  C   UNL d   1     -52.767  24.834  33.364  0.00  0.00     0.003 A 
ENDBRANCH   1  10
TORSDOF 2
ENDMDL
