MODEL 1
REMARK VINA RESULT:      19.8      0.000      0.000
REMARK  1 active torsions:
REMARK  status: ('A' for Active; 'I' for Inactive)
REMARK    1  A    between atoms: C_6  and  C_2 
ROOT
ATOM      1  C   UNL d   1     -57.684 -98.778 -44.291  0.00  0.00     0.018 A 
ATOM      2  C   UNL d   1     -57.004 -98.798 -43.818  0.00  0.00     0.002 A 
ATOM      3  C   UNL d   1     -56.253 -98.796 -44.171  0.00  0.00     0.000 A 
ATOM      4  C   UNL d   1     -57.616 -98.758 -45.102  0.00  0.00     0.002 A 
ATOM      5  C   UNL d   1     -56.183 -98.775 -45.009  0.00  0.00     0.000 A 
ATOM      6  C   UNL d   1     -56.864 -98.756 -45.472  0.00  0.00     0.000 A 
ATOM      7  C   UNL d   1     -55.583 -98.816 -43.699  0.00  0.00     0.000 A 
ATOM      8  C   UNL d   1     -55.443 -98.774 -45.352  0.00  0.00     0.000 A 
ATOM      9  C   UNL d   1     -54.832 -98.814 -44.052  0.00  0.00     0.000 A 
ATOM     10  C   UNL d   1     -54.764 -98.794 -44.863  0.00  0.00     0.000 A 
ENDROOT
BRANCH   1  11
ATOM     11  C   UNL d   1     -58.430 -98.780 -43.938  0.00  0.00     0.090 A 
ATOM     12  N   UNL d   1     -58.648 -98.789 -43.171  0.00  0.00    -0.219 NA
ATOM     13  C   UNL d   1     -59.472 -98.786 -43.137  0.00  0.00     0.215 A 
ATOM     14  S   UNL d   1     -59.740 -98.774 -43.921  0.00  0.00    -0.045 SA
ATOM     15  N   UNL d   1     -59.951 -98.793 -42.439  0.00  0.00    -0.120 N 
ATOM     16  C   UNL d   1     -59.101 -98.771 -44.398  0.00  0.00     0.058 A 
ENDBRANCH   1  11
TORSDOF 1
ENDMDL
