MODEL 1
REMARK VINA RESULT:      -8.3      0.000      0.000
REMARK  4 active torsions:
REMARK  status: ('A' for Active; 'I' for Inactive)
REMARK    1  A    between atoms: C_2  and  S_1 
REMARK    2  A    between atoms: N_3  and  S_1 
REMARK    3  A    between atoms: C_7  and  N_4 
REMARK    4  A    between atoms: O_16  and  C_13 
ROOT
ATOM      1  N   UNL d   1     -49.459  12.371  23.006  0.00  0.00    -0.226 N 
ATOM      2  N   UNL d   1     -47.854  12.743  22.850  0.00  0.00    -0.300 N 
ATOM      3  C   UNL d   1     -49.067  12.761  23.632  0.00  0.00     0.111 A 
ATOM      4  C   UNL d   1     -49.057  12.173  22.320  0.00  0.00     0.111 A 
ATOM      5  C   UNL d   1     -48.252  12.359  22.242  0.00  0.00     0.100 A 
ATOM      6  C   UNL d   1     -48.261  12.937  23.531  0.00  0.00     0.100 A 
ENDROOT
BRANCH   1   7
ATOM      7  S   UNL d   1     -50.259  12.185  23.083  0.00  0.00     0.274 S 
ATOM      8  O   UNL d   1     -50.052  11.415  23.378  0.00  0.00    -0.200 OA
ATOM      9  O   UNL d   1     -51.064  11.999  23.161  0.00  0.00    -0.200 OA
BRANCH   7  10
ATOM     10  C   UNL d   1     -50.462  12.937  22.795  0.00  0.00     0.131 A 
ATOM     11  C   UNL d   1     -50.745  13.022  22.032  0.00  0.00     0.152 A 
ATOM     12  F   UNL d   1     -50.834  12.355  21.535  0.00  0.00    -0.203 F 
ATOM     13  C   UNL d   1     -50.946  13.769  21.746  0.00  0.00     0.030 A 
ATOM     14  C   UNL d   1     -50.865  14.436  22.222  0.00  0.00     0.002 A 
ATOM     15  C   UNL d   1     -50.580  14.341  22.984  0.00  0.00     0.001 A 
ATOM     16  C   UNL d   1     -50.379  13.594  23.270  0.00  0.00     0.015 A 
ENDBRANCH   7  10
ENDBRANCH   1   7
BRANCH   2  17
ATOM     17  C   UNL d   1     -47.059  12.917  22.751  0.00  0.00     0.086 A 
ATOM     18  C   UNL d   1     -46.492  12.371  23.046  0.00  0.00     0.110 A 
ATOM     19  C   UNL d   1     -45.693  12.550  22.943  0.00  0.00     0.026 A 
ATOM     20  C   UNL d   1     -45.442  13.225  22.573  0.00  0.00     0.002 A 
ATOM     21  C   UNL d   1     -45.994  13.753  22.288  0.00  0.00     0.002 A 
ATOM     22  C   UNL d   1     -46.800  13.599  22.377  0.00  0.00     0.019 A 
BRANCH  18  23
ATOM     23  O   UNL d   1     -46.746  11.667  23.431  0.00  0.00    -0.327 OA
ATOM     24  C   UNL d   1     -46.186  11.138  23.697  0.00  0.00     0.181 C 
ENDBRANCH  18  23
ENDBRANCH   2  17
TORSDOF 4
ENDMDL
MODEL 2
REMARK VINA RESULT:      -6.0      8.941     10.315
REMARK  4 active torsions:
REMARK  status: ('A' for Active; 'I' for Inactive)
REMARK    1  A    between atoms: C_2  and  S_1 
REMARK    2  A    between atoms: N_3  and  S_1 
REMARK    3  A    between atoms: C_7  and  N_4 
REMARK    4  A    between atoms: O_16  and  C_13 
ROOT
ATOM      1  N   UNL d   1     -40.288  15.201  19.416  0.00  0.00    -0.226 N 
ATOM      2  N   UNL d   1     -39.498  14.582  18.100  0.00  0.00    -0.300 N 
ATOM      3  C   UNL d   1     -40.586  14.513  19.045  0.00  0.00     0.111 A 
ATOM      4  C   UNL d   1     -39.612  15.567  19.134  0.00  0.00     0.111 A 
ATOM      5  C   UNL d   1     -39.215  15.256  18.474  0.00  0.00     0.100 A 
ATOM      6  C   UNL d   1     -40.172  14.222  18.386  0.00  0.00     0.100 A 
ENDROOT
BRANCH   1   7
ATOM      7  S   UNL d   1     -40.681  15.509  20.072  0.00  0.00     0.274 S 
ATOM      8  O   UNL d   1     -41.219  15.919  19.557  0.00  0.00    -0.200 OA
ATOM      9  O   UNL d   1     -41.077  15.820  20.732  0.00  0.00    -0.200 OA
BRANCH   7  10
ATOM     10  C   UNL d   1     -40.156  15.109  20.575  0.00  0.00     0.131 A 
ATOM     11  C   UNL d   1     -40.406  14.446  20.985  0.00  0.00     0.152 A 
ATOM     12  F   UNL d   1     -41.190  14.165  20.902  0.00  0.00    -0.203 F 
ATOM     13  C   UNL d   1     -39.885  14.049  21.485  0.00  0.00     0.030 A 
ATOM     14  C   UNL d   1     -39.110  14.311  21.578  0.00  0.00     0.002 A 
ATOM     15  C   UNL d   1     -38.869  14.976  21.164  0.00  0.00     0.001 A 
ATOM     16  C   UNL d   1     -39.391  15.374  20.664  0.00  0.00     0.015 A 
ENDBRANCH   7  10
ENDBRANCH   1   7
BRANCH   2  17
ATOM     17  C   UNL d   1     -39.090  14.293  17.449  0.00  0.00     0.086 A 
ATOM     18  C   UNL d   1     -38.637  13.591  17.543  0.00  0.00     0.110 A 
ATOM     19  C   UNL d   1     -38.228  13.305  16.886  0.00  0.00     0.026 A 
ATOM     20  C   UNL d   1     -38.249  13.673  16.165  0.00  0.00     0.002 A 
ATOM     21  C   UNL d   1     -38.689  14.354  16.078  0.00  0.00     0.002 A 
ATOM     22  C   UNL d   1     -39.108  14.663  16.718  0.00  0.00     0.019 A 
BRANCH  18  23
ATOM     23  O   UNL d   1     -38.611  13.203  18.289  0.00  0.00    -0.327 OA
ATOM     24  C   UNL d   1     -38.126  12.554  18.381  0.00  0.00     0.181 C 
ENDBRANCH  18  23
ENDBRANCH   2  17
TORSDOF 4
ENDMDL
MODEL 3
REMARK VINA RESULT:      -5.5      9.019     10.573
REMARK  4 active torsions:
REMARK  status: ('A' for Active; 'I' for Inactive)
REMARK    1  A    between atoms: C_2  and  S_1 
REMARK    2  A    between atoms: N_3  and  S_1 
REMARK    3  A    between atoms: C_7  and  N_4 
REMARK    4  A    between atoms: O_16  and  C_13 
ROOT
ATOM      1  N   UNL d   1     -38.915  14.310  20.253  0.00  0.00    -0.226 N 
ATOM      2  N   UNL d   1     -38.789  14.311  18.603  0.00  0.00    -0.300 N 
ATOM      3  C   UNL d   1     -38.445  14.891  19.878  0.00  0.00     0.111 A 
ATOM      4  C   UNL d   1     -39.310  13.745  19.812  0.00  0.00     0.111 A 
ATOM      5  C   UNL d   1     -39.247  13.746  18.984  0.00  0.00     0.100 A 
ATOM      6  C   UNL d   1     -38.397  14.871  19.049  0.00  0.00     0.100 A 
ENDROOT
BRANCH   1   7
ATOM      7  S   UNL d   1     -38.977  14.310  21.076  0.00  0.00     0.274 S 
ATOM      8  O   UNL d   1     -38.240  13.890  21.132  0.00  0.00    -0.200 OA
ATOM      9  O   UNL d   1     -39.040  14.309  21.903  0.00  0.00    -0.200 OA
BRANCH   7  10
ATOM     10  C   UNL d   1     -39.697  14.720  21.021  0.00  0.00     0.131 A 
ATOM     11  C   UNL d   1     -39.731  15.514  21.212  0.00  0.00     0.152 A 
ATOM     12  F   UNL d   1     -39.045  15.922  21.464  0.00  0.00    -0.203 F 
ATOM     13  C   UNL d   1     -40.447  15.922  21.158  0.00  0.00     0.030 A 
ATOM     14  C   UNL d   1     -41.132  15.537  20.913  0.00  0.00     0.002 A 
ATOM     15  C   UNL d   1     -41.087  14.741  20.723  0.00  0.00     0.001 A 
ATOM     16  C   UNL d   1     -40.371  14.333  20.778  0.00  0.00     0.015 A 
ENDBRANCH   7  10
ENDBRANCH   1   7
BRANCH   2  17
ATOM     17  C   UNL d   1     -38.742  14.292  17.784  0.00  0.00     0.086 A 
ATOM     18  C   UNL d   1     -39.193  14.850  17.347  0.00  0.00     0.110 A 
ATOM     19  C   UNL d   1     -39.142  14.827  16.523  0.00  0.00     0.026 A 
ATOM     20  C   UNL d   1     -38.679  14.291  16.130  0.00  0.00     0.002 A 
ATOM     21  C   UNL d   1     -38.243  13.751  16.557  0.00  0.00     0.002 A 
ATOM     22  C   UNL d   1     -38.275  13.752  17.382  0.00  0.00     0.019 A 
BRANCH  18  23
ATOM     23  O   UNL d   1     -39.676  15.409  17.748  0.00  0.00    -0.327 OA
ATOM     24  C   UNL d   1     -40.137  15.921  17.311  0.00  0.00     0.181 C 
ENDBRANCH  18  23
ENDBRANCH   2  17
TORSDOF 4
ENDMDL
