MODEL 1
REMARK VINA RESULT:      29.5      0.000      0.000
REMARK  3 active torsions:
REMARK  status: ('A' for Active; 'I' for Inactive)
REMARK    1  A    between atoms: C_7  and  C_1 
REMARK    2  A    between atoms: O_20  and  C_12 
REMARK    3  A    between atoms: O_22  and  C_16 
ROOT
ATOM      1  C   UNL d   1      45.348 -15.819  44.342  0.00  0.00     0.062 A 
ATOM      2  C   UNL d   1      45.782 -15.167  44.057  0.00  0.00     0.202 A 
ATOM      3  C   UNL d   1      45.464 -14.403  44.094  0.00  0.00     0.101 A 
ATOM      4  C   UNL d   1      44.586 -15.699  44.668  0.00  0.00     0.103 A 
ATOM      5  C   UNL d   1      44.703 -14.287  44.421  0.00  0.00     0.109 A 
ATOM      6  O   UNL d   1      44.266 -14.928  44.706  0.00  0.00    -0.307 OA
ATOM      7  C   UNL d   1      45.894 -13.762  43.812  0.00  0.00     0.204 A 
ATOM      8  C   UNL d   1      44.385 -13.524  44.459  0.00  0.00     0.067 A 
ATOM      9  C   UNL d   1      45.576 -13.004  43.851  0.00  0.00     0.084 A 
ATOM     10  O   UNL d   1      46.533 -15.285  43.735  0.00  0.00    -0.286 OA
ATOM     11  C   UNL d   1      44.826 -12.886  44.173  0.00  0.00     0.201 A 
ATOM     12  O   UNL d   1      46.645 -13.880  43.491  0.00  0.00    -0.286 OA
ATOM     13  C   UNL d   1      44.160 -16.340  44.949  0.00  0.00     0.027 C 
ATOM     14  O   UNL d   1      44.507 -12.127  44.211  0.00  0.00    -0.286 OA
ENDROOT
BRANCH   1  15
ATOM     15  C   UNL d   1      45.666 -16.573  44.303  0.00  0.00     0.007 A 
ATOM     16  C   UNL d   1      45.582 -17.015  43.614  0.00  0.00     0.026 A 
ATOM     17  C   UNL d   1      45.902 -17.774  43.572  0.00  0.00     0.116 A 
ATOM     18  C   UNL d   1      46.308 -18.092  44.226  0.00  0.00     0.116 A 
ATOM     19  C   UNL d   1      46.386 -17.639  44.913  0.00  0.00     0.026 A 
ATOM     20  C   UNL d   1      46.067 -16.882  44.955  0.00  0.00     0.002 A 
BRANCH  17  21
ATOM     21  O   UNL d   1      45.819 -18.220  42.880  0.00  0.00    -0.326 OA
ATOM     22  C   UNL d   1      46.461 -18.304  42.369  0.00  0.00     0.181 C 
ENDBRANCH  17  21
BRANCH  18  23
ATOM     23  O   UNL d   1      46.627 -18.850  44.183  0.00  0.00    -0.326 OA
ATOM     24  C   UNL d   1      46.617 -19.341  44.847  0.00  0.00     0.181 C 
ENDBRANCH  18  23
ENDBRANCH   1  15
TORSDOF 3
ENDMDL
