MODEL 1
REMARK VINA RESULT:      -8.2      0.000      0.000
REMARK  3 active torsions:
REMARK  status: ('A' for Active; 'I' for Inactive)
REMARK    1  A    between atoms: N_5  and  C_1 
REMARK    2  A    between atoms: C_10  and  C_2 
REMARK       I    between atoms: C_8  and  N_5 
REMARK    3  A    between atoms: C_7  and  C_8 
ROOT
ATOM      1  C   UNL d   1      52.804  33.008  53.546  0.00  0.00     0.119 A 
ATOM      2  C   UNL d   1      53.087  33.717  53.883  0.00  0.00     0.084 A 
ATOM      3  S   UNL d   1      52.212  33.204  53.011  0.00  0.00    -0.068 SA
ATOM      4  C   UNL d   1      52.665  34.345  53.550  0.00  0.00     0.013 A 
ATOM      5  C   UNL d   1      52.120  34.025  53.007  0.00  0.00     0.031 A 
ATOM      6  C   UNL d   1      52.761  35.145  53.719  0.00  0.00     0.001 C 
ATOM      7  C   UNL d   1      51.587  34.456  52.551  0.00  0.00     0.007 C 
ENDROOT
BRANCH   1   8
ATOM      8  N   UNL d   1      53.073  32.250  53.723  0.00  0.00    -0.201 NA
ATOM      9  C   UNL d   1      52.898  31.625  53.210  0.00  0.00     0.286 C 
ATOM     10  O   UNL d   1      52.463  31.746  52.531  0.00  0.00    -0.265 OA
BRANCH   9  11
ATOM     11  C   UNL d   1      53.169  30.862  53.388  0.00  0.00     0.088 A 
ATOM     12  S   UNL d   1      52.892  30.366  53.998  0.00  0.00    -0.075 SA
ATOM     13  C   UNL d   1      53.322  29.653  53.971  0.00  0.00     0.064 A 
ATOM     14 BR   UNL d   1      53.231  28.994  54.479  0.00  0.00    -0.042 Br
ATOM     15  C   UNL d   1      53.856  29.720  53.346  0.00  0.00     0.014 A 
ATOM     16  C   UNL d   1      53.763  30.455  52.991  0.00  0.00     0.012 A 
ENDBRANCH   9  11
ENDBRANCH   1   8
BRANCH   2  17
ATOM     17  C   UNL d   1      53.685  33.779  54.448  0.00  0.00     0.299 C 
ATOM     18  O   UNL d   1      54.485  33.769  54.212  0.00  0.00    -0.264 OA
ATOM     19  N   UNL d   1      53.498  33.851  55.256  0.00  0.00    -0.102 N 
ENDBRANCH   2  17
TORSDOF 3
ENDMDL
MODEL 2
REMARK VINA RESULT:      -7.9      2.274      3.928
REMARK  3 active torsions:
REMARK  status: ('A' for Active; 'I' for Inactive)
REMARK    1  A    between atoms: N_5  and  C_1 
REMARK    2  A    between atoms: C_10  and  C_2 
REMARK       I    between atoms: C_8  and  N_5 
REMARK    3  A    between atoms: C_7  and  C_8 
ROOT
ATOM      1  C   UNL d   1      52.747  32.800  53.362  0.00  0.00     0.119 A 
ATOM      2  C   UNL d   1      53.055  32.025  53.331  0.00  0.00     0.084 A 
ATOM      3  S   UNL d   1      53.266  33.258  53.805  0.00  0.00    -0.068 SA
ATOM      4  C   UNL d   1      53.763  32.013  53.757  0.00  0.00     0.013 A 
ATOM      5  C   UNL d   1      53.895  32.781  54.052  0.00  0.00     0.031 A 
ATOM      6  C   UNL d   1      54.255  31.363  53.872  0.00  0.00     0.001 C 
ATOM      7  C   UNL d   1      54.539  33.016  54.508  0.00  0.00     0.007 C 
ENDROOT
BRANCH   1   8
ATOM      8  N   UNL d   1      52.048  33.056  53.010  0.00  0.00    -0.201 NA
ATOM      9  C   UNL d   1      51.856  33.861  53.020  0.00  0.00     0.286 C 
ATOM     10  O   UNL d   1      52.348  34.407  53.373  0.00  0.00    -0.265 OA
BRANCH   9  11
ATOM     11  C   UNL d   1      51.152  34.118  52.666  0.00  0.00     0.088 A 
ATOM     12  S   UNL d   1      50.469  34.392  53.058  0.00  0.00    -0.075 SA
ATOM     13  C   UNL d   1      49.900  34.591  52.484  0.00  0.00     0.064 A 
ATOM     14 BR   UNL d   1      49.130  34.889  52.624  0.00  0.00    -0.042 Br
ATOM     15  C   UNL d   1      50.239  34.437  51.747  0.00  0.00     0.014 A 
ATOM     16  C   UNL d   1      51.001  34.150  51.858  0.00  0.00     0.012 A 
ENDBRANCH   9  11
ENDBRANCH   1   8
BRANCH   2  17
ATOM     17  C   UNL d   1      52.710  31.384  52.942  0.00  0.00     0.299 C 
ATOM     18  O   UNL d   1      52.897  31.233  52.143  0.00  0.00    -0.264 OA
ATOM     19  N   UNL d   1      52.176  30.885  53.339  0.00  0.00    -0.102 N 
ENDBRANCH   2  17
TORSDOF 3
ENDMDL
MODEL 3
REMARK VINA RESULT:      -7.6      2.256      3.533
REMARK  3 active torsions:
REMARK  status: ('A' for Active; 'I' for Inactive)
REMARK    1  A    between atoms: N_5  and  C_1 
REMARK    2  A    between atoms: C_10  and  C_2 
REMARK       I    between atoms: C_8  and  N_5 
REMARK    3  A    between atoms: C_7  and  C_8 
ROOT
ATOM      1  C   UNL d   1      53.022  33.590  53.796  0.00  0.00     0.119 A 
ATOM      2  C   UNL d   1      53.540  33.913  54.365  0.00  0.00     0.084 A 
ATOM      3  S   UNL d   1      53.287  32.833  53.617  0.00  0.00    -0.068 SA
ATOM      4  C   UNL d   1      54.121  33.350  54.531  0.00  0.00     0.013 A 
ATOM      5  C   UNL d   1      53.964  32.677  54.065  0.00  0.00     0.031 A 
ATOM      6  C   UNL d   1      54.747  33.431  55.060  0.00  0.00     0.001 C 
ATOM      7  C   UNL d   1      54.408  31.984  54.057  0.00  0.00     0.007 C 
ENDROOT
BRANCH   1   8
ATOM      8  N   UNL d   1      52.363  33.967  53.475  0.00  0.00    -0.201 NA
ATOM      9  C   UNL d   1      51.854  33.545  52.978  0.00  0.00     0.286 C 
ATOM     10  O   UNL d   1      51.991  32.761  52.800  0.00  0.00    -0.265 OA
BRANCH   9  11
ATOM     11  C   UNL d   1      51.191  33.924  52.655  0.00  0.00     0.088 A 
ATOM     12  S   UNL d   1      50.506  34.162  53.065  0.00  0.00    -0.075 SA
ATOM     13  C   UNL d   1      49.986  34.520  52.521  0.00  0.00     0.064 A 
ATOM     14 BR   UNL d   1      49.231  34.841  52.687  0.00  0.00    -0.042 Br
ATOM     15  C   UNL d   1      50.358  34.497  51.785  0.00  0.00     0.014 A 
ATOM     16  C   UNL d   1      51.091  34.135  51.867  0.00  0.00     0.012 A 
ENDBRANCH   9  11
ENDBRANCH   1   8
BRANCH   2  17
ATOM     17  C   UNL d   1      53.480  34.664  54.702  0.00  0.00     0.299 C 
ATOM     18  O   UNL d   1      53.788  35.326  54.299  0.00  0.00    -0.264 OA
ATOM     19  N   UNL d   1      53.115  34.769  55.442  0.00  0.00    -0.102 N 
ENDBRANCH   2  17
TORSDOF 3
ENDMDL
MODEL 4
REMARK VINA RESULT:      -6.4      2.155      3.989
REMARK  3 active torsions:
REMARK  status: ('A' for Active; 'I' for Inactive)
REMARK    1  A    between atoms: N_5  and  C_1 
REMARK    2  A    between atoms: C_10  and  C_2 
REMARK       I    between atoms: C_8  and  N_5 
REMARK    3  A    between atoms: C_7  and  C_8 
ROOT
ATOM      1  C   UNL d   1      53.431  31.189  53.907  0.00  0.00     0.119 A 
ATOM      2  C   UNL d   1      52.919  30.855  53.340  0.00  0.00     0.084 A 
ATOM      3  S   UNL d   1      53.733  30.576  54.364  0.00  0.00    -0.068 SA
ATOM      4  C   UNL d   1      52.910  30.036  53.453  0.00  0.00     0.013 A 
ATOM      5  C   UNL d   1      53.417  29.862  54.090  0.00  0.00     0.031 A 
ATOM      6  C   UNL d   1      52.480  29.485  53.017  0.00  0.00     0.001 C 
ATOM      7  C   UNL d   1      53.571  29.111  54.390  0.00  0.00     0.007 C 
ENDROOT
BRANCH   1   8
ATOM      8  N   UNL d   1      53.601  31.990  53.991  0.00  0.00    -0.201 NA
ATOM      9  C   UNL d   1      53.806  32.289  54.735  0.00  0.00     0.286 C 
ATOM     10  O   UNL d   1      53.842  31.803  55.389  0.00  0.00    -0.265 OA
BRANCH   9  11
ATOM     11  C   UNL d   1      53.976  33.096  54.820  0.00  0.00     0.088 A 
ATOM     12  S   UNL d   1      53.428  33.723  54.810  0.00  0.00    -0.075 SA
ATOM     13  C   UNL d   1      53.845  34.437  54.914  0.00  0.00     0.064 A 
ATOM     14 BR   UNL d   1      53.519  35.208  54.940  0.00  0.00    -0.042 Br
ATOM     15  C   UNL d   1      54.643  34.239  54.986  0.00  0.00     0.014 A 
ATOM     16  C   UNL d   1      54.723  33.424  54.929  0.00  0.00     0.012 A 
ENDBRANCH   9  11
ENDBRANCH   1   8
BRANCH   2  17
ATOM     17  C   UNL d   1      52.496  31.271  52.767  0.00  0.00     0.299 C 
ATOM     18  O   UNL d   1      52.862  31.476  52.045  0.00  0.00    -0.264 OA
ATOM     19  N   UNL d   1      51.704  31.491  52.900  0.00  0.00    -0.102 N 
ENDBRANCH   2  17
TORSDOF 3
ENDMDL
MODEL 5
REMARK VINA RESULT:      -5.7      3.920      5.032
REMARK  3 active torsions:
REMARK  status: ('A' for Active; 'I' for Inactive)
REMARK    1  A    between atoms: N_5  and  C_1 
REMARK    2  A    between atoms: C_10  and  C_2 
REMARK       I    between atoms: C_8  and  N_5 
REMARK    3  A    between atoms: C_7  and  C_8 
ROOT
ATOM      1  C   UNL d   1      48.723  35.269  52.598  0.00  0.00     0.119 A 
ATOM      2  C   UNL d   1      48.167  35.771  52.967  0.00  0.00     0.084 A 
ATOM      3  S   UNL d   1      48.458  35.120  51.835  0.00  0.00    -0.068 SA
ATOM      4  C   UNL d   1      47.563  35.926  52.425  0.00  0.00     0.013 A 
ATOM      5  C   UNL d   1      47.744  35.520  51.720  0.00  0.00     0.031 A 
ATOM      6  C   UNL d   1      46.899  36.395  52.552  0.00  0.00     0.001 C 
ATOM      7  C   UNL d   1      47.288  35.522  51.035  0.00  0.00     0.007 C 
ENDROOT
BRANCH   1   8
ATOM      8  N   UNL d   1      49.413  34.979  52.943  0.00  0.00    -0.201 NA
ATOM      9  C   UNL d   1      49.933  34.520  52.491  0.00  0.00     0.286 C 
ATOM     10  O   UNL d   1      49.774  34.349  51.709  0.00  0.00    -0.265 OA
BRANCH   9  11
ATOM     11  C   UNL d   1      50.627  34.228  52.837  0.00  0.00     0.088 A 
ATOM     12  S   UNL d   1      51.386  34.570  52.794  0.00  0.00    -0.075 SA
ATOM     13  C   UNL d   1      51.914  34.089  53.223  0.00  0.00     0.064 A 
ATOM     14 BR   UNL d   1      52.735  34.219  53.330  0.00  0.00    -0.042 Br
ATOM     15  C   UNL d   1      51.474  33.459  53.523  0.00  0.00     0.014 A 
ATOM     16  C   UNL d   1      50.692  33.543  53.288  0.00  0.00     0.012 A 
ENDBRANCH   9  11
ENDBRANCH   1   8
BRANCH   2  17
ATOM     17  C   UNL d   1      48.215  36.061  53.738  0.00  0.00     0.299 C 
ATOM     18  O   UNL d   1      48.713  36.708  53.910  0.00  0.00    -0.264 OA
ATOM     19  N   UNL d   1      47.771  35.713  54.350  0.00  0.00    -0.102 N 
ENDBRANCH   2  17
TORSDOF 3
ENDMDL
