MODEL 1
REMARK VINA RESULT:      44.5      0.000      0.000
REMARK  8 active torsions:
REMARK  status: ('A' for Active; 'I' for Inactive)
REMARK    1  A    between atoms: N_2  and  S_1 
REMARK    2  A    between atoms: C_3  and  S_1 
REMARK    3  A    between atoms: C_4  and  C_7 
REMARK    4  A    between atoms: O_17  and  C_4 
REMARK    5  A    between atoms: C_23  and  O_17 
REMARK    6  A    between atoms: C_18  and  C_24 
REMARK    7  A    between atoms: C_27  and  C_23 
REMARK    8  A    between atoms: C_24  and  C_27 
ROOT
ATOM      1  C   UNL d   1      13.607  14.632  -4.758  0.00  0.00     0.104 A 
ATOM      2  C   UNL d   1      13.149  13.113  -4.333  0.00  0.00     0.064 A 
ATOM      3  C   UNL d   1      13.966  13.978  -5.090  0.00  0.00     0.013 A 
ATOM      4  C   UNL d   1      13.001  14.523  -4.197  0.00  0.00     0.013 A 
ATOM      5  C   UNL d   1      13.752  13.218  -4.891  0.00  0.00     0.006 A 
ATOM      6  C   UNL d   1      12.776  13.765  -3.988  0.00  0.00     0.006 A 
ENDROOT
BRANCH   2   7
ATOM      7  C   UNL d   1      12.931  12.342  -4.130  0.00  0.00     0.300 C 
ATOM      8  O   UNL d   1      12.863  11.790  -4.759  0.00  0.00    -0.259 OA
BRANCH   7   9
ATOM      9  O   UNL d   1      12.787  12.111  -3.381  0.00  0.00    -0.271 OA
BRANCH   9  10
ATOM     10  C   UNL d   1      13.371  11.780  -2.901  0.00  0.00     0.126 C 
BRANCH  10  11
ATOM     11  C   UNL d   1      13.478  11.999  -2.108  0.00  0.00     0.027 C 
BRANCH  11  12
ATOM     12  C   UNL d   1      14.139  11.780  -1.697  0.00  0.00     0.002 C 
BRANCH  12  13
ATOM     13  C   UNL d   1      14.491  12.302  -1.148  0.00  0.00     0.003 A 
ATOM     14  C   UNL d   1      14.966  11.999  -0.556  0.00  0.00     0.021 A 
ATOM     15  C   UNL d   1      15.316  12.504  -0.014  0.00  0.00     0.099 A 
ATOM     16  N   UNL d   1      15.188  13.326  -0.063  0.00  0.00    -0.242 NA
ATOM     17  C   UNL d   1      14.713  13.624  -0.656  0.00  0.00     0.099 A 
ATOM     18  C   UNL d   1      14.372  13.096  -1.190  0.00  0.00     0.021 A 
ENDBRANCH  12  13
ENDBRANCH  11  12
ENDBRANCH  10  11
ENDBRANCH   9  10
ENDBRANCH   7   9
ENDBRANCH   2   7
BRANCH   1  19
ATOM     19  S   UNL d   1      13.840  15.401  -4.974  0.00  0.00     0.272 S 
ATOM     20  O   UNL d   1      14.145  15.112  -5.698  0.00  0.00    -0.200 OA
ATOM     21  O   UNL d   1      13.542  15.716  -4.256  0.00  0.00    -0.200 OA
BRANCH  19  22
ATOM     22  N   UNL d   1      14.070  16.176  -5.182  0.00  0.00    -0.225 N 
ATOM     23  C   UNL d   1      14.567  16.615  -4.706  0.00  0.00     0.118 A 
ATOM     24  C   UNL d   1      14.781  17.385  -4.937  0.00  0.00     0.142 A 
ATOM     25  O   UNL d   1      14.498  17.707  -5.636  0.00  0.00    -0.300 OA
ATOM     26  C   UNL d   1      13.996  17.258  -6.113  0.00  0.00     0.142 A 
ATOM     27  C   UNL d   1      13.775  16.508  -5.908  0.00  0.00     0.118 A 
ENDBRANCH  19  22
ENDBRANCH   1  19
TORSDOF 8
ENDMDL
MODEL 2
REMARK VINA RESULT:      47.5      0.830      1.269
REMARK  8 active torsions:
REMARK  status: ('A' for Active; 'I' for Inactive)
REMARK    1  A    between atoms: N_2  and  S_1 
REMARK    2  A    between atoms: C_3  and  S_1 
REMARK    3  A    between atoms: C_4  and  C_7 
REMARK    4  A    between atoms: O_17  and  C_4 
REMARK    5  A    between atoms: C_23  and  O_17 
REMARK    6  A    between atoms: C_18  and  C_24 
REMARK    7  A    between atoms: C_27  and  C_23 
REMARK    8  A    between atoms: C_24  and  C_27 
ROOT
ATOM      1  C   UNL d   1      13.649  15.423  -5.136  0.00  0.00     0.104 A 
ATOM      2  C   UNL d   1      13.374  13.875  -4.661  0.00  0.00     0.064 A 
ATOM      3  C   UNL d   1      13.111  15.256  -4.545  0.00  0.00     0.013 A 
ATOM      4  C   UNL d   1      14.061  14.798  -5.501  0.00  0.00     0.013 A 
ATOM      5  C   UNL d   1      12.962  14.495  -4.297  0.00  0.00     0.006 A 
ATOM      6  C   UNL d   1      13.921  14.030  -5.262  0.00  0.00     0.006 A 
ENDROOT
BRANCH   2   7
ATOM      7  C   UNL d   1      13.223  13.102  -4.411  0.00  0.00     0.300 C 
ATOM      8  O   UNL d   1      13.294  12.497  -4.987  0.00  0.00    -0.259 OA
BRANCH   7   9
ATOM      9  O   UNL d   1      13.019  12.917  -3.662  0.00  0.00    -0.271 OA
BRANCH   9  10
ATOM     10  C   UNL d   1      12.891  12.139  -3.419  0.00  0.00     0.126 C 
BRANCH  10  11
ATOM     11  C   UNL d   1      13.137  11.854  -2.681  0.00  0.00     0.027 C 
BRANCH  11  12
ATOM     12  C   UNL d   1      13.903  11.934  -2.432  0.00  0.00     0.002 C 
BRANCH  12  13
ATOM     13  C   UNL d   1      14.084  11.979  -1.618  0.00  0.00     0.003 A 
ATOM     14  C   UNL d   1      14.840  12.181  -1.386  0.00  0.00     0.021 A 
ATOM     15  C   UNL d   1      15.026  12.227  -0.590  0.00  0.00     0.099 A 
ATOM     16  N   UNL d   1      14.445  12.069  -0.014  0.00  0.00    -0.242 NA
ATOM     17  C   UNL d   1      13.690  11.867  -0.249  0.00  0.00     0.099 A 
ATOM     18  C   UNL d   1      13.527  11.827  -1.057  0.00  0.00     0.021 A 
ENDBRANCH  12  13
ENDBRANCH  11  12
ENDBRANCH  10  11
ENDBRANCH   9  10
ENDBRANCH   7   9
ENDBRANCH   2   7
BRANCH   1  19
ATOM     19  S   UNL d   1      13.787  16.208  -5.375  0.00  0.00     0.272 S 
ATOM     20  O   UNL d   1      13.385  16.067  -6.096  0.00  0.00    -0.200 OA
ATOM     21  O   UNL d   1      14.195  16.377  -4.662  0.00  0.00    -0.200 OA
BRANCH  19  22
ATOM     22  N   UNL d   1      13.931  16.998  -5.607  0.00  0.00    -0.225 N 
ATOM     23  C   UNL d   1      13.359  17.442  -5.984  0.00  0.00     0.118 A 
ATOM     24  C   UNL d   1      13.528  18.226  -6.204  0.00  0.00     0.142 A 
ATOM     25  O   UNL d   1      14.261  18.557  -6.046  0.00  0.00    -0.300 OA
ATOM     26  C   UNL d   1      14.836  18.102  -5.664  0.00  0.00     0.142 A 
ATOM     27  C   UNL d   1      14.693  17.339  -5.442  0.00  0.00     0.118 A 
ENDBRANCH  19  22
ENDBRANCH   1  19
TORSDOF 8
ENDMDL
