MODEL 1
REMARK VINA RESULT:      -3.5      0.000      0.000
REMARK  5 active torsions:
REMARK  status: ('A' for Active; 'I' for Inactive)
REMARK       I    between atoms: N_2  and  C_1 
REMARK    1  A    between atoms: C_4  and  C_1 
REMARK    2  A    between atoms: C_3  and  N_2 
REMARK    3  A    between atoms: N_5  and  C_3 
REMARK    4  A    between atoms: C_7  and  N_5 
REMARK    5  A    between atoms: O_14  and  C_11 
ROOT
ATOM      1  C   UNL d   1      57.289   0.176  31.483  0.00  0.00     0.283 C 
ATOM      2  N   UNL d   1      57.975  -0.104  31.124  0.00  0.00    -0.179 NA
ATOM      3  O   UNL d   1      56.676   0.468  31.013  0.00  0.00    -0.265 OA
ENDROOT
BRANCH   2   4
ATOM      4  C   UNL d   1      58.058  -0.098  30.308  0.00  0.00     0.224 C 
ATOM      5  S   UNL d   1      58.017   0.627  29.897  0.00  0.00    -0.037 SA
BRANCH   4   6
ATOM      6  N   UNL d   1      58.182  -0.793  29.882  0.00  0.00    -0.215 NA
BRANCH   6   7
ATOM      7  C   UNL d   1      58.916  -0.959  29.546  0.00  0.00     0.112 A 
ATOM      8  C   UNL d   1      59.062  -1.708  29.210  0.00  0.00     0.156 A 
ATOM      9  N   UNL d   1      59.796  -1.873  28.874  0.00  0.00    -0.231 NA
ATOM     10 CL   UNL d   1      58.464  -2.286  29.215  0.00  0.00    -0.060 Cl
ATOM     11  C   UNL d   1      60.385  -1.298  28.871  0.00  0.00     0.100 A 
ATOM     12  C   UNL d   1      60.240  -0.556  29.204  0.00  0.00     0.022 A 
ATOM     13  C   UNL d   1      59.505  -0.383  29.543  0.00  0.00     0.023 A 
ENDBRANCH   6   7
ENDBRANCH   4   6
ENDBRANCH   2   4
BRANCH   1  14
ATOM     14  C   UNL d   1      57.213   0.166  32.303  0.00  0.00     0.080 A 
ATOM     15  C   UNL d   1      56.684  -0.355  32.659  0.00  0.00     0.099 A 
ATOM     16  C   UNL d   1      56.607  -0.365  33.480  0.00  0.00     0.024 A 
ATOM     17  C   UNL d   1      57.064   0.151  33.943  0.00  0.00     0.002 A 
ATOM     18  C   UNL d   1      57.594   0.672  33.577  0.00  0.00     0.000 A 
ATOM     19  C   UNL d   1      57.670   0.682  32.757  0.00  0.00     0.007 A 
BRANCH  15  20
ATOM     20  O   UNL d   1      56.233  -0.864  32.197  0.00  0.00    -0.328 OA
ATOM     21  C   UNL d   1      55.803  -1.472  32.552  0.00  0.00     0.181 C 
ENDBRANCH  15  20
ENDBRANCH   1  14
TORSDOF 5
ENDMDL
MODEL 2
REMARK VINA RESULT:      -1.8      2.032      4.538
REMARK  5 active torsions:
REMARK  status: ('A' for Active; 'I' for Inactive)
REMARK       I    between atoms: N_2  and  C_1 
REMARK    1  A    between atoms: C_4  and  C_1 
REMARK    2  A    between atoms: C_3  and  N_2 
REMARK    3  A    between atoms: N_5  and  C_3 
REMARK    4  A    between atoms: C_7  and  N_5 
REMARK    5  A    between atoms: O_14  and  C_11 
ROOT
ATOM      1  C   UNL d   1      57.731  -0.523  30.575  0.00  0.00     0.283 C 
ATOM      2  N   UNL d   1      57.468   0.058  31.094  0.00  0.00    -0.179 NA
ATOM      3  O   UNL d   1      57.603  -1.319  30.757  0.00  0.00    -0.265 OA
ENDROOT
BRANCH   2   4
ATOM      4  C   UNL d   1      57.081  -0.140  31.789  0.00  0.00     0.224 C 
ATOM      5  S   UNL d   1      56.597  -0.818  31.812  0.00  0.00    -0.037 SA
BRANCH   4   6
ATOM      6  N   UNL d   1      57.160   0.318  32.472  0.00  0.00    -0.215 NA
BRANCH   6   7
ATOM      7  C   UNL d   1      56.549   0.366  33.023  0.00  0.00     0.112 A 
ATOM      8  C   UNL d   1      56.719   0.538  33.821  0.00  0.00     0.156 A 
ATOM      9  N   UNL d   1      56.108   0.586  34.371  0.00  0.00    -0.231 NA
ATOM     10 CL   UNL d   1      57.506   0.661  34.057  0.00  0.00    -0.060 Cl
ATOM     11  C   UNL d   1      55.329   0.463  34.132  0.00  0.00     0.100 A 
ATOM     12  C   UNL d   1      55.161   0.293  33.342  0.00  0.00     0.022 A 
ATOM     13  C   UNL d   1      55.771   0.243  32.783  0.00  0.00     0.023 A 
ENDBRANCH   6   7
ENDBRANCH   4   6
ENDBRANCH   2   4
BRANCH   1  14
ATOM     14  C   UNL d   1      58.118  -0.317  29.877  0.00  0.00     0.080 A 
ATOM     15  C   UNL d   1      58.544  -0.886  29.461  0.00  0.00     0.099 A 
ATOM     16  C   UNL d   1      58.932  -0.680  28.764  0.00  0.00     0.024 A 
ATOM     17  C   UNL d   1      58.891   0.101  28.485  0.00  0.00     0.002 A 
ATOM     18  C   UNL d   1      58.461   0.668  28.909  0.00  0.00     0.000 A 
ATOM     19  C   UNL d   1      58.074   0.461  29.606  0.00  0.00     0.007 A 
BRANCH  15  20
ATOM     20  O   UNL d   1      58.582  -1.659  29.740  0.00  0.00    -0.328 OA
ATOM     21  C   UNL d   1      58.919  -2.250  29.276  0.00  0.00     0.181 C 
ENDBRANCH  15  20
ENDBRANCH   1  14
TORSDOF 5
ENDMDL
