MODEL 1
REMARK VINA RESULT:      -3.6      0.000      0.000
REMARK  5 active torsions:
REMARK  status: ('A' for Active; 'I' for Inactive)
REMARK    1  A    between atoms: N_8  and  C_1 
REMARK    2  A    between atoms: C_3  and  S_13 
REMARK       I    between atoms: C_12  and  N_8 
REMARK    3  A    between atoms: C_16  and  C_9 
REMARK    4  A    between atoms: C_15  and  C_12 
REMARK    5  A    between atoms: S_13  and  C_15 
ROOT
ATOM      1  C   UNL d   1      32.901  19.716 -21.995  0.00  0.00     0.100 C 
ENDROOT
BRANCH   1   2
ATOM      2  S   UNL d   1      33.034  19.522 -22.788  0.00  0.00    -0.056 SA
BRANCH   2   3
ATOM      3  C   UNL d   1      32.853  18.765 -23.047  0.00  0.00     0.141 A 
ATOM      4  N   UNL d   1      32.259  18.549 -23.583  0.00  0.00    -0.232 NA
ATOM      5  C   UNL d   1      32.273  17.733 -23.684  0.00  0.00     0.088 A 
ATOM      6  C   UNL d   1      31.821  17.210 -24.143  0.00  0.00     0.020 A 
ATOM      7  C   UNL d   1      32.886  17.428 -23.204  0.00  0.00     0.049 A 
ATOM      8  C   UNL d   1      31.974  16.400 -24.124  0.00  0.00     0.002 A 
ATOM      9  C   UNL d   1      32.577  16.108 -23.651  0.00  0.00     0.001 A 
ATOM     10  C   UNL d   1      33.039  16.626 -23.186  0.00  0.00     0.008 A 
ATOM     11  S   UNL d   1      33.241  18.069 -22.813  0.00  0.00    -0.060 SA
ENDBRANCH   2   3
ENDBRANCH   1   2
BRANCH   1  12
ATOM     12  C   UNL d   1      32.880  20.508 -21.771  0.00  0.00     0.288 C 
ATOM     13  N   UNL d   1      32.527  20.726 -21.059  0.00  0.00    -0.181 NA
ATOM     14  O   UNL d   1      33.208  21.086 -22.253  0.00  0.00    -0.265 OA
BRANCH  13  15
ATOM     15  C   UNL d   1      32.501  21.513 -20.830  0.00  0.00     0.219 A 
ATOM     16  S   UNL d   1      33.050  21.900 -20.357  0.00  0.00    -0.026 SA
ATOM     17  C   UNL d   1      32.808  22.684 -20.268  0.00  0.00     0.135 A 
ATOM     18  N   UNL d   1      32.103  22.777 -20.690  0.00  0.00    -0.139 NA
ATOM     19  N   UNL d   1      31.914  22.055 -21.036  0.00  0.00    -0.121 NA
BRANCH  17  20
ATOM     20  C   UNL d   1      33.193  23.272 -19.838  0.00  0.00     0.028 C 
ATOM     21  C   UNL d   1      32.878  23.512 -19.111  0.00  0.00     0.002 C 
ENDBRANCH  17  20
ENDBRANCH  13  15
ENDBRANCH   1  12
TORSDOF 5
ENDMDL
MODEL 2
REMARK VINA RESULT:      -2.6      1.236      5.574
REMARK  5 active torsions:
REMARK  status: ('A' for Active; 'I' for Inactive)
REMARK    1  A    between atoms: N_8  and  C_1 
REMARK    2  A    between atoms: C_3  and  S_13 
REMARK       I    between atoms: C_12  and  N_8 
REMARK    3  A    between atoms: C_16  and  C_9 
REMARK    4  A    between atoms: C_15  and  C_12 
REMARK    5  A    between atoms: S_13  and  C_15 
ROOT
ATOM      1  C   UNL d   1      32.954  19.330 -22.461  0.00  0.00     0.100 C 
ENDROOT
BRANCH   1   2
ATOM      2  S   UNL d   1      33.241  20.077 -22.671  0.00  0.00    -0.056 SA
BRANCH   2   3
ATOM      3  C   UNL d   1      33.095  20.713 -22.174  0.00  0.00     0.141 A 
ATOM      4  N   UNL d   1      32.793  20.685 -21.403  0.00  0.00    -0.232 NA
ATOM      5  C   UNL d   1      32.737  21.452 -21.110  0.00  0.00     0.088 A 
ATOM      6  C   UNL d   1      32.479  21.765 -20.386  0.00  0.00     0.020 A 
ATOM      7  C   UNL d   1      33.007  21.972 -21.706  0.00  0.00     0.049 A 
ATOM      8  C   UNL d   1      32.490  22.579 -20.257  0.00  0.00     0.002 A 
ATOM      9  C   UNL d   1      32.756  23.084 -20.846  0.00  0.00     0.001 A 
ATOM     10  C   UNL d   1      33.018  22.779 -21.579  0.00  0.00     0.008 A 
ATOM     11  S   UNL d   1      33.227  21.511 -22.360  0.00  0.00    -0.060 SA
ENDBRANCH   2   3
ENDBRANCH   1   2
BRANCH   1  12
ATOM     12  C   UNL d   1      32.931  18.733 -23.027  0.00  0.00     0.288 C 
ATOM     13  N   UNL d   1      32.613  17.996 -22.837  0.00  0.00    -0.181 NA
ATOM     14  O   UNL d   1      33.224  18.863 -23.783  0.00  0.00    -0.265 OA
BRANCH  13  15
ATOM     15  C   UNL d   1      32.587  17.397 -23.395  0.00  0.00     0.219 A 
ATOM     16  S   UNL d   1      31.912  17.024 -23.678  0.00  0.00    -0.026 SA
ATOM     17  C   UNL d   1      32.142  16.456 -24.231  0.00  0.00     0.135 A 
ATOM     18  N   UNL d   1      32.967  16.481 -24.287  0.00  0.00    -0.139 NA
ATOM     19  N   UNL d   1      33.241  17.061 -23.771  0.00  0.00    -0.121 NA
BRANCH  17  20
ATOM     20  C   UNL d   1      31.646  15.952 -24.654  0.00  0.00     0.028 C 
ATOM     21  C   UNL d   1      30.975  15.640 -24.282  0.00  0.00     0.002 C 
ENDBRANCH  17  20
ENDBRANCH  13  15
ENDBRANCH   1  12
TORSDOF 5
ENDMDL
MODEL 3
REMARK VINA RESULT:      -2.6      0.918      1.332
REMARK  5 active torsions:
REMARK  status: ('A' for Active; 'I' for Inactive)
REMARK    1  A    between atoms: N_8  and  C_1 
REMARK    2  A    between atoms: C_3  and  S_13 
REMARK       I    between atoms: C_12  and  N_8 
REMARK    3  A    between atoms: C_16  and  C_9 
REMARK    4  A    between atoms: C_15  and  C_12 
REMARK    5  A    between atoms: S_13  and  C_15 
ROOT
ATOM      1  C   UNL d   1      32.557  20.736 -21.760  0.00  0.00     0.100 C 
ENDROOT
BRANCH   1   2
ATOM      2  S   UNL d   1      33.241  20.302 -21.928  0.00  0.00    -0.056 SA
BRANCH   2   3
ATOM      3  C   UNL d   1      33.180  19.623 -22.385  0.00  0.00     0.141 A 
ATOM      4  N   UNL d   1      33.137  18.841 -22.114  0.00  0.00    -0.232 NA
ATOM      5  C   UNL d   1      33.081  18.337 -22.762  0.00  0.00     0.088 A 
ATOM      6  C   UNL d   1      33.024  17.513 -22.835  0.00  0.00     0.020 A 
ATOM      7  C   UNL d   1      33.088  18.808 -23.453  0.00  0.00     0.049 A 
ATOM      8  C   UNL d   1      32.974  17.163 -23.581  0.00  0.00     0.002 A 
ATOM      9  C   UNL d   1      32.981  17.632 -24.254  0.00  0.00     0.001 A 
ATOM     10  C   UNL d   1      33.038  18.463 -24.191  0.00  0.00     0.008 A 
ATOM     11  S   UNL d   1      33.149  19.602 -23.214  0.00  0.00    -0.060 SA
ENDBRANCH   2   3
ENDBRANCH   1   2
BRANCH   1  12
ATOM     12  C   UNL d   1      32.624  21.466 -21.386  0.00  0.00     0.288 C 
ATOM     13  N   UNL d   1      32.461  21.532 -20.581  0.00  0.00    -0.181 NA
ATOM     14  O   UNL d   1      32.852  22.131 -21.808  0.00  0.00    -0.265 OA
BRANCH  13  15
ATOM     15  C   UNL d   1      32.525  22.256 -20.201  0.00  0.00     0.219 A 
ATOM     16  S   UNL d   1      32.986  22.421 -19.542  0.00  0.00    -0.026 SA
ATOM     17  C   UNL d   1      32.884  23.216 -19.345  0.00  0.00     0.135 A 
ATOM     18  N   UNL d   1      32.353  23.541 -19.891  0.00  0.00    -0.139 NA
ATOM     19  N   UNL d   1      32.132  22.949 -20.418  0.00  0.00    -0.121 NA
BRANCH  17  20
ATOM     20  C   UNL d   1      33.241  23.619 -18.722  0.00  0.00     0.028 C 
ATOM     21  C   UNL d   1      32.846  23.671 -17.997  0.00  0.00     0.002 C 
ENDBRANCH  17  20
ENDBRANCH  13  15
ENDBRANCH   1  12
TORSDOF 5
ENDMDL
