MODEL 1
REMARK VINA RESULT:       0.6      0.000      0.000
REMARK  6 active torsions:
REMARK  status: ('A' for Active; 'I' for Inactive)
REMARK    1  A    between atoms: C_3  and  N_1 
REMARK    2  A    between atoms: N_7  and  C_3 
REMARK    3  A    between atoms: C_9  and  C_4 
REMARK    4  A    between atoms: C_10  and  C_5 
REMARK    5  A    between atoms: C_15  and  N_7 
REMARK    6  A    between atoms: O_23  and  C_17 
ROOT
ATOM      1  N   UNL d   1      57.615  -1.183  30.518  0.00  0.00    -0.203 N 
ATOM      2  N   UNL d   1      57.060  -1.180  31.147  0.00  0.00    -0.163 NA
ATOM      3  C   UNL d   1      57.105  -0.447  31.512  0.00  0.00     0.103 A 
ATOM      4  C   UNL d   1      57.996  -0.442  30.507  0.00  0.00     0.087 A 
ATOM      5  C   UNL d   1      57.659   0.010  31.144  0.00  0.00     0.040 A 
ENDROOT
BRANCH   1   6
ATOM      6  C   UNL d   1      57.766  -1.818  29.987  0.00  0.00     0.222 C 
ATOM      7  S   UNL d   1      57.420  -1.806  29.246  0.00  0.00    -0.037 SA
BRANCH   6   8
ATOM      8  N   UNL d   1      58.254  -2.438  30.219  0.00  0.00    -0.217 NA
BRANCH   8   9
ATOM      9  C   UNL d   1      58.611  -2.914  29.652  0.00  0.00     0.084 A 
ATOM     10  C   UNL d   1      58.130  -3.275  29.073  0.00  0.00     0.019 A 
ATOM     11  C   UNL d   1      58.486  -3.754  28.503  0.00  0.00     0.002 A 
ATOM     12  C   UNL d   1      59.286  -3.857  28.524  0.00  0.00     0.000 A 
ATOM     13  C   UNL d   1      59.753  -3.505  29.090  0.00  0.00     0.002 A 
ATOM     14  C   UNL d   1      59.417  -3.034  29.653  0.00  0.00     0.019 A 
ENDBRANCH   8   9
ENDBRANCH   6   8
ENDBRANCH   1   6
BRANCH   4  15
ATOM     15  C   UNL d   1      58.590  -0.160  29.995  0.00  0.00     0.018 A 
ATOM     16  C   UNL d   1      59.380  -0.152  30.228  0.00  0.00     0.004 A 
ATOM     17  C   UNL d   1      59.961   0.130  29.711  0.00  0.00     0.024 A 
ATOM     18  C   UNL d   1      59.765   0.399  28.980  0.00  0.00     0.094 A 
ATOM     19  C   UNL d   1      58.957   0.396  28.729  0.00  0.00     0.024 A 
ATOM     20  C   UNL d   1      58.384   0.114  29.247  0.00  0.00     0.004 A 
BRANCH  18  21
ATOM     21  O   UNL d   1      60.393   0.682  28.478  0.00  0.00    -0.328 OA
ATOM     22  C   UNL d   1      61.130   0.282  28.460  0.00  0.00     0.181 C 
ENDBRANCH  18  21
ENDBRANCH   4  15
BRANCH   3  23
ATOM     23  C   UNL d   1      56.631  -0.248  32.160  0.00  0.00     0.019 A 
ATOM     24  C   UNL d   1      55.997   0.255  32.081  0.00  0.00     0.002 A 
ATOM     25  C   UNL d   1      55.525   0.453  32.726  0.00  0.00     0.007 A 
ATOM     26  C   UNL d   1      55.701   0.133  33.467  0.00  0.00     0.035 A 
ATOM     27  C   UNL d   1      56.346  -0.382  33.556  0.00  0.00     0.007 A 
ATOM     28 BR   UNL d   1      55.236   0.321  34.127  0.00  0.00    -0.049 Br
ATOM     29  C   UNL d   1      56.820  -0.580  32.907  0.00  0.00     0.002 A 
ENDBRANCH   3  23
TORSDOF 6
ENDMDL
MODEL 2
REMARK VINA RESULT:       1.7      2.196      4.575
REMARK  6 active torsions:
REMARK  status: ('A' for Active; 'I' for Inactive)
REMARK    1  A    between atoms: C_3  and  N_1 
REMARK    2  A    between atoms: N_7  and  C_3 
REMARK    3  A    between atoms: C_9  and  C_4 
REMARK    4  A    between atoms: C_10  and  C_5 
REMARK    5  A    between atoms: C_15  and  N_7 
REMARK    6  A    between atoms: O_23  and  C_17 
ROOT
ATOM      1  N   UNL d   1      58.306  -0.571  29.977  0.00  0.00    -0.203 N 
ATOM      2  N   UNL d   1      58.688  -1.145  29.498  0.00  0.00    -0.163 NA
ATOM      3  C   UNL d   1      58.494  -1.884  29.795  0.00  0.00     0.103 A 
ATOM      4  C   UNL d   1      57.880  -0.974  30.569  0.00  0.00     0.087 A 
ATOM      5  C   UNL d   1      58.011  -1.804  30.436  0.00  0.00     0.040 A 
ENDROOT
BRANCH   1   6
ATOM      6  C   UNL d   1      58.344   0.264  29.883  0.00  0.00     0.222 C 
ATOM      7  S   UNL d   1      57.716   0.652  29.530  0.00  0.00    -0.037 SA
BRANCH   6   8
ATOM      8  N   UNL d   1      59.005   0.676  30.145  0.00  0.00    -0.217 NA
BRANCH   8   9
ATOM      9  C   UNL d   1      59.695   0.675  29.698  0.00  0.00     0.084 A 
ATOM     10  C   UNL d   1      60.428   0.666  30.096  0.00  0.00     0.019 A 
ATOM     11  C   UNL d   1      61.122   0.665  29.649  0.00  0.00     0.002 A 
ATOM     12  C   UNL d   1      61.069   0.672  28.844  0.00  0.00     0.000 A 
ATOM     13  C   UNL d   1      60.352   0.680  28.458  0.00  0.00     0.002 A 
ATOM     14  C   UNL d   1      59.666   0.682  28.884  0.00  0.00     0.019 A 
ENDBRANCH   8   9
ENDBRANCH   6   8
ENDBRANCH   1   6
BRANCH   4  15
ATOM     15  C   UNL d   1      57.408  -0.666  31.183  0.00  0.00     0.018 A 
ATOM     16  C   UNL d   1      57.675  -0.042  31.650  0.00  0.00     0.004 A 
ATOM     17  C   UNL d   1      57.198   0.255  32.256  0.00  0.00     0.024 A 
ATOM     18  C   UNL d   1      56.472  -0.058  32.398  0.00  0.00     0.094 A 
ATOM     19  C   UNL d   1      56.185  -0.699  31.926  0.00  0.00     0.024 A 
ATOM     20  C   UNL d   1      56.664  -0.990  31.324  0.00  0.00     0.004 A 
BRANCH  18  21
ATOM     21  O   UNL d   1      56.011   0.276  33.032  0.00  0.00    -0.328 OA
ATOM     22  C   UNL d   1      55.663  -0.224  33.609  0.00  0.00     0.181 C 
ENDBRANCH  18  21
ENDBRANCH   4  15
BRANCH   3  23
ATOM     23  C   UNL d   1      58.777  -2.583  29.455  0.00  0.00     0.019 A 
ATOM     24  C   UNL d   1      58.388  -2.937  28.834  0.00  0.00     0.002 A 
ATOM     25  C   UNL d   1      58.669  -3.633  28.495  0.00  0.00     0.007 A 
ATOM     26  C   UNL d   1      59.358  -3.976  28.792  0.00  0.00     0.035 A 
ATOM     27  C   UNL d   1      59.761  -3.621  29.426  0.00  0.00     0.007 A 
ATOM     28 BR   UNL d   1      59.655  -4.676  28.463  0.00  0.00    -0.049 Br
ATOM     29  C   UNL d   1      59.478  -2.921  29.766  0.00  0.00     0.002 A 
ENDBRANCH   3  23
TORSDOF 6
ENDMDL
