MODEL 1
REMARK VINA RESULT:      -2.5      0.000      0.000
REMARK  2 active torsions:
REMARK  status: ('A' for Active; 'I' for Inactive)
REMARK    1  A    between atoms: O_3  and  C_1 
REMARK    2  A    between atoms: C_2  and  O_3 
REMARK       I    between atoms: N_7  and  C_2 
ROOT
ATOM      1  C   UNL d   1      33.237  20.401 -22.233  0.00  0.00     0.133 A 
ATOM      2  C   UNL d   1      33.237  20.404 -23.071  0.00  0.00     0.106 A 
ATOM      3  C   UNL d   1      33.233  19.694 -23.478  0.00  0.00     0.030 A 
ATOM      4  C   UNL d   1      33.233  19.688 -21.824  0.00  0.00     0.083 A 
ATOM      5  C   UNL d   1      33.229  18.975 -23.076  0.00  0.00     0.060 A 
ATOM      6  C   UNL d   1      33.229  18.972 -22.238  0.00  0.00     0.025 A 
ATOM      7  N   UNL d   1      33.241  21.126 -23.473  0.00  0.00    -0.242 NA
ATOM      8 CL   UNL d   1      33.233  19.685 -20.999  0.00  0.00    -0.080 Cl
ATOM      9 CL   UNL d   1      33.225  18.256 -23.482  0.00  0.00    -0.082 Cl
ATOM     10  C   UNL d   1      33.233  19.696 -24.303  0.00  0.00     0.004 A 
ATOM     11  C   UNL d   1      33.241  21.129 -24.298  0.00  0.00     0.099 A 
ATOM     12  C   UNL d   1      33.237  20.410 -24.712  0.00  0.00     0.021 A 
ENDROOT
BRANCH   1  13
ATOM     13  O   UNL d   1      33.241  21.121 -21.806  0.00  0.00    -0.257 OA
BRANCH  13  14
ATOM     14  C   UNL d   1      32.532  21.408 -21.463  0.00  0.00     0.378 C 
ATOM     15  N   UNL d   1      32.513  22.149 -21.114  0.00  0.00    -0.252 N 
ATOM     16  C   UNL d   1      31.811  22.428 -20.777  0.00  0.00     0.085 A 
ATOM     17  C   UNL d   1      33.192  22.618 -21.098  0.00  0.00     0.085 A 
ATOM     18  C   UNL d   1      31.789  23.173 -20.426  0.00  0.00     0.019 A 
ATOM     19  C   UNL d   1      32.468  23.642 -20.410  0.00  0.00     0.003 A 
ATOM     20  C   UNL d   1      33.164  23.364 -20.746  0.00  0.00     0.019 A 
ATOM     21  O   UNL d   1      31.844  20.932 -21.479  0.00  0.00    -0.237 OA
ENDBRANCH  13  14
ENDBRANCH   1  13
TORSDOF 2
ENDMDL
MODEL 2
REMARK VINA RESULT:      -2.4      2.285      4.558
REMARK  2 active torsions:
REMARK  status: ('A' for Active; 'I' for Inactive)
REMARK    1  A    between atoms: O_3  and  C_1 
REMARK    2  A    between atoms: C_2  and  O_3 
REMARK       I    between atoms: N_7  and  C_2 
ROOT
ATOM      1  C   UNL d   1      33.217  19.218 -23.573  0.00  0.00     0.133 A 
ATOM      2  C   UNL d   1      33.224  19.621 -22.838  0.00  0.00     0.106 A 
ATOM      3  C   UNL d   1      33.232  20.439 -22.826  0.00  0.00     0.030 A 
ATOM      4  C   UNL d   1      33.217  19.644 -24.276  0.00  0.00     0.083 A 
ATOM      5  C   UNL d   1      33.233  20.874 -23.525  0.00  0.00     0.060 A 
ATOM      6  C   UNL d   1      33.225  20.471 -24.259  0.00  0.00     0.025 A 
ATOM      7  N   UNL d   1      33.224  19.183 -22.137  0.00  0.00    -0.242 NA
ATOM      8 CL   UNL d   1      33.210  19.248 -25.000  0.00  0.00    -0.080 Cl
ATOM      9 CL   UNL d   1      33.241  21.700 -23.517  0.00  0.00    -0.082 Cl
ATOM     10  C   UNL d   1      33.240  20.836 -22.102  0.00  0.00     0.004 A 
ATOM     11  C   UNL d   1      33.231  19.579 -21.414  0.00  0.00     0.099 A 
ATOM     12  C   UNL d   1      33.239  20.409 -21.399  0.00  0.00     0.021 A 
ENDROOT
BRANCH   1  13
ATOM     13  O   UNL d   1      33.209  18.382 -23.599  0.00  0.00    -0.257 OA
BRANCH  13  14
ATOM     14  C   UNL d   1      32.482  17.973 -23.677  0.00  0.00     0.378 C 
ATOM     15  N   UNL d   1      32.462  17.154 -23.632  0.00  0.00    -0.252 N 
ATOM     16  C   UNL d   1      31.741  16.756 -23.710  0.00  0.00     0.085 A 
ATOM     17  C   UNL d   1      33.158  16.728 -23.511  0.00  0.00     0.085 A 
ATOM     18  C   UNL d   1      31.719  15.933 -23.666  0.00  0.00     0.019 A 
ATOM     19  C   UNL d   1      32.414  15.506 -23.544  0.00  0.00     0.003 A 
ATOM     20  C   UNL d   1      33.129  15.904 -23.467  0.00  0.00     0.019 A 
ATOM     21  O   UNL d   1      31.776  18.405 -23.800  0.00  0.00    -0.237 OA
ENDBRANCH  13  14
ENDBRANCH   1  13
TORSDOF 2
ENDMDL
MODEL 3
REMARK VINA RESULT:      -2.1      3.944      5.283
REMARK  2 active torsions:
REMARK  status: ('A' for Active; 'I' for Inactive)
REMARK    1  A    between atoms: O_3  and  C_1 
REMARK    2  A    between atoms: C_2  and  O_3 
REMARK       I    between atoms: N_7  and  C_2 
ROOT
ATOM      1  C   UNL d   1      30.595  16.524 -23.969  0.00  0.00     0.133 A 
ATOM      2  C   UNL d   1      29.853  16.889 -24.109  0.00  0.00     0.106 A 
ATOM      3  C   UNL d   1      29.170  16.532 -23.834  0.00  0.00     0.030 A 
ATOM      4  C   UNL d   1      30.633  15.812 -23.558  0.00  0.00     0.083 A 
ATOM      5  C   UNL d   1      29.198  15.820 -23.422  0.00  0.00     0.060 A 
ATOM      6  C   UNL d   1      29.939  15.455 -23.283  0.00  0.00     0.025 A 
ATOM      7  N   UNL d   1      29.827  17.604 -24.522  0.00  0.00    -0.242 NA
ATOM      8 CL   UNL d   1      31.362  15.453 -23.421  0.00  0.00    -0.080 Cl
ATOM      9 CL   UNL d   1      28.510  15.458 -23.143  0.00  0.00    -0.082 Cl
ATOM     10  C   UNL d   1      28.440  16.892 -23.971  0.00  0.00     0.004 A 
ATOM     11  C   UNL d   1      29.097  17.963 -24.660  0.00  0.00     0.099 A 
ATOM     12  C   UNL d   1      28.402  17.604 -24.382  0.00  0.00     0.021 A 
ENDROOT
BRANCH   1  13
ATOM     13  O   UNL d   1      31.301  16.877 -24.245  0.00  0.00    -0.257 OA
BRANCH  13  14
ATOM     14  C   UNL d   1      31.777  17.326 -23.721  0.00  0.00     0.378 C 
ATOM     15  N   UNL d   1      32.251  17.930 -24.008  0.00  0.00    -0.252 N 
ATOM     16  C   UNL d   1      32.718  18.370 -23.486  0.00  0.00     0.085 A 
ATOM     17  C   UNL d   1      32.264  18.099 -24.816  0.00  0.00     0.085 A 
ATOM     18  C   UNL d   1      33.196  18.977 -23.773  0.00  0.00     0.019 A 
ATOM     19  C   UNL d   1      33.209  19.146 -24.580  0.00  0.00     0.003 A 
ATOM     20  C   UNL d   1      32.745  18.708 -25.097  0.00  0.00     0.019 A 
ATOM     21  O   UNL d   1      31.763  17.154 -22.902  0.00  0.00    -0.237 OA
ENDBRANCH  13  14
ENDBRANCH   1  13
TORSDOF 2
ENDMDL
MODEL 4
REMARK VINA RESULT:      -1.1      1.369      3.667
REMARK  2 active torsions:
REMARK  status: ('A' for Active; 'I' for Inactive)
REMARK    1  A    between atoms: O_3  and  C_1 
REMARK    2  A    between atoms: C_2  and  O_3 
REMARK       I    between atoms: N_7  and  C_2 
ROOT
ATOM      1  C   UNL d   1      33.099  21.381 -21.775  0.00  0.00     0.133 A 
ATOM      2  C   UNL d   1      32.967  22.156 -22.066  0.00  0.00     0.106 A 
ATOM      3  C   UNL d   1      32.850  22.771 -21.539  0.00  0.00     0.030 A 
ATOM      4  C   UNL d   1      33.110  21.241 -20.965  0.00  0.00     0.083 A 
ATOM      5  C   UNL d   1      32.859  22.640 -20.726  0.00  0.00     0.060 A 
ATOM      6  C   UNL d   1      32.991  21.866 -20.435  0.00  0.00     0.025 A 
ATOM      7  N   UNL d   1      32.958  22.285 -22.882  0.00  0.00    -0.242 NA
ATOM      8 CL   UNL d   1      33.241  20.479 -20.678  0.00  0.00    -0.080 Cl
ATOM      9 CL   UNL d   1      32.741  23.258 -20.190  0.00  0.00    -0.082 Cl
ATOM     10  C   UNL d   1      32.719  23.533 -21.825  0.00  0.00     0.004 A 
ATOM     11  C   UNL d   1      32.828  23.047 -23.169  0.00  0.00     0.099 A 
ATOM     12  C   UNL d   1      32.708  23.673 -22.636  0.00  0.00     0.021 A 
ENDROOT
BRANCH   1  13
ATOM     13  O   UNL d   1      33.221  20.743 -22.304  0.00  0.00    -0.257 OA
BRANCH  13  14
ATOM     14  C   UNL d   1      32.697  20.090 -22.298  0.00  0.00     0.378 C 
ATOM     15  N   UNL d   1      32.708  19.547 -22.912  0.00  0.00    -0.252 N 
ATOM     16  C   UNL d   1      32.189  18.903 -22.902  0.00  0.00     0.085 A 
ATOM     17  C   UNL d   1      33.236  19.640 -23.540  0.00  0.00     0.085 A 
ATOM     18  C   UNL d   1      32.198  18.356 -23.518  0.00  0.00     0.019 A 
ATOM     19  C   UNL d   1      32.726  18.449 -24.145  0.00  0.00     0.003 A 
ATOM     20  C   UNL d   1      33.241  19.089 -24.154  0.00  0.00     0.019 A 
ATOM     21  O   UNL d   1      32.162  19.995 -21.662  0.00  0.00    -0.237 OA
ENDBRANCH  13  14
ENDBRANCH   1  13
TORSDOF 2
ENDMDL
MODEL 5
REMARK VINA RESULT:      -1.0      0.952      1.148
REMARK  2 active torsions:
REMARK  status: ('A' for Active; 'I' for Inactive)
REMARK    1  A    between atoms: O_3  and  C_1 
REMARK    2  A    between atoms: C_2  and  O_3 
REMARK       I    between atoms: N_7  and  C_2 
ROOT
ATOM      1  C   UNL d   1      33.145  19.683 -22.735  0.00  0.00     0.133 A 
ATOM      2  C   UNL d   1      33.048  19.398 -23.517  0.00  0.00     0.106 A 
ATOM      3  C   UNL d   1      32.954  18.595 -23.646  0.00  0.00     0.030 A 
ATOM      4  C   UNL d   1      33.145  19.158 -22.102  0.00  0.00     0.083 A 
ATOM      5  C   UNL d   1      32.954  18.062 -23.018  0.00  0.00     0.060 A 
ATOM      6  C   UNL d   1      33.051  18.347 -22.236  0.00  0.00     0.025 A 
ATOM      7  N   UNL d   1      33.048  19.935 -24.145  0.00  0.00    -0.242 NA
ATOM      8 CL   UNL d   1      33.241  19.438 -21.332  0.00  0.00    -0.080 Cl
ATOM      9 CL   UNL d   1      32.860  17.251 -23.144  0.00  0.00    -0.082 Cl
ATOM     10  C   UNL d   1      32.859  18.315 -24.416  0.00  0.00     0.004 A 
ATOM     11  C   UNL d   1      32.953  19.654 -24.915  0.00  0.00     0.099 A 
ATOM     12  C   UNL d   1      32.858  18.840 -25.048  0.00  0.00     0.021 A 
ENDROOT
BRANCH   1  13
ATOM     13  O   UNL d   1      33.241  20.502 -22.590  0.00  0.00    -0.257 OA
BRANCH  13  14
ATOM     14  C   UNL d   1      32.778  20.880 -22.003  0.00  0.00     0.378 C 
ATOM     15  N   UNL d   1      32.781  21.697 -21.937  0.00  0.00    -0.252 N 
ATOM     16  C   UNL d   1      32.322  22.065 -21.356  0.00  0.00     0.085 A 
ATOM     17  C   UNL d   1      33.241  22.153 -22.449  0.00  0.00     0.085 A 
ATOM     18  C   UNL d   1      32.324  22.886 -21.288  0.00  0.00     0.019 A 
ATOM     19  C   UNL d   1      32.784  23.342 -21.800  0.00  0.00     0.003 A 
ATOM     20  C   UNL d   1      33.239  22.975 -22.376  0.00  0.00     0.019 A 
ATOM     21  O   UNL d   1      32.311  20.417 -21.484  0.00  0.00    -0.237 OA
ENDBRANCH  13  14
ENDBRANCH   1  13
TORSDOF 2
ENDMDL
