MODEL 1
REMARK VINA RESULT:      -0.1      0.000      0.000
REMARK  4 active torsions:
REMARK  status: ('A' for Active; 'I' for Inactive)
REMARK    1  A    between atoms: C_8  and  C_1 
REMARK    2  A    between atoms: C_10  and  C_7 
REMARK    3  A    between atoms: N_9  and  C_10 
REMARK    4  A    between atoms: O_23  and  C_15 
ROOT
ATOM      1  C   UNL d   1      56.716   0.109  32.581  0.00  0.00     0.064 A 
ATOM      2  C   UNL d   1      58.013   0.301  31.571  0.00  0.00     0.107 A 
ATOM      3  C   UNL d   1      57.456   0.300  32.890  0.00  0.00     0.199 A 
ATOM      4  C   UNL d   1      58.109   0.397  32.387  0.00  0.00     0.062 A 
ATOM      5  C   UNL d   1      56.618   0.012  31.757  0.00  0.00     0.103 A 
ATOM      6  O   UNL d   1      57.271   0.109  31.249  0.00  0.00    -0.307 OA
ATOM      7  C   UNL d   1      58.658   0.396  31.065  0.00  0.00     0.079 A 
ATOM      8  C   UNL d   1      58.850   0.587  32.691  0.00  0.00     0.009 A 
ATOM      9  C   UNL d   1      59.390   0.585  31.375  0.00  0.00     0.199 A 
ATOM     10  O   UNL d   1      57.552   0.395  33.697  0.00  0.00    -0.286 OA
ATOM     11  C   UNL d   1      59.486   0.681  32.191  0.00  0.00     0.042 A 
ATOM     12  C   UNL d   1      55.877  -0.179  31.448  0.00  0.00     0.027 C 
ATOM     13  O   UNL d   1      60.042   0.682  30.868  0.00  0.00    -0.286 OA
ENDROOT
BRANCH   1  14
ATOM     14  C   UNL d   1      56.071   0.014  33.087  0.00  0.00     0.027 A 
ATOM     15  C   UNL d   1      55.858  -0.741  33.349  0.00  0.00     0.094 A 
ATOM     16  C   UNL d   1      55.213  -0.827  33.855  0.00  0.00     0.024 A 
ATOM     17  C   UNL d   1      54.781  -0.167  34.099  0.00  0.00     0.002 A 
ATOM     18  C   UNL d   1      54.997   0.586  33.835  0.00  0.00     0.000 A 
ATOM     19  C   UNL d   1      55.642   0.682  33.328  0.00  0.00     0.002 A 
BRANCH  15  20
ATOM     20  O   UNL d   1      56.290  -1.400  33.105  0.00  0.00    -0.328 OA
ATOM     21  C   UNL d   1      56.085  -2.151  33.383  0.00  0.00     0.181 C 
ENDBRANCH  15  20
ENDBRANCH   1  14
BRANCH   7  22
ATOM     22  C   UNL d   1      58.562   0.300  30.249  0.00  0.00     0.086 C 
BRANCH  22  23
ATOM     23  N   UNL d   1      58.851  -0.375  29.876  0.00  0.00    -0.300 N 
ATOM     24  C   UNL d   1      59.563  -0.341  29.460  0.00  0.00     0.100 A 
ATOM     25  C   UNL d   1      59.862  -1.023  29.079  0.00  0.00     0.100 A 
ATOM     26  N   UNL d   1      59.444  -1.726  29.120  0.00  0.00    -0.299 N 
ATOM     27  C   UNL d   1      58.723  -1.754  29.543  0.00  0.00     0.100 A 
ATOM     28  C   UNL d   1      59.724  -2.405  28.751  0.00  0.00     0.100 C 
ATOM     29  C   UNL d   1      58.433  -1.078  29.917  0.00  0.00     0.100 A 
ENDBRANCH  22  23
ENDBRANCH   7  22
TORSDOF 4
ENDMDL
MODEL 2
REMARK VINA RESULT:       2.1      1.443      4.466
REMARK  4 active torsions:
REMARK  status: ('A' for Active; 'I' for Inactive)
REMARK    1  A    between atoms: C_8  and  C_1 
REMARK    2  A    between atoms: C_10  and  C_7 
REMARK    3  A    between atoms: N_9  and  C_10 
REMARK    4  A    between atoms: O_23  and  C_15 
ROOT
ATOM      1  C   UNL d   1      58.982  -0.121  30.265  0.00  0.00     0.064 A 
ATOM      2  C   UNL d   1      57.886   0.148  31.476  0.00  0.00     0.107 A 
ATOM      3  C   UNL d   1      59.237   0.147  31.003  0.00  0.00     0.199 A 
ATOM      4  C   UNL d   1      58.691   0.283  31.612  0.00  0.00     0.062 A 
ATOM      5  C   UNL d   1      58.168  -0.257  30.128  0.00  0.00     0.103 A 
ATOM      6  O   UNL d   1      57.618  -0.121  30.738  0.00  0.00    -0.307 OA
ATOM      7  C   UNL d   1      57.338   0.281  32.079  0.00  0.00     0.079 A 
ATOM      8  C   UNL d   1      58.942   0.550  32.350  0.00  0.00     0.009 A 
ATOM      9  C   UNL d   1      57.595   0.546  32.808  0.00  0.00     0.199 A 
ATOM     10  O   UNL d   1      60.033   0.280  31.137  0.00  0.00    -0.286 OA
ATOM     11  C   UNL d   1      58.399   0.681  32.944  0.00  0.00     0.042 A 
ATOM     12  C   UNL d   1      57.913  -0.524  29.390  0.00  0.00     0.027 C 
ATOM     13  O   UNL d   1      57.045   0.681  33.417  0.00  0.00    -0.286 OA
ENDROOT
BRANCH   1  14
ATOM     14  C   UNL d   1      59.530  -0.254  29.663  0.00  0.00     0.027 A 
ATOM     15  C   UNL d   1      59.741  -1.027  29.458  0.00  0.00     0.094 A 
ATOM     16  C   UNL d   1      60.289  -1.151  28.856  0.00  0.00     0.024 A 
ATOM     17  C   UNL d   1      60.627  -0.511  28.459  0.00  0.00     0.002 A 
ATOM     18  C   UNL d   1      60.415   0.260  28.667  0.00  0.00     0.000 A 
ATOM     19  C   UNL d   1      59.866   0.394  29.269  0.00  0.00     0.002 A 
BRANCH  15  20
ATOM     20  O   UNL d   1      59.402  -1.666  29.855  0.00  0.00    -0.328 OA
ATOM     21  C   UNL d   1      59.771  -2.406  29.831  0.00  0.00     0.181 C 
ENDBRANCH  15  20
ENDBRANCH   1  14
BRANCH   7  22
ATOM     22  C   UNL d   1      56.533   0.147  31.943  0.00  0.00     0.086 C 
BRANCH  22  23
ATOM     23  N   UNL d   1      56.126  -0.411  32.393  0.00  0.00    -0.300 N 
ATOM     24  C   UNL d   1      56.301  -1.212  32.311  0.00  0.00     0.100 A 
ATOM     25  C   UNL d   1      55.892  -1.783  32.764  0.00  0.00     0.100 A 
ATOM     26  N   UNL d   1      55.314  -1.542  33.292  0.00  0.00    -0.299 N 
ATOM     27  C   UNL d   1      55.140  -0.727  33.371  0.00  0.00     0.100 A 
ATOM     28  C   UNL d   1      54.902  -2.090  33.745  0.00  0.00     0.100 C 
ATOM     29  C   UNL d   1      55.548  -0.169  32.921  0.00  0.00     0.100 A 
ENDBRANCH  22  23
ENDBRANCH   7  22
TORSDOF 4
ENDMDL
