MODEL 1
REMARK VINA RESULT:      -4.0      0.000      0.000
REMARK  4 active torsions:
REMARK  status: ('A' for Active; 'I' for Inactive)
REMARK    1  A    between atoms: C_9  and  C_2 
REMARK    2  A    between atoms: S_8  and  C_4 
REMARK       I    between atoms: N_6  and  C_7 
REMARK    3  A    between atoms: C_7  and  C_10 
REMARK    4  A    between atoms: C_10  and  S_8 
ROOT
ATOM      1  N   UNL d   1      58.435  -0.286  30.629  0.00  0.00    -0.212 NA
ATOM      2  C   UNL d   1      58.412  -0.368  29.818  0.00  0.00     0.171 A 
ATOM      3  N   UNL d   1      57.906   0.208  29.514  0.00  0.00    -0.188 NA
ATOM      4  C   UNL d   1      57.946   0.340  30.844  0.00  0.00     0.160 A 
ATOM      5  S   UNL d   1      57.618   0.646  30.149  0.00  0.00     0.041 SA
ENDROOT
BRANCH   4   6
ATOM      6  S   UNL d   1      57.804   0.617  31.608  0.00  0.00    -0.054 SA
BRANCH   6   7
ATOM      7  C   UNL d   1      57.210   0.286  32.059  0.00  0.00     0.098 C 
BRANCH   7   8
ATOM      8  C   UNL d   1      57.171   0.424  32.875  0.00  0.00     0.272 C 
ATOM      9  N   UNL d   1      56.470   0.312  33.296  0.00  0.00    -0.267 N 
ATOM     10  C   UNL d   1      56.454   0.455  34.103  0.00  0.00     0.110 A 
ATOM     11  C   UNL d   1      55.795   0.056  32.898  0.00  0.00     0.110 A 
ATOM     12  C   UNL d   1      55.746   0.340  34.522  0.00  0.00     0.142 A 
ATOM     13  O   UNL d   1      55.068   0.086  34.137  0.00  0.00    -0.300 OA
ATOM     14  C   UNL d   1      55.087  -0.059  33.317  0.00  0.00     0.142 A 
ATOM     15  O   UNL d   1      57.854   0.682  33.275  0.00  0.00    -0.266 OA
ENDBRANCH   7   8
ENDBRANCH   6   7
ENDBRANCH   4   6
BRANCH   2  16
ATOM     16  C   UNL d   1      58.820  -0.927  29.369  0.00  0.00     0.036 A 
ATOM     17  C   UNL d   1      59.508  -0.720  28.989  0.00  0.00     0.003 A 
ATOM     18  C   UNL d   1      59.923  -1.263  28.541  0.00  0.00     0.000 A 
ATOM     19  C   UNL d   1      59.637  -2.037  28.474  0.00  0.00     0.000 A 
ATOM     20  C   UNL d   1      58.944  -2.254  28.854  0.00  0.00     0.000 A 
ATOM     21  C   UNL d   1      58.539  -1.706  29.297  0.00  0.00     0.003 A 
ENDBRANCH   2  16
TORSDOF 4
ENDMDL
MODEL 2
REMARK VINA RESULT:      -3.1      9.278     10.293
REMARK  4 active torsions:
REMARK  status: ('A' for Active; 'I' for Inactive)
REMARK    1  A    between atoms: C_9  and  C_2 
REMARK    2  A    between atoms: S_8  and  C_4 
REMARK       I    between atoms: N_6  and  C_7 
REMARK    3  A    between atoms: C_7  and  C_10 
REMARK    4  A    between atoms: C_10  and  S_8 
ROOT
ATOM      1  N   UNL d   1      59.000  -8.999  33.948  0.00  0.00    -0.212 NA
ATOM      2  C   UNL d   1      59.690  -8.903  34.372  0.00  0.00     0.171 A 
ATOM      3  N   UNL d   1      60.264  -9.398  34.047  0.00  0.00    -0.188 NA
ATOM      4  C   UNL d   1      59.131  -9.553  33.354  0.00  0.00     0.160 A 
ATOM      5  S   UNL d   1      59.918  -9.800  33.417  0.00  0.00     0.041 SA
ENDROOT
BRANCH   4   6
ATOM      6  S   UNL d   1      58.585  -9.817  32.795  0.00  0.00    -0.054 SA
BRANCH   6   7
ATOM      7  C   UNL d   1      58.686  -9.632  32.006  0.00  0.00     0.098 C 
BRANCH   7   8
ATOM      8  C   UNL d   1      58.041  -9.635  31.486  0.00  0.00     0.272 C 
ATOM      9  N   UNL d   1      58.149  -9.695  30.670  0.00  0.00    -0.267 N 
ATOM     10  C   UNL d   1      57.496  -9.696  30.174  0.00  0.00     0.110 A 
ATOM     11  C   UNL d   1      58.913  -9.753  30.365  0.00  0.00     0.110 A 
ATOM     12  C   UNL d   1      57.610  -9.756  29.353  0.00  0.00     0.142 A 
ATOM     13  O   UNL d   1      58.366  -9.814  29.038  0.00  0.00    -0.300 OA
ATOM     14  C   UNL d   1      59.027  -9.813  29.545  0.00  0.00     0.142 A 
ATOM     15  O   UNL d   1      57.271  -9.577  31.796  0.00  0.00    -0.266 OA
ENDBRANCH   7   8
ENDBRANCH   6   7
ENDBRANCH   4   6
BRANCH   2  16
ATOM     16  C   UNL d   1      59.805  -8.401  35.017  0.00  0.00     0.036 A 
ATOM     17  C   UNL d   1      59.167  -8.147  35.453  0.00  0.00     0.003 A 
ATOM     18  C   UNL d   1      59.266  -7.650  36.094  0.00  0.00     0.000 A 
ATOM     19  C   UNL d   1      60.027  -7.401  36.302  0.00  0.00     0.000 A 
ATOM     20  C   UNL d   1      60.676  -7.652  35.867  0.00  0.00     0.000 A 
ATOM     21  C   UNL d   1      60.567  -8.147  35.231  0.00  0.00     0.003 A 
ENDBRANCH   2  16
TORSDOF 4
ENDMDL
MODEL 3
REMARK VINA RESULT:      -2.6      2.016      4.973
REMARK  4 active torsions:
REMARK  status: ('A' for Active; 'I' for Inactive)
REMARK    1  A    between atoms: C_9  and  C_2 
REMARK    2  A    between atoms: S_8  and  C_4 
REMARK       I    between atoms: N_6  and  C_7 
REMARK    3  A    between atoms: C_7  and  C_10 
REMARK    4  A    between atoms: C_10  and  S_8 
ROOT
ATOM      1  N   UNL d   1      57.573  -0.302  31.409  0.00  0.00    -0.212 NA
ATOM      2  C   UNL d   1      56.873   0.059  31.619  0.00  0.00     0.171 A 
ATOM      3  N   UNL d   1      56.726   0.670  31.086  0.00  0.00    -0.188 NA
ATOM      4  C   UNL d   1      57.875   0.077  30.743  0.00  0.00     0.160 A 
ATOM      5  S   UNL d   1      57.346   0.682  30.544  0.00  0.00     0.041 SA
ENDROOT
BRANCH   4   6
ATOM      6  S   UNL d   1      58.573  -0.105  30.343  0.00  0.00    -0.054 SA
BRANCH   6   7
ATOM      7  C   UNL d   1      58.616  -0.777  29.882  0.00  0.00     0.098 C 
BRANCH   7   8
ATOM      8  C   UNL d   1      59.322  -0.985  29.503  0.00  0.00     0.272 C 
ATOM      9  N   UNL d   1      59.424  -1.731  29.165  0.00  0.00    -0.267 N 
ATOM     10  C   UNL d   1      60.131  -1.916  28.795  0.00  0.00     0.110 A 
ATOM     11  C   UNL d   1      58.810  -2.281  29.205  0.00  0.00     0.110 A 
ATOM     12  C   UNL d   1      60.229  -2.668  28.456  0.00  0.00     0.142 A 
ATOM     13  O   UNL d   1      59.625  -3.224  28.489  0.00  0.00    -0.300 OA
ATOM     14  C   UNL d   1      58.907  -3.033  28.866  0.00  0.00     0.142 A 
ATOM     15  O   UNL d   1      59.940  -0.429  29.464  0.00  0.00    -0.266 OA
ENDBRANCH   7   8
ENDBRANCH   6   7
ENDBRANCH   4   6
BRANCH   2  16
ATOM     16  C   UNL d   1      56.386  -0.146  32.254  0.00  0.00     0.036 A 
ATOM     17  C   UNL d   1      56.257  -0.929  32.431  0.00  0.00     0.003 A 
ATOM     18  C   UNL d   1      55.778  -1.146  33.057  0.00  0.00     0.000 A 
ATOM     19  C   UNL d   1      55.420  -0.559  33.517  0.00  0.00     0.000 A 
ATOM     20  C   UNL d   1      55.545   0.233  33.346  0.00  0.00     0.000 A 
ATOM     21  C   UNL d   1      56.024   0.439  32.721  0.00  0.00     0.003 A 
ENDBRANCH   2  16
TORSDOF 4
ENDMDL
MODEL 4
REMARK VINA RESULT:      -2.2      8.936      9.450
REMARK  4 active torsions:
REMARK  status: ('A' for Active; 'I' for Inactive)
REMARK    1  A    between atoms: C_9  and  C_2 
REMARK    2  A    between atoms: S_8  and  C_4 
REMARK       I    between atoms: N_6  and  C_7 
REMARK    3  A    between atoms: C_7  and  C_10 
REMARK    4  A    between atoms: C_10  and  S_8 
ROOT
ATOM      1  N   UNL d   1      59.473  -9.756  31.899  0.00  0.00    -0.212 NA
ATOM      2  C   UNL d   1      58.919  -9.748  31.301  0.00  0.00     0.171 A 
ATOM      3  N   UNL d   1      58.169  -9.777  31.642  0.00  0.00    -0.188 NA
ATOM      4  C   UNL d   1      59.080  -9.789  32.621  0.00  0.00     0.160 A 
ATOM      5  S   UNL d   1      58.269  -9.802  32.460  0.00  0.00     0.041 SA
ENDROOT
BRANCH   4   6
ATOM      6  S   UNL d   1      59.423  -9.806  33.371  0.00  0.00    -0.054 SA
BRANCH   6   7
ATOM      7  C   UNL d   1      59.588  -9.108  33.762  0.00  0.00     0.098 C 
BRANCH   7   8
ATOM      8  C   UNL d   1      60.062  -9.105  34.441  0.00  0.00     0.272 C 
ATOM      9  N   UNL d   1      59.967  -8.533  35.027  0.00  0.00    -0.267 N 
ATOM     10  C   UNL d   1      60.447  -8.549  35.692  0.00  0.00     0.110 A 
ATOM     11  C   UNL d   1      59.389  -7.952  34.937  0.00  0.00     0.110 A 
ATOM     12  C   UNL d   1      60.348  -7.971  36.280  0.00  0.00     0.142 A 
ATOM     13  O   UNL d   1      59.775  -7.387  36.200  0.00  0.00    -0.300 OA
ATOM     14  C   UNL d   1      59.289  -7.373  35.525  0.00  0.00     0.142 A 
ATOM     15  O   UNL d   1      60.645  -9.693  34.530  0.00  0.00    -0.266 OA
ENDBRANCH   7   8
ENDBRANCH   6   7
ENDBRANCH   4   6
BRANCH   2  16
ATOM     16  C   UNL d   1      59.072  -9.718  30.490  0.00  0.00     0.036 A 
ATOM     17  C   UNL d   1      59.831  -9.817  30.216  0.00  0.00     0.003 A 
ATOM     18  C   UNL d   1      59.997  -9.789  29.416  0.00  0.00     0.000 A 
ATOM     19  C   UNL d   1      59.382  -9.657  28.878  0.00  0.00     0.000 A 
ATOM     20  C   UNL d   1      58.614  -9.556  29.146  0.00  0.00     0.000 A 
ATOM     21  C   UNL d   1      58.459  -9.585  29.944  0.00  0.00     0.003 A 
ENDBRANCH   2  16
TORSDOF 4
ENDMDL
MODEL 5
REMARK VINA RESULT:      -2.1      1.381      1.950
REMARK  4 active torsions:
REMARK  status: ('A' for Active; 'I' for Inactive)
REMARK    1  A    between atoms: C_9  and  C_2 
REMARK    2  A    between atoms: S_8  and  C_4 
REMARK       I    between atoms: N_6  and  C_7 
REMARK    3  A    between atoms: C_7  and  C_10 
REMARK    4  A    between atoms: C_10  and  S_8 
ROOT
ATOM      1  N   UNL d   1      57.147   0.389  31.279  0.00  0.00    -0.212 NA
ATOM      2  C   UNL d   1      57.484  -0.232  30.872  0.00  0.00     0.171 A 
ATOM      3  N   UNL d   1      57.219  -0.936  31.209  0.00  0.00    -0.188 NA
ATOM      4  C   UNL d   1      56.669   0.085  31.875  0.00  0.00     0.160 A 
ATOM      5  S   UNL d   1      56.714  -0.740  31.830  0.00  0.00     0.041 SA
ENDROOT
BRANCH   4   6
ATOM      6  S   UNL d   1      56.223   0.514  32.420  0.00  0.00    -0.054 SA
BRANCH   6   7
ATOM      7  C   UNL d   1      56.180   0.268  33.198  0.00  0.00     0.098 C 
BRANCH   7   8
ATOM      8  C   UNL d   1      55.489   0.384  33.640  0.00  0.00     0.272 C 
ATOM      9  N   UNL d   1      55.515   0.476  34.459  0.00  0.00    -0.267 N 
ATOM     10  C   UNL d   1      54.819   0.590  34.877  0.00  0.00     0.110 A 
ATOM     11  C   UNL d   1      56.243   0.452  34.847  0.00  0.00     0.110 A 
ATOM     12  C   UNL d   1      54.851   0.682  35.702  0.00  0.00     0.142 A 
ATOM     13  O   UNL d   1      55.569   0.660  36.099  0.00  0.00    -0.300 OA
ATOM     14  C   UNL d   1      56.274   0.544  35.672  0.00  0.00     0.142 A 
ATOM     15  O   UNL d   1      54.756   0.408  33.246  0.00  0.00    -0.266 OA
ENDBRANCH   7   8
ENDBRANCH   6   7
ENDBRANCH   4   6
BRANCH   2  16
ATOM     16  C   UNL d   1      58.001  -0.177  30.231  0.00  0.00     0.036 A 
ATOM     17  C   UNL d   1      58.121   0.540  29.866  0.00  0.00     0.003 A 
ATOM     18  C   UNL d   1      58.631   0.610  29.231  0.00  0.00     0.000 A 
ATOM     19  C   UNL d   1      59.030  -0.061  28.955  0.00  0.00     0.000 A 
ATOM     20  C   UNL d   1      58.914  -0.788  29.317  0.00  0.00     0.000 A 
ATOM     21  C   UNL d   1      58.405  -0.846  29.948  0.00  0.00     0.003 A 
ENDBRANCH   2  16
TORSDOF 4
ENDMDL
MODEL 6
REMARK VINA RESULT:      -1.9      1.661      5.456
REMARK  4 active torsions:
REMARK  status: ('A' for Active; 'I' for Inactive)
REMARK    1  A    between atoms: C_9  and  C_2 
REMARK    2  A    between atoms: S_8  and  C_4 
REMARK       I    between atoms: N_6  and  C_7 
REMARK    3  A    between atoms: C_7  and  C_10 
REMARK    4  A    between atoms: C_10  and  S_8 
ROOT
ATOM      1  N   UNL d   1      55.616  -0.241  33.070  0.00  0.00    -0.212 NA
ATOM      2  C   UNL d   1      55.625   0.288  33.691  0.00  0.00     0.171 A 
ATOM      3  N   UNL d   1      56.352   0.677  33.689  0.00  0.00    -0.188 NA
ATOM      4  C   UNL d   1      56.334  -0.191  32.672  0.00  0.00     0.160 A 
ATOM      5  S   UNL d   1      56.791   0.380  33.058  0.00  0.00     0.041 SA
ENDROOT
BRANCH   4   6
ATOM      6  S   UNL d   1      56.564  -0.626  32.010  0.00  0.00    -0.054 SA
BRANCH   6   7
ATOM      7  C   UNL d   1      57.287  -0.483  31.658  0.00  0.00     0.098 C 
BRANCH   7   8
ATOM      8  C   UNL d   1      57.508  -0.887  30.969  0.00  0.00     0.272 C 
ATOM      9  N   UNL d   1      57.948  -0.516  30.378  0.00  0.00    -0.267 N 
ATOM     10  C   UNL d   1      58.156  -0.934  29.704  0.00  0.00     0.110 A 
ATOM     11  C   UNL d   1      58.171   0.273  30.473  0.00  0.00     0.110 A 
ATOM     12  C   UNL d   1      58.599  -0.555  29.111  0.00  0.00     0.142 A 
ATOM     13  O   UNL d   1      58.827   0.229  29.195  0.00  0.00    -0.300 OA
ATOM     14  C   UNL d   1      58.614   0.651  29.880  0.00  0.00     0.142 A 
ATOM     15  O   UNL d   1      57.282  -1.682  30.875  0.00  0.00    -0.266 OA
ENDBRANCH   7   8
ENDBRANCH   6   7
ENDBRANCH   4   6
BRANCH   2  16
ATOM     16  C   UNL d   1      55.016   0.419  34.234  0.00  0.00     0.036 A 
ATOM     17  C   UNL d   1      54.243   0.420  33.984  0.00  0.00     0.003 A 
ATOM     18  C   UNL d   1      53.631   0.548  34.510  0.00  0.00     0.000 A 
ATOM     19  C   UNL d   1      53.802   0.680  35.309  0.00  0.00     0.000 A 
ATOM     20  C   UNL d   1      54.580   0.681  35.569  0.00  0.00     0.000 A 
ATOM     21  C   UNL d   1      55.182   0.552  35.037  0.00  0.00     0.003 A 
ENDBRANCH   2  16
TORSDOF 4
ENDMDL
