MODEL 1
REMARK VINA RESULT:      -4.4      0.000      0.000
REMARK  0 active torsions:
REMARK  status: ('A' for Active; 'I' for Inactive)
ROOT
ATOM      1  N   UNL d   1      56.628  -0.753  32.330  0.00  0.00    -0.300 N 
ATOM      2  C   UNL d   1      56.790   0.318  33.254  0.00  0.00     0.295 A 
ATOM      3  N   UNL d   1      57.314   0.682  32.719  0.00  0.00    -0.205 NA
ATOM      4  C   UNL d   1      56.444  -0.405  33.059  0.00  0.00     0.123 A 
ATOM      5  C   UNL d   1      57.138  -0.398  31.810  0.00  0.00     0.082 A 
ATOM      6  C   UNL d   1      57.484   0.318  31.998  0.00  0.00     0.101 A 
ATOM      7  O   UNL d   1      56.610   0.656  33.965  0.00  0.00    -0.264 OA
ATOM      8  C   UNL d   1      56.215  -1.449  32.286  0.00  0.00     0.080 A 
ATOM      9  C   UNL d   1      55.912  -0.901  33.457  0.00  0.00     0.024 A 
ATOM     10  C   UNL d   1      57.306  -0.770  31.083  0.00  0.00     0.019 A 
ATOM     11  C   UNL d   1      58.008   0.682  31.463  0.00  0.00     0.021 A 
ATOM     12  C   UNL d   1      55.772  -1.563  32.958  0.00  0.00     0.021 A 
ATOM     13  C   UNL d   1      57.830  -0.405  30.548  0.00  0.00     0.002 A 
ATOM     14  C   UNL d   1      58.168   0.308  30.747  0.00  0.00     0.002 A 
ENDROOT
TORSDOF 0
ENDMDL
MODEL 2
REMARK VINA RESULT:      -3.7      9.289      9.603
REMARK  0 active torsions:
REMARK  status: ('A' for Active; 'I' for Inactive)
ROOT
ATOM      1  N   UNL d   1      60.512  -8.385  35.130  0.00  0.00    -0.300 N 
ATOM      2  C   UNL d   1      59.271  -8.800  35.690  0.00  0.00     0.295 A 
ATOM      3  N   UNL d   1      59.142  -9.274  35.017  0.00  0.00    -0.205 NA
ATOM      4  C   UNL d   1      59.961  -8.351  35.747  0.00  0.00     0.123 A 
ATOM      5  C   UNL d   1      60.387  -8.846  34.476  0.00  0.00     0.082 A 
ATOM      6  C   UNL d   1      59.705  -9.293  34.414  0.00  0.00     0.101 A 
ATOM      7  O   UNL d   1      58.734  -8.766  36.293  0.00  0.00    -0.264 OA
ATOM      8  C   UNL d   1      61.127  -7.896  35.332  0.00  0.00     0.080 A 
ATOM      9  C   UNL d   1      60.251  -7.834  36.327  0.00  0.00     0.024 A 
ATOM     10  C   UNL d   1      60.958  -8.862  33.870  0.00  0.00     0.019 A 
ATOM     11  C   UNL d   1      59.576  -9.767  33.742  0.00  0.00     0.021 A 
ATOM     12  C   UNL d   1      60.993  -7.549  36.055  0.00  0.00     0.021 A 
ATOM     13  C   UNL d   1      60.829  -9.337  33.198  0.00  0.00     0.002 A 
ATOM     14  C   UNL d   1      60.146  -9.777  33.148  0.00  0.00     0.002 A 
ENDROOT
TORSDOF 0
ENDMDL
MODEL 3
REMARK VINA RESULT:      -3.6      2.049      3.538
REMARK  0 active torsions:
REMARK  status: ('A' for Active; 'I' for Inactive)
ROOT
ATOM      1  N   UNL d   1      58.238   0.039  30.012  0.00  0.00    -0.300 N 
ATOM      2  C   UNL d   1      58.249  -1.377  29.863  0.00  0.00     0.295 A 
ATOM      3  N   UNL d   1      57.734  -1.436  30.516  0.00  0.00    -0.205 NA
ATOM      4  C   UNL d   1      58.504  -0.635  29.609  0.00  0.00     0.123 A 
ATOM      5  C   UNL d   1      57.737  -0.019  30.646  0.00  0.00     0.082 A 
ATOM      6  C   UNL d   1      57.482  -0.752  30.902  0.00  0.00     0.101 A 
ATOM      7  O   UNL d   1      58.509  -2.033  29.469  0.00  0.00    -0.264 OA
ATOM      8  C   UNL d   1      58.570   0.682  29.647  0.00  0.00     0.080 A 
ATOM      9  C   UNL d   1      59.003  -0.390  28.994  0.00  0.00     0.024 A 
ATOM     10  C   UNL d   1      57.485   0.674  31.033  0.00  0.00     0.019 A 
ATOM     11  C   UNL d   1      56.968  -0.811  31.554  0.00  0.00     0.021 A 
ATOM     12  C   UNL d   1      59.040   0.449  29.025  0.00  0.00     0.021 A 
ATOM     13  C   UNL d   1      56.970   0.615  31.685  0.00  0.00     0.002 A 
ATOM     14  C   UNL d   1      56.724  -0.121  31.931  0.00  0.00     0.002 A 
ENDROOT
TORSDOF 0
ENDMDL
MODEL 4
REMARK VINA RESULT:      -3.5      9.146      9.524
REMARK  0 active torsions:
REMARK  status: ('A' for Active; 'I' for Inactive)
ROOT
ATOM      1  N   UNL d   1      59.546  -8.954  34.649  0.00  0.00    -0.300 N 
ATOM      2  C   UNL d   1      60.730  -8.989  33.861  0.00  0.00     0.295 A 
ATOM      3  N   UNL d   1      61.076  -8.438  34.381  0.00  0.00    -0.205 NA
ATOM      4  C   UNL d   1      59.959  -9.250  33.995  0.00  0.00     0.123 A 
ATOM      5  C   UNL d   1      59.882  -8.417  35.155  0.00  0.00     0.082 A 
ATOM      6  C   UNL d   1      60.646  -8.156  35.026  0.00  0.00     0.101 A 
ATOM      7  O   UNL d   1      61.132  -9.279  33.222  0.00  0.00    -0.264 OA
ATOM      8  C   UNL d   1      58.813  -9.300  34.646  0.00  0.00     0.080 A 
ATOM      9  C   UNL d   1      59.465  -9.781  33.595  0.00  0.00     0.024 A 
ATOM     10  C   UNL d   1      59.445  -8.136  35.805  0.00  0.00     0.019 A 
ATOM     11  C   UNL d   1      60.992  -7.605  35.545  0.00  0.00     0.021 A 
ATOM     12  C   UNL d   1      58.738  -9.807  34.014  0.00  0.00     0.021 A 
ATOM     13  C   UNL d   1      59.791  -7.584  36.325  0.00  0.00     0.002 A 
ATOM     14  C   UNL d   1      60.553  -7.332  36.185  0.00  0.00     0.002 A 
ENDROOT
TORSDOF 0
ENDMDL
MODEL 5
REMARK VINA RESULT:      -3.5      1.736      3.193
REMARK  0 active torsions:
REMARK  status: ('A' for Active; 'I' for Inactive)
ROOT
ATOM      1  N   UNL d   1      56.893   0.667  33.613  0.00  0.00    -0.300 N 
ATOM      2  C   UNL d   1      56.421   0.637  32.270  0.00  0.00     0.295 A 
ATOM      3  N   UNL d   1      55.640   0.634  32.559  0.00  0.00    -0.205 NA
ATOM      4  C   UNL d   1      57.053   0.653  32.800  0.00  0.00     0.123 A 
ATOM      5  C   UNL d   1      56.133   0.665  33.894  0.00  0.00     0.082 A 
ATOM      6  C   UNL d   1      55.503   0.649  33.373  0.00  0.00     0.101 A 
ATOM      7  O   UNL d   1      56.579   0.623  31.477  0.00  0.00    -0.264 OA
ATOM      8  C   UNL d   1      57.606   0.682  33.997  0.00  0.00     0.080 A 
ATOM      9  C   UNL d   1      57.875   0.660  32.697  0.00  0.00     0.024 A 
ATOM     10  C   UNL d   1      56.000   0.679  34.716  0.00  0.00     0.019 A 
ATOM     11  C   UNL d   1      54.722   0.646  33.661  0.00  0.00     0.021 A 
ATOM     12  C   UNL d   1      58.220   0.678  33.463  0.00  0.00     0.021 A 
ATOM     13  C   UNL d   1      55.218   0.677  35.004  0.00  0.00     0.002 A 
ATOM     14  C   UNL d   1      54.600   0.660  34.475  0.00  0.00     0.002 A 
ENDROOT
TORSDOF 0
ENDMDL
MODEL 6
REMARK VINA RESULT:      -3.4      1.798      2.519
REMARK  0 active torsions:
REMARK  status: ('A' for Active; 'I' for Inactive)
ROOT
ATOM      1  N   UNL d   1      56.094   0.660  34.389  0.00  0.00    -0.300 N 
ATOM      2  C   UNL d   1      54.783   0.662  33.835  0.00  0.00     0.295 A 
ATOM      3  N   UNL d   1      55.120   0.647  33.073  0.00  0.00    -0.205 NA
ATOM      4  C   UNL d   1      55.272   0.668  34.498  0.00  0.00     0.123 A 
ATOM      5  C   UNL d   1      56.422   0.646  33.649  0.00  0.00     0.082 A 
ATOM      6  C   UNL d   1      55.941   0.640  32.988  0.00  0.00     0.101 A 
ATOM      7  O   UNL d   1      53.982   0.670  33.943  0.00  0.00    -0.264 OA
ATOM      8  C   UNL d   1      56.433   0.668  35.126  0.00  0.00     0.080 A 
ATOM      9  C   UNL d   1      55.119   0.682  35.313  0.00  0.00     0.024 A 
ATOM     10  C   UNL d   1      57.250   0.638  33.567  0.00  0.00     0.019 A 
ATOM     11  C   UNL d   1      56.278   0.625  32.226  0.00  0.00     0.021 A 
ATOM     12  C   UNL d   1      55.862   0.682  35.705  0.00  0.00     0.021 A 
ATOM     13  C   UNL d   1      57.587   0.624  32.806  0.00  0.00     0.002 A 
ATOM     14  C   UNL d   1      57.098   0.618  32.155  0.00  0.00     0.002 A 
ENDROOT
TORSDOF 0
ENDMDL
MODEL 7
REMARK VINA RESULT:      -3.1      9.576      9.881
REMARK  0 active torsions:
REMARK  status: ('A' for Active; 'I' for Inactive)
ROOT
ATOM      1  N   UNL d   1      59.468  -9.367  33.443  0.00  0.00    -0.300 N 
ATOM      2  C   UNL d   1      60.677  -9.549  32.713  0.00  0.00     0.295 A 
ATOM      3  N   UNL d   1      61.102  -9.288  33.380  0.00  0.00    -0.205 NA
ATOM      4  C   UNL d   1      59.854  -9.589  32.744  0.00  0.00     0.123 A 
ATOM      5  C   UNL d   1      59.882  -9.114  34.091  0.00  0.00     0.082 A 
ATOM      6  C   UNL d   1      60.698  -9.072  34.066  0.00  0.00     0.101 A 
ATOM      7  O   UNL d   1      61.051  -9.766  32.030  0.00  0.00    -0.264 OA
ATOM      8  C   UNL d   1      58.673  -9.460  33.318  0.00  0.00     0.080 A 
ATOM      9  C   UNL d   1      59.279  -9.818  32.192  0.00  0.00     0.024 A 
ATOM     10  C   UNL d   1      59.470  -8.896  34.782  0.00  0.00     0.019 A 
ATOM     11  C   UNL d   1      61.124  -8.812  34.733  0.00  0.00     0.021 A 
ATOM     12  C   UNL d   1      58.531  -9.733  32.565  0.00  0.00     0.021 A 
ATOM     13  C   UNL d   1      59.896  -8.636  35.449  0.00  0.00     0.002 A 
ATOM     14  C   UNL d   1      60.709  -8.599  35.411  0.00  0.00     0.002 A 
ENDROOT
TORSDOF 0
ENDMDL
MODEL 8
REMARK VINA RESULT:      -3.0      2.393      3.614
REMARK  0 active torsions:
REMARK  status: ('A' for Active; 'I' for Inactive)
ROOT
ATOM      1  N   UNL d   1      58.385  -0.954  29.699  0.00  0.00    -0.300 N 
ATOM      2  C   UNL d   1      58.718   0.274  29.062  0.00  0.00     0.295 A 
ATOM      3  N   UNL d   1      58.287   0.679  29.648  0.00  0.00    -0.205 NA
ATOM      4  C   UNL d   1      58.768  -0.549  29.087  0.00  0.00     0.123 A 
ATOM      5  C   UNL d   1      57.966  -0.560  30.269  0.00  0.00     0.082 A 
ATOM      6  C   UNL d   1      57.913   0.255  30.249  0.00  0.00     0.101 A 
ATOM      7  O   UNL d   1      59.093   0.668  28.464  0.00  0.00    -0.264 OA
ATOM      8  C   UNL d   1      58.525  -1.745  29.588  0.00  0.00     0.080 A 
ATOM      9  C   UNL d   1      59.144  -1.106  28.602  0.00  0.00     0.024 A 
ATOM     10  C   UNL d   1      57.590  -0.992  30.874  0.00  0.00     0.019 A 
ATOM     11  C   UNL d   1      57.482   0.661  30.835  0.00  0.00     0.021 A 
ATOM     12  C   UNL d   1      58.984  -1.864  28.926  0.00  0.00     0.021 A 
ATOM     13  C   UNL d   1      57.159  -0.586  31.460  0.00  0.00     0.002 A 
ATOM     14  C   UNL d   1      57.114   0.226  31.429  0.00  0.00     0.002 A 
ENDROOT
TORSDOF 0
ENDMDL
MODEL 9
REMARK VINA RESULT:      -2.9      3.491      4.560
REMARK  0 active torsions:
REMARK  status: ('A' for Active; 'I' for Inactive)
ROOT
ATOM      1  N   UNL d   1      59.892  -0.837  29.266  0.00  0.00    -0.300 N 
ATOM      2  C   UNL d   1      58.515  -0.555  29.489  0.00  0.00     0.295 A 
ATOM      3  N   UNL d   1      58.344  -1.360  29.365  0.00  0.00    -0.205 NA
ATOM      4  C   UNL d   1      59.294  -0.290  29.440  0.00  0.00     0.123 A 
ATOM      5  C   UNL d   1      59.726  -1.620  29.145  0.00  0.00     0.082 A 
ATOM      6  C   UNL d   1      58.955  -1.888  29.193  0.00  0.00     0.101 A 
ATOM      7  O   UNL d   1      57.933  -0.020  29.659  0.00  0.00    -0.264 OA
ATOM      8  C   UNL d   1      60.593  -0.429  29.252  0.00  0.00     0.080 A 
ATOM      9  C   UNL d   1      59.643   0.456  29.531  0.00  0.00     0.024 A 
ATOM     10  C   UNL d   1      60.345  -2.149  28.972  0.00  0.00     0.019 A 
ATOM     11  C   UNL d   1      58.784  -2.693  29.069  0.00  0.00     0.021 A 
ATOM     12  C   UNL d   1      60.469   0.360  29.410  0.00  0.00     0.021 A 
ATOM     13  C   UNL d   1      60.174  -2.954  28.848  0.00  0.00     0.002 A 
ATOM     14  C   UNL d   1      59.402  -3.209  28.898  0.00  0.00     0.002 A 
ENDROOT
TORSDOF 0
ENDMDL
