MODEL 1
REMARK VINA RESULT:      30.2      0.000      0.000
REMARK  5 active torsions:
REMARK  status: ('A' for Active; 'I' for Inactive)
REMARK    1  A    between atoms: C_11  and  N_1 
REMARK    2  A    between atoms: S_8  and  C_4 
REMARK    3  A    between atoms: C_6  and  S_8 
REMARK    4  A    between atoms: C_9  and  C_7 
REMARK    5  A    between atoms: N_10  and  C_13 
ROOT
ATOM      1  N   UNL d   1     -42.080-122.618 -53.950  0.00  0.00    -0.241 N 
ATOM      2  C   UNL d   1     -42.535-123.149 -54.385  0.00  0.00     0.268 A 
ATOM      3  C   UNL d   1     -41.760-122.074 -54.461  0.00  0.00     0.273 A 
ATOM      4  C   UNL d   1     -42.019-122.266 -55.230  0.00  0.00     0.092 A 
ATOM      5  C   UNL d   1     -42.495-122.929 -55.169  0.00  0.00     0.072 A 
ATOM      6  O   UNL d   1     -42.967-123.797 -54.109  0.00  0.00    -0.267 OA
ATOM      7  O   UNL d   1     -41.272-121.449 -54.262  0.00  0.00    -0.266 OA
ENDROOT
BRANCH   1   8
ATOM      8  C   UNL d   1     -41.986-122.664 -53.128  0.00  0.00     0.070 A 
ATOM      9  C   UNL d   1     -42.381-122.138 -52.648  0.00  0.00     0.019 A 
ATOM     10  C   UNL d   1     -42.286-122.184 -51.812  0.00  0.00     0.019 A 
ATOM     11  C   UNL d   1     -41.800-122.755 -51.492  0.00  0.00     0.064 A 
ATOM     12  C   UNL d   1     -41.393-123.297 -51.990  0.00  0.00     0.019 A 
ATOM     13  C   UNL d   1     -41.498-123.238 -52.810  0.00  0.00     0.019 A 
BRANCH  11  14
ATOM     14  N   UNL d   1     -41.714-122.791 -50.680  0.00  0.00    -0.300 N 
ATOM     15  C   UNL d   1     -41.244-123.392 -50.327  0.00  0.00     0.107 A 
ATOM     16  C   UNL d   1     -41.167-123.416 -49.503  0.00  0.00     0.142 A 
ATOM     17  O   UNL d   1     -41.539-122.867 -49.016  0.00  0.00    -0.300 OA
ATOM     18  C   UNL d   1     -42.010-122.266 -49.369  0.00  0.00     0.142 A 
ATOM     19  C   UNL d   1     -42.089-122.240 -50.200  0.00  0.00     0.107 A 
ENDBRANCH  11  14
ENDBRANCH   1   8
BRANCH   4  20
ATOM     20  S   UNL d   1     -41.842-121.875 -55.935  0.00  0.00    -0.063 SA
BRANCH  20  21
ATOM     21  C   UNL d   1     -42.432-121.699 -56.487  0.00  0.00     0.117 A 
ATOM     22  C   UNL d   1     -42.371-121.026 -56.965  0.00  0.00     0.088 A 
ATOM     23  C   UNL d   1     -42.958-120.860 -57.507  0.00  0.00     0.010 A 
ATOM     24  C   UNL d   1     -43.601-121.348 -57.584  0.00  0.00     0.021 A 
ATOM     25  C   UNL d   1     -43.675-122.016 -57.119  0.00  0.00     0.100 A 
ATOM     26  N   UNL d   1     -43.078-122.189 -56.564  0.00  0.00    -0.237 NA
BRANCH  22  27
ATOM     27  C   UNL d   1     -41.714-120.526 -56.889  0.00  0.00     0.213 C 
ATOM     28  O   UNL d   1     -41.160-120.492 -57.498  0.00  0.00    -0.644 OA
ATOM     29  O   UNL d   1     -41.622-120.067 -56.206  0.00  0.00    -0.644 OA
ENDBRANCH  22  27
ENDBRANCH  20  21
ENDBRANCH   4  20
TORSDOF 5
ENDMDL
