MODEL 1
REMARK VINA RESULT:      32.5      0.000      0.000
REMARK  6 active torsions:
REMARK  status: ('A' for Active; 'I' for Inactive)
REMARK    1  A    between atoms: N_2  and  C_1 
REMARK    2  A    between atoms: N_7  and  C_1 
REMARK    3  A    between atoms: C_5  and  C_3 
REMARK    4  A    between atoms: C_6  and  C_5 
REMARK       I    between atoms: N_8  and  C_6 
REMARK    5  A    between atoms: C_18  and  N_7 
REMARK    6  A    between atoms: C_9  and  N_8 
ROOT
ATOM      1  N   UNL d   1      46.492 -19.257  42.970  0.00  0.00    -0.278 N 
ATOM      2  C   UNL d   1      46.522 -18.689  43.561  0.00  0.00     0.127 A 
ATOM      3  C   UNL d   1      46.435 -18.919  44.364  0.00  0.00     0.274 A 
ATOM      4  N   UNL d   1      46.321 -19.710  44.565  0.00  0.00    -0.318 N 
ATOM      5  O   UNL d   1      46.465 -18.351  44.955  0.00  0.00    -0.266 OA
ATOM      6  C   UNL d   1      46.378 -20.051  43.160  0.00  0.00     0.101 A 
ATOM      7  C   UNL d   1      46.294 -20.274  43.952  0.00  0.00     0.094 A 
ATOM      8  H   UNL d   1      46.235 -19.944  45.350  0.00  0.00     0.169 HD
ENDROOT
BRANCH   2   9
ATOM      9  C   UNL d   1      46.635 -17.904  43.370  0.00  0.00     0.083 C 
BRANCH   9  10
ATOM     10  C   UNL d   1      46.171 -17.325  43.719  0.00  0.00     0.259 C 
ATOM     11  N   UNL d   1      46.309 -16.527  43.545  0.00  0.00    -0.321 N 
ATOM     12  H   UNL d   1      46.913 -16.314  43.020  0.00  0.00     0.169 HD
ATOM     13  O   UNL d   1      45.567 -17.538  44.244  0.00  0.00    -0.267 OA
BRANCH  11  14
ATOM     14  C   UNL d   1      45.838 -15.954  43.901  0.00  0.00     0.059 A 
ATOM     15  C   UNL d   1      45.919 -15.157  43.651  0.00  0.00     0.016 A 
ATOM     16  C   UNL d   1      45.452 -14.578  44.002  0.00  0.00     0.001 A 
ATOM     17  C   UNL d   1      46.460 -14.952  43.059  0.00  0.00     0.002 C 
ATOM     18  C   UNL d   1      44.902 -14.786  44.604  0.00  0.00     0.000 A 
ATOM     19  C   UNL d   1      44.822 -15.578  44.852  0.00  0.00     0.002 A 
ATOM     20  C   UNL d   1      44.434 -14.199  44.954  0.00  0.00     0.000 C 
ATOM     21  C   UNL d   1      45.299 -16.162  44.492  0.00  0.00     0.017 A 
ENDBRANCH  11  14
ENDBRANCH   9  10
ENDBRANCH   2   9
BRANCH   1  22
ATOM     22  C   UNL d   1      46.577 -19.032  42.183  0.00  0.00     0.184 C 
ATOM     23  S   UNL d   1      46.646 -18.231  42.007  0.00  0.00    -0.040 SA
BRANCH  22  24
ATOM     24  N   UNL d   1      46.591 -19.603  41.592  0.00  0.00    -0.331 N 
ATOM     25  H   UNL d   1      46.820 -20.367  41.787  0.00  0.00     0.168 HD
BRANCH  24  26
ATOM     26  C   UNL d   1      46.383 -19.419  40.820  0.00  0.00     0.058 A 
ATOM     27  C   UNL d   1      46.645 -19.888  40.200  0.00  0.00     0.017 A 
ATOM     28  C   UNL d   1      46.437 -19.705  39.428  0.00  0.00     0.002 A 
ATOM     29  C   UNL d   1      45.962 -19.048  39.281  0.00  0.00     0.000 A 
ATOM     30  C   UNL d   1      45.697 -18.575  39.903  0.00  0.00     0.002 A 
ATOM     31  C   UNL d   1      45.911 -18.766  40.675  0.00  0.00     0.017 A 
ENDBRANCH  24  26
ENDBRANCH  22  24
ENDBRANCH   1  22
TORSDOF 6
ENDMDL
