MODEL 1
REMARK VINA RESULT:       8.5      0.000      0.000
REMARK  5 active torsions:
REMARK  status: ('A' for Active; 'I' for Inactive)
REMARK    1  A    between atoms: C_2  and  C_1 
REMARK    2  A    between atoms: C_3  and  C_1 
REMARK    3  A    between atoms: C_4  and  C_2 
REMARK    4  A    between atoms: C_8  and  C_3 
REMARK    5  A    between atoms: O_18  and  C_10 
ROOT
ATOM      1  C   UNL d   1      45.385 -15.909  44.557  0.00  0.00     0.196 C 
ATOM      2  O   UNL d   1      44.715 -16.187  44.955  0.00  0.00    -0.287 OA
ENDROOT
BRANCH   1   3
ATOM      3  C   UNL d   1      45.894 -16.439  44.183  0.00  0.00     0.042 C 
BRANCH   3   4
ATOM      4  C   UNL d   1      46.073 -17.241  44.282  0.00  0.00     0.003 C 
BRANCH   4   5
ATOM      5  C   UNL d   1      46.217 -17.871  43.768  0.00  0.00     0.000 A 
ATOM      6  C   UNL d   1      46.147 -17.754  42.952  0.00  0.00     0.003 A 
ATOM      7  C   UNL d   1      46.290 -18.383  42.435  0.00  0.00     0.042 A 
ATOM      8  C   UNL d   1      46.501 -19.121  42.738  0.00  0.00     0.196 A 
ATOM      9  C   UNL d   1      46.569 -19.229  43.556  0.00  0.00     0.042 A 
ATOM     10  O   UNL d   1      46.645 -19.751  42.225  0.00  0.00    -0.287 OA
ATOM     11  C   UNL d   1      46.428 -18.608  44.067  0.00  0.00     0.003 A 
ENDBRANCH   4   5
ENDBRANCH   3   4
ENDBRANCH   1   3
BRANCH   1  12
ATOM     12  C   UNL d   1      45.533 -15.093  44.543  0.00  0.00     0.039 A 
ATOM     13  C   UNL d   1      46.231 -14.781  44.853  0.00  0.00     0.005 A 
ATOM     14  C   UNL d   1      46.363 -13.967  44.831  0.00  0.00     0.024 A 
ATOM     15  C   UNL d   1      45.798 -13.464  44.499  0.00  0.00     0.094 A 
ATOM     16  C   UNL d   1      45.093 -13.785  44.186  0.00  0.00     0.024 A 
ATOM     17  C   UNL d   1      44.963 -14.596  44.208  0.00  0.00     0.005 A 
BRANCH  15  18
ATOM     18  O   UNL d   1      45.930 -12.651  44.477  0.00  0.00    -0.328 OA
ATOM     19  C   UNL d   1      45.596 -12.195  43.876  0.00  0.00     0.181 C 
ENDBRANCH  15  18
ENDBRANCH   1  12
TORSDOF 5
ENDMDL
