MODEL 1
REMARK VINA RESULT:      24.1      0.000      0.000
REMARK  4 active torsions:
REMARK  status: ('A' for Active; 'I' for Inactive)
REMARK    1  A    between atoms: C_7  and  C_2 
REMARK    2  A    between atoms: C_6  and  C_3 
REMARK    3  A    between atoms: C_11  and  C_6 
REMARK    4  A    between atoms: N_10  and  C_9 
ROOT
ATOM      1  N   UNL d   1     -55.692-100.139 -44.112  0.00  0.00    -0.220 NA
ATOM      2  C   UNL d   1     -55.161-100.717 -44.382  0.00  0.00     0.161 A 
ATOM      3  C   UNL d   1     -55.582 -99.465 -44.576  0.00  0.00     0.146 A 
ATOM      4  O   UNL d   1     -54.731-100.392 -45.009  0.00  0.00    -0.257 OA
ATOM      5  C   UNL d   1     -54.990 -99.620 -45.129  0.00  0.00     0.319 A 
ATOM      6  O   UNL d   1     -54.712 -99.086 -45.700  0.00  0.00    -0.257 OA
ENDROOT
BRANCH   3   7
ATOM      7  C   UNL d   1     -55.995 -98.755 -44.498  0.00  0.00     0.025 C 
BRANCH   7   8
ATOM      8  C   UNL d   1     -56.830 -98.756 -44.489  0.00  0.00     0.002 A 
ATOM      9  C   UNL d   1     -57.241 -98.755 -45.197  0.00  0.00     0.002 A 
ATOM     10  C   UNL d   1     -58.060 -98.756 -45.202  0.00  0.00     0.018 A 
ATOM     11  C   UNL d   1     -58.471 -98.759 -44.478  0.00  0.00     0.064 A 
ATOM     12  C   UNL d   1     -58.054 -98.761 -43.763  0.00  0.00     0.018 A 
ATOM     13  C   UNL d   1     -57.235 -98.759 -43.771  0.00  0.00     0.002 A 
BRANCH  11  14
ATOM     14  N   UNL d   1     -59.291 -98.761 -44.470  0.00  0.00    -0.301 N 
ATOM     15  C   UNL d   1     -59.716 -98.767 -45.174  0.00  0.00     0.100 C 
ATOM     16  C   UNL d   1     -59.694 -98.755 -43.747  0.00  0.00     0.100 C 
ENDBRANCH  11  14
ENDBRANCH   7   8
ENDBRANCH   3   7
BRANCH   2  17
ATOM     17  C   UNL d   1     -55.081-101.469 -44.081  0.00  0.00     0.058 C 
ATOM     18  C   UNL d   1     -54.717-101.590 -43.362  0.00  0.00     0.008 C 
ATOM     19  C   UNL d   1     -54.964-102.192 -43.713  0.00  0.00     0.008 C 
ATOM     20  C   UNL d   1     -55.372-102.115 -44.506  0.00  0.00     0.008 C 
ENDBRANCH   2  17
TORSDOF 4
ENDMDL
