MODEL 1
REMARK VINA RESULT:     100.6      0.000      0.000
REMARK  6 active torsions:
REMARK  status: ('A' for Active; 'I' for Inactive)
REMARK       I    between atoms: C_4  and  N_1 
REMARK    1  A    between atoms: C_8  and  C_3 
REMARK    2  A    between atoms: C_16  and  C_4 
REMARK    3  A    between atoms: C_13  and  C_5 
REMARK    4  A    between atoms: N_6  and  C_9 
REMARK    5  A    between atoms: O_24  and  C_11 
REMARK    6  A    between atoms: O_25  and  C_17 
ROOT
ATOM      1  N   UNL d   1     -50.786  27.418  33.816  0.00  0.00    -0.195 N 
ATOM      2  N   UNL d   1     -50.368  28.138  33.921  0.00  0.00    -0.163 NA
ATOM      3  C   UNL d   1     -50.271  26.808  34.048  0.00  0.00     0.088 A 
ATOM      4  C   UNL d   1     -51.589  27.329  33.526  0.00  0.00     0.280 C 
ATOM      5  C   UNL d   1     -49.611  27.948  34.214  0.00  0.00     0.103 A 
ATOM      6  C   UNL d   1     -49.558  27.145  34.289  0.00  0.00     0.040 A 
ATOM      7  O   UNL d   1     -52.030  27.981  33.318  0.00  0.00    -0.265 OA
ENDROOT
BRANCH   3   8
ATOM      8  C   UNL d   1     -50.499  26.010  34.018  0.00  0.00     0.020 A 
ATOM      9  C   UNL d   1     -49.840  25.606  33.758  0.00  0.00     0.028 A 
ATOM     10  C   UNL d   1     -49.864  24.793  33.662  0.00  0.00     0.116 A 
ATOM     11  C   UNL d   1     -50.558  24.376  33.828  0.00  0.00     0.116 A 
ATOM     12  C   UNL d   1     -51.230  24.816  34.096  0.00  0.00     0.026 A 
ATOM     13  C   UNL d   1     -51.204  25.627  34.192  0.00  0.00     0.004 A 
BRANCH  10  14
ATOM     14  O   UNL d   1     -49.184  24.381  33.394  0.00  0.00    -0.326 OA
ATOM     15  C   UNL d   1     -48.542  24.209  33.922  0.00  0.00     0.181 C 
ENDBRANCH  10  14
BRANCH  11  16
ATOM     16  O   UNL d   1     -50.591  23.541  33.732  0.00  0.00    -0.326 OA
ATOM     17  C   UNL d   1     -51.194  23.208  33.316  0.00  0.00     0.181 C 
ENDBRANCH  11  16
ENDBRANCH   3   8
BRANCH   4  18
ATOM     18  C   UNL d   1     -51.918  26.544  33.458  0.00  0.00     0.058 A 
ATOM     19  C   UNL d   1     -52.734  26.431  33.471  0.00  0.00     0.005 A 
ATOM     20  C   UNL d   1     -53.065  25.677  33.406  0.00  0.00     0.000 A 
ATOM     21  C   UNL d   1     -52.565  25.026  33.326  0.00  0.00     0.000 A 
ATOM     22  C   UNL d   1     -51.750  25.140  33.314  0.00  0.00     0.000 A 
ATOM     23  C   UNL d   1     -51.416  25.899  33.379  0.00  0.00     0.005 A 
ENDBRANCH   4  18
BRANCH   5  24
ATOM     24  C   UNL d   1     -48.988  28.446  34.410  0.00  0.00     0.019 A 
ATOM     25  C   UNL d   1     -49.059  29.248  34.190  0.00  0.00     0.003 A 
ATOM     26  C   UNL d   1     -48.463  29.772  34.367  0.00  0.00     0.024 A 
ATOM     27  C   UNL d   1     -47.780  29.508  34.769  0.00  0.00     0.127 A 
ATOM     28  C   UNL d   1     -47.709  28.707  34.989  0.00  0.00     0.024 A 
ATOM     29  C   UNL d   1     -48.332  28.181  34.799  0.00  0.00     0.003 A 
BRANCH  27  30
ATOM     30  N   UNL d   1     -47.162  30.059  34.950  0.00  0.00    -0.114 N 
ATOM     31  O   UNL d   1     -47.279  30.876  34.837  0.00  0.00    -0.532 OA
ATOM     32  O   UNL d   1     -46.432  29.778  35.245  0.00  0.00    -0.532 OA
ENDBRANCH  27  30
ENDBRANCH   5  24
TORSDOF 6
ENDMDL
MODEL 2
REMARK VINA RESULT:     101.0      1.006      2.372
REMARK  6 active torsions:
REMARK  status: ('A' for Active; 'I' for Inactive)
REMARK       I    between atoms: C_4  and  N_1 
REMARK    1  A    between atoms: C_8  and  C_3 
REMARK    2  A    between atoms: C_16  and  C_4 
REMARK    3  A    between atoms: C_13  and  C_5 
REMARK    4  A    between atoms: N_6  and  C_9 
REMARK    5  A    between atoms: O_24  and  C_11 
REMARK    6  A    between atoms: O_25  and  C_17 
ROOT
ATOM      1  N   UNL d   1     -49.265  26.097  33.991  0.00  0.00    -0.195 N 
ATOM      2  N   UNL d   1     -48.667  26.663  34.155  0.00  0.00    -0.163 NA
ATOM      3  C   UNL d   1     -49.991  26.459  34.170  0.00  0.00     0.088 A 
ATOM      4  C   UNL d   1     -49.148  25.300  33.695  0.00  0.00     0.280 C 
ATOM      5  C   UNL d   1     -49.045  27.353  34.430  0.00  0.00     0.103 A 
ATOM      6  C   UNL d   1     -49.843  27.225  34.437  0.00  0.00     0.040 A 
ATOM      7  O   UNL d   1     -48.399  25.018  33.543  0.00  0.00    -0.265 OA
ENDROOT
BRANCH   3   8
ATOM      8  C   UNL d   1     -50.713  26.059  34.075  0.00  0.00     0.020 A 
ATOM      9  C   UNL d   1     -51.256  26.636  33.880  0.00  0.00     0.028 A 
ATOM     10  C   UNL d   1     -52.039  26.438  33.743  0.00  0.00     0.116 A 
ATOM     11  C   UNL d   1     -52.284  25.651  33.802  0.00  0.00     0.116 A 
ATOM     12  C   UNL d   1     -51.704  25.069  34.004  0.00  0.00     0.026 A 
ATOM     13  C   UNL d   1     -50.923  25.268  34.141  0.00  0.00     0.004 A 
BRANCH  10  14
ATOM     14  O   UNL d   1     -52.594  27.035  33.543  0.00  0.00    -0.326 OA
ATOM     15  C   UNL d   1     -52.338  27.808  33.307  0.00  0.00     0.181 C 
ENDBRANCH  10  14
BRANCH  11  16
ATOM     16  O   UNL d   1     -53.086  25.440  33.662  0.00  0.00    -0.326 OA
ATOM     17  C   UNL d   1     -53.612  25.437  34.271  0.00  0.00     0.181 C 
ENDBRANCH  11  16
ENDBRANCH   3   8
BRANCH   4  18
ATOM     18  C   UNL d   1     -49.832  24.805  33.562  0.00  0.00     0.058 A 
ATOM     19  C   UNL d   1     -49.760  23.984  33.563  0.00  0.00     0.005 A 
ATOM     20  C   UNL d   1     -50.412  23.495  33.436  0.00  0.00     0.000 A 
ATOM     21  C   UNL d   1     -51.151  23.838  33.306  0.00  0.00     0.000 A 
ATOM     22  C   UNL d   1     -51.222  24.658  33.306  0.00  0.00     0.000 A 
ATOM     23  C   UNL d   1     -50.565  25.151  33.434  0.00  0.00     0.005 A 
ENDBRANCH   4  18
BRANCH   5  24
ATOM     24  C   UNL d   1     -48.716  28.068  34.666  0.00  0.00     0.019 A 
ATOM     25  C   UNL d   1     -48.550  28.160  35.478  0.00  0.00     0.003 A 
ATOM     26  C   UNL d   1     -48.224  28.854  35.750  0.00  0.00     0.024 A 
ATOM     27  C   UNL d   1     -48.056  29.474  35.217  0.00  0.00     0.127 A 
ATOM     28  C   UNL d   1     -48.222  29.382  34.405  0.00  0.00     0.024 A 
ATOM     29  C   UNL d   1     -48.558  28.662  34.142  0.00  0.00     0.003 A 
BRANCH  27  30
ATOM     30  N   UNL d   1     -47.716  30.195  35.506  0.00  0.00    -0.114 N 
ATOM     31  O   UNL d   1     -46.982  30.186  35.898  0.00  0.00    -0.532 OA
ATOM     32  O   UNL d   1     -48.123  30.916  35.396  0.00  0.00    -0.532 OA
ENDBRANCH  27  30
ENDBRANCH   5  24
TORSDOF 6
ENDMDL
