MODEL 1
REMARK VINA RESULT:      -3.7      0.000      0.000
REMARK  4 active torsions:
REMARK  status: ('A' for Active; 'I' for Inactive)
REMARK    1  A    between atoms: C_2  and  C_1 
REMARK    2  A    between atoms: C_13  and  N_5 
REMARK    3  A    between atoms: C_16  and  C_13 
REMARK    4  A    between atoms: C_17  and  C_16 
ROOT
ATOM      1  C   UNL d   1      56.568  -0.524  32.318  0.00  0.00     0.112 A 
ATOM      2  C   UNL d   1      57.128  -0.096  31.893  0.00  0.00     0.176 A 
ATOM      3  N   UNL d   1      57.389  -0.568  31.261  0.00  0.00    -0.285 N 
ATOM      4  C   UNL d   1      56.484  -1.260  31.948  0.00  0.00     0.219 A 
ATOM      5  C   UNL d   1      56.988  -1.283  31.302  0.00  0.00     0.124 A 
ATOM      6  O   UNL d   1      55.975  -1.874  32.191  0.00  0.00    -0.285 OA
ATOM      7  N   UNL d   1      57.383   0.676  32.071  0.00  0.00    -0.128 N 
ENDROOT
BRANCH   1   8
ATOM      8  C   UNL d   1      56.177  -0.242  32.989  0.00  0.00     0.169 A 
ATOM      9  N   UNL d   1      56.479  -0.074  33.740  0.00  0.00    -0.225 NA
ATOM     10  C   UNL d   1      55.862   0.191  34.210  0.00  0.00     0.101 A 
ATOM     11  C   UNL d   1      55.835   0.435  34.997  0.00  0.00     0.021 A 
ATOM     12  C   UNL d   1      55.173   0.189  33.753  0.00  0.00     0.101 A 
ATOM     13  C   UNL d   1      55.116   0.681  35.333  0.00  0.00     0.002 A 
ATOM     14  C   UNL d   1      54.427   0.679  34.876  0.00  0.00     0.002 A 
ATOM     15  C   UNL d   1      54.458   0.432  34.083  0.00  0.00     0.021 A 
ATOM     16  N   UNL d   1      55.371  -0.077  33.005  0.00  0.00    -0.225 NA
ENDBRANCH   1   8
BRANCH   3  17
ATOM     17  C   UNL d   1      57.954  -0.351  30.693  0.00  0.00     0.082 C 
BRANCH  17  18
ATOM     18  C   UNL d   1      58.117  -0.857  30.078  0.00  0.00     0.019 C 
BRANCH  18  19
ATOM     19  C   UNL d   1      58.716  -0.672  29.541  0.00  0.00     0.002 C 
ATOM     20  C   UNL d   1      58.542  -0.611  28.744  0.00  0.00     0.000 C 
ENDBRANCH  18  19
ENDBRANCH  17  18
ENDBRANCH   3  17
TORSDOF 4
ENDMDL
MODEL 2
REMARK VINA RESULT:      -3.3      0.785      4.465
REMARK  4 active torsions:
REMARK  status: ('A' for Active; 'I' for Inactive)
REMARK    1  A    between atoms: C_2  and  C_1 
REMARK    2  A    between atoms: C_13  and  N_5 
REMARK    3  A    between atoms: C_16  and  C_13 
REMARK    4  A    between atoms: C_17  and  C_16 
ROOT
ATOM      1  C   UNL d   1      57.094  -0.543  31.689  0.00  0.00     0.112 A 
ATOM      2  C   UNL d   1      57.037  -0.047  32.343  0.00  0.00     0.176 A 
ATOM      3  N   UNL d   1      56.516  -0.395  32.888  0.00  0.00    -0.285 N 
ATOM      4  C   UNL d   1      56.608  -1.199  31.831  0.00  0.00     0.219 A 
ATOM      5  C   UNL d   1      56.257  -1.104  32.566  0.00  0.00     0.124 A 
ATOM      6  O   UNL d   1      56.495  -1.845  31.316  0.00  0.00    -0.285 OA
ATOM      7  N   UNL d   1      57.435   0.678  32.434  0.00  0.00    -0.128 N 
ENDROOT
BRANCH   1   8
ATOM      8  C   UNL d   1      57.560  -0.388  31.025  0.00  0.00     0.169 A 
ATOM      9  N   UNL d   1      58.245  -0.771  30.764  0.00  0.00    -0.225 NA
ATOM     10  C   UNL d   1      58.496  -0.404  30.075  0.00  0.00     0.101 A 
ATOM     11  C   UNL d   1      59.138  -0.546  29.578  0.00  0.00     0.021 A 
ATOM     12  C   UNL d   1      57.968   0.209  29.904  0.00  0.00     0.101 A 
ATOM     13  C   UNL d   1      59.256  -0.075  28.904  0.00  0.00     0.002 A 
ATOM     14  C   UNL d   1      58.728   0.537  28.733  0.00  0.00     0.002 A 
ATOM     15  C   UNL d   1      58.082   0.678  29.237  0.00  0.00     0.021 A 
ATOM     16  N   UNL d   1      57.395   0.215  30.489  0.00  0.00    -0.225 NA
ENDBRANCH   1   8
BRANCH   3  17
ATOM     17  C   UNL d   1      56.301  -0.080  33.625  0.00  0.00     0.082 C 
BRANCH  17  18
ATOM     18  C   UNL d   1      55.536   0.169  33.744  0.00  0.00     0.019 C 
BRANCH  18  19
ATOM     19  C   UNL d   1      55.318   0.493  34.472  0.00  0.00     0.002 C 
ATOM     20  C   UNL d   1      54.533   0.677  34.614  0.00  0.00     0.000 C 
ENDBRANCH  18  19
ENDBRANCH  17  18
ENDBRANCH   3  17
TORSDOF 4
ENDMDL
MODEL 3
REMARK VINA RESULT:      -0.9      9.676     10.434
REMARK  4 active torsions:
REMARK  status: ('A' for Active; 'I' for Inactive)
REMARK    1  A    between atoms: C_2  and  C_1 
REMARK    2  A    between atoms: C_13  and  N_5 
REMARK    3  A    between atoms: C_16  and  C_13 
REMARK    4  A    between atoms: C_17  and  C_16 
ROOT
ATOM      1  C   UNL d   1      58.881  -9.654  32.305  0.00  0.00     0.112 A 
ATOM      2  C   UNL d   1      58.497  -9.720  33.030  0.00  0.00     0.176 A 
ATOM      3  N   UNL d   1      59.069  -9.671  33.631  0.00  0.00    -0.285 N 
ATOM      4  C   UNL d   1      59.690  -9.565  32.459  0.00  0.00     0.219 A 
ATOM      5  C   UNL d   1      59.800  -9.575  33.271  0.00  0.00     0.124 A 
ATOM      6  O   UNL d   1      60.289  -9.478  31.886  0.00  0.00    -0.285 OA
ATOM      7  N   UNL d   1      57.678  -9.818  33.136  0.00  0.00    -0.128 N 
ENDROOT
BRANCH   1   8
ATOM      8  C   UNL d   1      58.500  -9.677  31.572  0.00  0.00     0.169 A 
ATOM      9  N   UNL d   1      57.691  -9.694  31.402  0.00  0.00    -0.225 NA
ATOM     10  C   UNL d   1      57.602  -9.714  30.587  0.00  0.00     0.101 A 
ATOM     11  C   UNL d   1      56.933  -9.736  30.107  0.00  0.00     0.021 A 
ATOM     12  C   UNL d   1      58.355  -9.711  30.247  0.00  0.00     0.101 A 
ATOM     13  C   UNL d   1      57.013  -9.754  29.280  0.00  0.00     0.002 A 
ATOM     14  C   UNL d   1      57.766  -9.750  28.940  0.00  0.00     0.002 A 
ATOM     15  C   UNL d   1      58.439  -9.729  29.427  0.00  0.00     0.021 A 
ATOM     16  N   UNL d   1      58.904  -9.688  30.855  0.00  0.00    -0.225 NA
ENDBRANCH   1   8
BRANCH   3  17
ATOM     17  C   UNL d   1      58.921  -9.711  34.446  0.00  0.00     0.082 C 
BRANCH  17  18
ATOM     18  C   UNL d   1      59.424  -9.334  34.962  0.00  0.00     0.019 C 
BRANCH  18  19
ATOM     19  C   UNL d   1      59.298  -9.393  35.776  0.00  0.00     0.002 C 
ATOM     20  C   UNL d   1      59.575  -8.804  36.273  0.00  0.00     0.000 C 
ENDBRANCH  18  19
ENDBRANCH  17  18
ENDBRANCH   3  17
TORSDOF 4
ENDMDL
