MODEL 1
REMARK VINA RESULT:      40.9      0.000      0.000
REMARK  5 active torsions:
REMARK  status: ('A' for Active; 'I' for Inactive)
REMARK    1  A    between atoms: C_7  and  C_3 
REMARK    2  A    between atoms: C_8  and  C_7 
REMARK       I    between atoms: N_14  and  C_8 
REMARK    3  A    between atoms: N_9  and  C_16 
REMARK    4  A    between atoms: C_15  and  N_14 
REMARK    5  A    between atoms: C_16  and  C_15 
ROOT
ATOM      1  C   UNL d   1     -49.907  26.852  33.932  0.00  0.00     0.281 C 
ATOM      2  O   UNL d   1     -50.534  27.117  34.400  0.00  0.00    -0.265 OA
ATOM      3  N   UNL d   1     -49.140  27.103  34.092  0.00  0.00    -0.205 NA
ENDROOT
BRANCH   1   4
ATOM      4  C   UNL d   1     -50.049  26.338  33.306  0.00  0.00     0.082 C 
BRANCH   4   5
ATOM      5  C   UNL d   1     -50.725  25.862  33.306  0.00  0.00     0.096 A 
ATOM      6  C   UNL d   1     -51.473  26.209  33.306  0.00  0.00     0.082 A 
ATOM      7  C   UNL d   1     -52.159  25.742  33.306  0.00  0.00     0.285 A 
ATOM      8  N   UNL d   1     -52.072  24.921  33.306  0.00  0.00    -0.152 NA
ATOM      9  O   UNL d   1     -52.900  26.086  33.306  0.00  0.00    -0.265 OA
ATOM     10  C   UNL d   1     -51.324  24.573  33.306  0.00  0.00     0.371 A 
ATOM     11  N   UNL d   1     -50.655  25.043  33.306  0.00  0.00    -0.191 NA
ATOM     12  O   UNL d   1     -51.252  23.750  33.306  0.00  0.00    -0.242 OA
ENDBRANCH   4   5
ENDBRANCH   1   4
BRANCH   3  13
ATOM     13  C   UNL d   1     -48.998  27.618  34.718  0.00  0.00     0.121 C 
BRANCH  13  14
ATOM     14  C   UNL d   1     -48.228  27.890  34.868  0.00  0.00     0.101 C 
BRANCH  14  15
ATOM     15  N   UNL d   1     -48.098  28.625  35.212  0.00  0.00    -0.298 N 
ATOM     16  C   UNL d   1     -47.865  29.248  34.724  0.00  0.00     0.107 A 
ATOM     17  C   UNL d   1     -47.731  29.997  35.068  0.00  0.00     0.142 A 
ATOM     18  O   UNL d   1     -47.831  30.104  35.874  0.00  0.00    -0.300 OA
ATOM     19  C   UNL d   1     -48.065  29.468  36.344  0.00  0.00     0.142 A 
ATOM     20  C   UNL d   1     -48.197  28.730  36.010  0.00  0.00     0.107 A 
ENDBRANCH  14  15
ENDBRANCH  13  14
ENDBRANCH   3  13
TORSDOF 5
ENDMDL
MODEL 2
REMARK VINA RESULT:      43.4      1.206      5.389
REMARK  5 active torsions:
REMARK  status: ('A' for Active; 'I' for Inactive)
REMARK    1  A    between atoms: C_7  and  C_3 
REMARK    2  A    between atoms: C_8  and  C_7 
REMARK       I    between atoms: N_14  and  C_8 
REMARK    3  A    between atoms: N_9  and  C_16 
REMARK    4  A    between atoms: C_15  and  N_14 
REMARK    5  A    between atoms: C_16  and  C_15 
ROOT
ATOM      1  C   UNL d   1     -48.475  28.369  34.658  0.00  0.00     0.281 C 
ATOM      2  O   UNL d   1     -49.032  28.540  35.242  0.00  0.00    -0.265 OA
ATOM      3  N   UNL d   1     -48.655  27.830  34.062  0.00  0.00    -0.205 NA
ENDROOT
BRANCH   1   4
ATOM      4  C   UNL d   1     -47.738  28.736  34.671  0.00  0.00     0.082 C 
BRANCH   4   5
ATOM      5  C   UNL d   1     -47.625  29.420  35.121  0.00  0.00     0.096 A 
ATOM      6  C   UNL d   1     -47.600  30.156  34.749  0.00  0.00     0.082 A 
ATOM      7  C   UNL d   1     -47.486  30.851  35.189  0.00  0.00     0.285 A 
ATOM      8  N   UNL d   1     -47.398  30.785  36.007  0.00  0.00    -0.152 NA
ATOM      9  O   UNL d   1     -47.461  31.580  34.821  0.00  0.00    -0.265 OA
ATOM     10  C   UNL d   1     -47.423  30.049  36.379  0.00  0.00     0.371 A 
ATOM     11  N   UNL d   1     -47.536  29.372  35.936  0.00  0.00    -0.191 NA
ATOM     12  O   UNL d   1     -47.334  29.998  37.199  0.00  0.00    -0.242 OA
ENDBRANCH   4   5
ENDBRANCH   1   4
BRANCH   3  13
ATOM     13  C   UNL d   1     -49.391  27.464  34.049  0.00  0.00     0.121 C 
BRANCH  13  14
ATOM     14  C   UNL d   1     -49.697  27.165  33.337  0.00  0.00     0.101 C 
BRANCH  14  15
ATOM     15  N   UNL d   1     -50.317  26.627  33.335  0.00  0.00    -0.298 N 
ATOM     16  C   UNL d   1     -51.088  26.920  33.334  0.00  0.00     0.107 A 
ATOM     17  C   UNL d   1     -51.723  26.379  33.332  0.00  0.00     0.142 A 
ATOM     18  O   UNL d   1     -51.577  25.572  33.330  0.00  0.00    -0.300 OA
ATOM     19  C   UNL d   1     -50.798  25.299  33.330  0.00  0.00     0.142 A 
ATOM     20  C   UNL d   1     -50.171  25.829  33.332  0.00  0.00     0.107 A 
ENDBRANCH  14  15
ENDBRANCH  13  14
ENDBRANCH   3  13
TORSDOF 5
ENDMDL
MODEL 3
REMARK VINA RESULT:      43.6      1.257      5.443
REMARK  5 active torsions:
REMARK  status: ('A' for Active; 'I' for Inactive)
REMARK    1  A    between atoms: C_7  and  C_3 
REMARK    2  A    between atoms: C_8  and  C_7 
REMARK       I    between atoms: N_14  and  C_8 
REMARK    3  A    between atoms: N_9  and  C_16 
REMARK    4  A    between atoms: C_15  and  N_14 
REMARK    5  A    between atoms: C_16  and  C_15 
ROOT
ATOM      1  C   UNL d   1     -48.482  28.299  35.018  0.00  0.00     0.281 C 
ATOM      2  O   UNL d   1     -49.081  28.414  35.574  0.00  0.00    -0.265 OA
ATOM      3  N   UNL d   1     -48.645  27.911  34.310  0.00  0.00    -0.205 NA
ENDROOT
BRANCH   1   4
ATOM      4  C   UNL d   1     -47.721  28.572  35.170  0.00  0.00     0.082 C 
BRANCH   4   5
ATOM      5  C   UNL d   1     -47.602  29.353  35.414  0.00  0.00     0.096 A 
ATOM      6  C   UNL d   1     -47.378  29.512  36.192  0.00  0.00     0.082 A 
ATOM      7  C   UNL d   1     -47.256  30.292  36.448  0.00  0.00     0.285 A 
ATOM      8  N   UNL d   1     -47.364  30.904  35.903  0.00  0.00    -0.152 NA
ATOM      9  O   UNL d   1     -47.035  30.450  37.218  0.00  0.00    -0.265 OA
ATOM     10  C   UNL d   1     -47.587  30.745  35.125  0.00  0.00     0.371 A 
ATOM     11  N   UNL d   1     -47.705  29.973  34.884  0.00  0.00    -0.191 NA
ATOM     12  O   UNL d   1     -47.692  31.367  34.591  0.00  0.00    -0.242 OA
ENDBRANCH   4   5
ENDBRANCH   1   4
BRANCH   3  13
ATOM     13  C   UNL d   1     -49.406  27.638  34.158  0.00  0.00     0.121 C 
BRANCH  13  14
ATOM     14  C   UNL d   1     -49.540  27.099  33.541  0.00  0.00     0.101 C 
BRANCH  14  15
ATOM     15  N   UNL d   1     -50.262  26.715  33.463  0.00  0.00    -0.298 N 
ATOM     16  C   UNL d   1     -50.261  25.893  33.391  0.00  0.00     0.107 A 
ATOM     17  C   UNL d   1     -50.990  25.497  33.312  0.00  0.00     0.142 A 
ATOM     18  O   UNL d   1     -51.692  25.921  33.306  0.00  0.00    -0.300 OA
ATOM     19  C   UNL d   1     -51.671  26.743  33.380  0.00  0.00     0.142 A 
ATOM     20  C   UNL d   1     -50.955  27.136  33.458  0.00  0.00     0.107 A 
ENDBRANCH  14  15
ENDBRANCH  13  14
ENDBRANCH   3  13
TORSDOF 5
ENDMDL
