MODEL 1
REMARK VINA RESULT:      96.7      0.000      0.000
REMARK  5 active torsions:
REMARK  status: ('A' for Active; 'I' for Inactive)
REMARK    1  A    between atoms: C_4  and  C_1 
REMARK    2  A    between atoms: S_2  and  C_4 
REMARK    3  A    between atoms: C_8  and  S_2 
REMARK    4  A    between atoms: N_5  and  C_3 
REMARK    5  A    between atoms: C_9  and  C_4 
ROOT
ATOM      1  C   UNL d   1     -55.102-100.622 -43.198  0.00  0.00     0.128 A 
ATOM      2  C   UNL d   1     -55.155-101.382 -43.498  0.00  0.00     0.166 A 
ATOM      3  N   UNL d   1     -54.977-100.501 -42.394  0.00  0.00    -0.240 NA
ATOM      4  N   UNL d   1     -55.085-102.028 -42.997  0.00  0.00    -0.225 NA
ATOM      5  C   UNL d   1     -54.908-101.148 -41.899  0.00  0.00     0.099 A 
ATOM      6  C   UNL d   1     -54.961-101.912 -42.191  0.00  0.00     0.101 A 
ATOM      7  C   UNL d   1     -54.890-102.550 -41.687  0.00  0.00     0.021 A 
ATOM      8  C   UNL d   1     -54.783-101.029 -41.091  0.00  0.00     0.021 A 
ATOM      9  C   UNL d   1     -54.766-102.433 -40.891  0.00  0.00     0.002 A 
ATOM     10  C   UNL d   1     -54.713-101.673 -40.595  0.00  0.00     0.002 A 
ENDROOT
BRANCH   1  11
ATOM     11  C   UNL d   1     -55.171 -99.975 -43.693  0.00  0.00     0.129 C 
BRANCH  11  12
ATOM     12  S   UNL d   1     -55.741 -99.334 -43.465  0.00  0.00     0.213 S 
ATOM     13  O   UNL d   1     -55.481 -98.760 -42.843  0.00  0.00    -0.217 OA
ATOM     14  O   UNL d   1     -55.066 -99.215 -42.999  0.00  0.00    -0.217 OA
BRANCH  12  15
ATOM     15  C   UNL d   1     -56.508 -99.141 -43.718  0.00  0.00     0.088 A 
ATOM     16  C   UNL d   1     -56.663 -99.074 -44.532  0.00  0.00     0.011 A 
ATOM     17  C   UNL d   1     -57.427 -98.882 -44.777  0.00  0.00     0.001 A 
ATOM     18  C   UNL d   1     -57.590 -98.814 -45.578  0.00  0.00     0.000 C 
ATOM     19  C   UNL d   1     -58.028 -98.757 -44.226  0.00  0.00     0.000 A 
ATOM     20  C   UNL d   1     -57.860 -98.826 -43.414  0.00  0.00     0.001 A 
ATOM     21  C   UNL d   1     -57.098 -99.018 -43.172  0.00  0.00     0.011 A 
ENDBRANCH  12  15
ENDBRANCH  11  12
BRANCH  11  22
ATOM     22  C   UNL d   1     -54.766 -99.798 -44.435  0.00  0.00     0.135 C 
ATOM     23  N   UNL d   1     -54.783 -99.049 -44.902  0.00  0.00    -0.146 N 
ENDBRANCH  11  22
ENDBRANCH   1  11
BRANCH   2  24
ATOM     24  N   UNL d   1     -55.280-101.497 -44.307  0.00  0.00    -0.284 N 
ATOM     25  C   UNL d   1     -54.932-100.975 -44.856  0.00  0.00     0.106 A 
ATOM     26  C   UNL d   1     -55.064-101.099 -45.669  0.00  0.00     0.118 A 
ATOM     27  C   UNL d   1     -54.716-100.577 -46.218  0.00  0.00     0.028 C 
ATOM     28  O   UNL d   1     -55.535-101.733 -45.929  0.00  0.00    -0.304 OA
ATOM     29  C   UNL d   1     -55.874-102.242 -45.375  0.00  0.00     0.118 A 
ATOM     30  C   UNL d   1     -55.751-102.130 -44.566  0.00  0.00     0.106 A 
ATOM     31  C   UNL d   1     -56.346-102.876 -45.630  0.00  0.00     0.028 C 
ENDBRANCH   2  24
TORSDOF 5
ENDMDL
MODEL 2
REMARK VINA RESULT:      98.0      1.934      4.004
REMARK  5 active torsions:
REMARK  status: ('A' for Active; 'I' for Inactive)
REMARK    1  A    between atoms: C_4  and  C_1 
REMARK    2  A    between atoms: S_2  and  C_4 
REMARK    3  A    between atoms: C_8  and  S_2 
REMARK    4  A    between atoms: N_5  and  C_3 
REMARK    5  A    between atoms: C_9  and  C_4 
ROOT
ATOM      1  C   UNL d   1     -57.739 -99.173 -43.916  0.00  0.00     0.128 A 
ATOM      2  C   UNL d   1     -58.405 -98.990 -44.356  0.00  0.00     0.166 A 
ATOM      3  N   UNL d   1     -57.783 -99.217 -43.096  0.00  0.00    -0.240 NA
ATOM      4  N   UNL d   1     -59.121 -98.851 -43.980  0.00  0.00    -0.225 NA
ATOM      5  C   UNL d   1     -58.499 -99.078 -42.726  0.00  0.00     0.099 A 
ATOM      6  C   UNL d   1     -59.170 -98.895 -43.160  0.00  0.00     0.101 A 
ATOM      7  C   UNL d   1     -59.879 -98.758 -42.779  0.00  0.00     0.021 A 
ATOM      8  C   UNL d   1     -58.545 -99.122 -41.903  0.00  0.00     0.021 A 
ATOM      9  C   UNL d   1     -59.925 -98.801 -41.967  0.00  0.00     0.002 A 
ATOM     10  C   UNL d   1     -59.258 -98.983 -41.531  0.00  0.00     0.002 A 
ENDROOT
BRANCH   1  11
ATOM     11  C   UNL d   1     -57.023 -99.312 -44.286  0.00  0.00     0.129 C 
BRANCH  11  12
ATOM     12  S   UNL d   1     -56.745-100.152 -44.354  0.00  0.00     0.213 S 
ATOM     13  O   UNL d   1     -57.271-100.722 -44.781  0.00  0.00    -0.217 OA
ATOM     14  O   UNL d   1     -57.479-100.123 -44.738  0.00  0.00    -0.217 OA
BRANCH  12  15
ATOM     15  C   UNL d   1     -56.064-100.547 -44.091  0.00  0.00     0.088 A 
ATOM     16  C   UNL d   1     -55.821-101.240 -44.480  0.00  0.00     0.011 A 
ATOM     17  C   UNL d   1     -55.143-101.629 -44.215  0.00  0.00     0.001 A 
ATOM     18  C   UNL d   1     -54.894-102.313 -44.592  0.00  0.00     0.000 C 
ATOM     19  C   UNL d   1     -54.712-101.336 -43.575  0.00  0.00     0.000 A 
ATOM     20  C   UNL d   1     -54.966-100.642 -43.194  0.00  0.00     0.001 A 
ATOM     21  C   UNL d   1     -55.641-100.256 -43.460  0.00  0.00     0.011 A 
ENDBRANCH  12  15
ENDBRANCH  11  12
BRANCH  11  22
ATOM     22  C   UNL d   1     -56.463 -98.757 -44.639  0.00  0.00     0.135 C 
ATOM     23  N   UNL d   1     -55.604 -98.875 -44.801  0.00  0.00    -0.146 N 
ENDBRANCH  11  22
ENDBRANCH   1  11
BRANCH   2  24
ATOM     24  N   UNL d   1     -58.355 -98.947 -45.180  0.00  0.00    -0.284 N 
ATOM     25  C   UNL d   1     -59.051 -98.975 -45.638  0.00  0.00     0.106 A 
ATOM     26  C   UNL d   1     -58.989 -98.930 -46.468  0.00  0.00     0.118 A 
ATOM     27  C   UNL d   1     -59.686 -98.958 -46.926  0.00  0.00     0.028 C 
ATOM     28  O   UNL d   1     -58.246 -98.860 -46.833  0.00  0.00    -0.304 OA
ATOM     29  C   UNL d   1     -57.565 -98.834 -46.368  0.00  0.00     0.118 A 
ATOM     30  C   UNL d   1     -57.612 -98.877 -45.545  0.00  0.00     0.106 A 
ATOM     31  C   UNL d   1     -56.820 -98.763 -46.730  0.00  0.00     0.028 C 
ENDBRANCH   2  24
TORSDOF 5
ENDMDL
MODEL 3
REMARK VINA RESULT:      99.3      1.001      2.989
REMARK  5 active torsions:
REMARK  status: ('A' for Active; 'I' for Inactive)
REMARK    1  A    between atoms: C_4  and  C_1 
REMARK    2  A    between atoms: S_2  and  C_4 
REMARK    3  A    between atoms: C_8  and  S_2 
REMARK    4  A    between atoms: N_5  and  C_3 
REMARK    5  A    between atoms: C_9  and  C_4 
ROOT
ATOM      1  C   UNL d   1     -55.057-100.778 -43.909  0.00  0.00     0.128 A 
ATOM      2  C   UNL d   1     -55.095-101.496 -43.516  0.00  0.00     0.166 A 
ATOM      3  N   UNL d   1     -54.964-100.756 -44.726  0.00  0.00    -0.240 NA
ATOM      4  N   UNL d   1     -55.040-102.198 -43.937  0.00  0.00    -0.225 NA
ATOM      5  C   UNL d   1     -54.910-101.459 -45.141  0.00  0.00     0.099 A 
ATOM      6  C   UNL d   1     -54.948-102.181 -44.755  0.00  0.00     0.101 A 
ATOM      7  C   UNL d   1     -54.893-102.876 -45.180  0.00  0.00     0.021 A 
ATOM      8  C   UNL d   1     -54.817-101.439 -45.961  0.00  0.00     0.021 A 
ATOM      9  C   UNL d   1     -54.801-102.858 -45.989  0.00  0.00     0.002 A 
ATOM     10  C   UNL d   1     -54.764-102.139 -46.377  0.00  0.00     0.002 A 
ENDROOT
BRANCH   1  11
ATOM     11  C   UNL d   1     -55.110-100.075 -43.494  0.00  0.00     0.129 C 
BRANCH  11  12
ATOM     12  S   UNL d   1     -55.554 -99.404 -43.867  0.00  0.00     0.213 S 
ATOM     13  O   UNL d   1     -55.078 -98.759 -44.244  0.00  0.00    -0.217 OA
ATOM     14  O   UNL d   1     -54.750 -99.235 -43.979  0.00  0.00    -0.217 OA
BRANCH  12  15
ATOM     15  C   UNL d   1     -56.363 -99.234 -43.948  0.00  0.00     0.088 A 
ATOM     16  C   UNL d   1     -56.708 -99.248 -44.704  0.00  0.00     0.011 A 
ATOM     17  C   UNL d   1     -57.512 -99.078 -44.778  0.00  0.00     0.001 A 
ATOM     18  C   UNL d   1     -57.862 -99.090 -45.520  0.00  0.00     0.000 C 
ATOM     19  C   UNL d   1     -57.968 -98.897 -44.115  0.00  0.00     0.000 A 
ATOM     20  C   UNL d   1     -57.611 -98.886 -43.364  0.00  0.00     0.001 A 
ATOM     21  C   UNL d   1     -56.810 -99.055 -43.292  0.00  0.00     0.011 A 
ENDBRANCH  12  15
ENDBRANCH  11  12
BRANCH  11  22
ATOM     22  C   UNL d   1     -54.794 -99.863 -42.719  0.00  0.00     0.135 C 
ATOM     23  N   UNL d   1     -54.755 -99.064 -42.344  0.00  0.00    -0.146 N 
ENDBRANCH  11  22
ENDBRANCH   1  11
BRANCH   2  24
ATOM     24  N   UNL d   1     -55.188-101.511 -42.695  0.00  0.00    -0.284 N 
ATOM     25  C   UNL d   1     -55.565-102.161 -42.335  0.00  0.00     0.106 A 
ATOM     26  C   UNL d   1     -55.654-102.167 -41.506  0.00  0.00     0.118 A 
ATOM     27  C   UNL d   1     -56.032-102.817 -41.146  0.00  0.00     0.028 C 
ATOM     28  O   UNL d   1     -55.371-101.535 -41.047  0.00  0.00    -0.304 OA
ATOM     29  C   UNL d   1     -54.999-100.897 -41.416  0.00  0.00     0.118 A 
ATOM     30  C   UNL d   1     -54.905-100.879 -42.236  0.00  0.00     0.106 A 
ATOM     31  C   UNL d   1     -54.715-100.264 -40.960  0.00  0.00     0.028 C 
ENDBRANCH   2  24
TORSDOF 5
ENDMDL
