MODEL 1
REMARK VINA RESULT:      -4.9      0.000      0.000
REMARK  2 active torsions:
REMARK  status: ('A' for Active; 'I' for Inactive)
REMARK       I    between atoms: N_4  and  C_1 
REMARK    1  A    between atoms: C_5  and  C_1 
REMARK       I    between atoms: C_2  and  N_3 
REMARK    2  A    between atoms: C_6  and  C_2 
ROOT
ATOM      1  C   UNL d   1      58.188  -1.213  29.926  0.00  0.00     0.265 C 
ATOM      2  C   UNL d   1      56.129  -0.925  32.744  0.00  0.00     0.265 C 
ATOM      3  N   UNL d   1      56.663  -0.689  32.176  0.00  0.00    -0.270 N 
ATOM      4  N   UNL d   1      57.715  -0.964  30.668  0.00  0.00    -0.270 N 
ATOM      5  C   UNL d   1      56.739  -1.391  31.710  0.00  0.00     0.102 A 
ATOM      6  C   UNL d   1      57.229  -1.513  31.011  0.00  0.00     0.102 A 
ATOM      7  O   UNL d   1      58.092  -2.063  29.605  0.00  0.00    -0.267 OA
ATOM      8  O   UNL d   1      55.834  -1.673  32.735  0.00  0.00    -0.267 OA
ATOM      9  C   UNL d   1      57.493   0.144  31.537  0.00  0.00     0.038 A 
ATOM     10  C   UNL d   1      57.807  -0.285  30.905  0.00  0.00     0.085 A 
ATOM     11  C   UNL d   1      57.047   0.015  32.047  0.00  0.00     0.085 A 
ENDROOT
BRANCH   2  12
ATOM     12  C   UNL d   1      55.901  -0.394  33.318  0.00  0.00     0.057 A 
ATOM     13  C   UNL d   1      55.146  -0.128  33.319  0.00  0.00     0.005 A 
ATOM     14  C   UNL d   1      54.908   0.403  33.889  0.00  0.00     0.000 A 
ATOM     15  C   UNL d   1      54.146   0.682  33.904  0.00  0.00     0.000 C 
ATOM     16  C   UNL d   1      55.439   0.658  34.448  0.00  0.00     0.000 A 
ATOM     17  C   UNL d   1      56.201   0.384  34.438  0.00  0.00     0.000 A 
ATOM     18  C   UNL d   1      56.432  -0.142  33.873  0.00  0.00     0.005 A 
ENDBRANCH   2  12
BRANCH   1  19
ATOM     19  C   UNL d   1      58.732  -0.580  29.552  0.00  0.00     0.057 A 
ATOM     20  C   UNL d   1      59.615  -0.575  29.743  0.00  0.00     0.005 A 
ATOM     21  C   UNL d   1      60.158   0.053  29.372  0.00  0.00     0.000 A 
ATOM     22  C   UNL d   1      61.046   0.077  29.550  0.00  0.00     0.000 C 
ATOM     23  C   UNL d   1      59.810   0.682  28.807  0.00  0.00     0.000 A 
ATOM     24  C   UNL d   1      58.916   0.672  28.618  0.00  0.00     0.000 A 
ATOM     25  C   UNL d   1      58.374   0.040  28.991  0.00  0.00     0.005 A 
ENDBRANCH   1  19
TORSDOF 2
ENDMDL
