MODEL 1
REMARK VINA RESULT:      46.8      0.000      0.000
REMARK  6 active torsions:
REMARK  status: ('A' for Active; 'I' for Inactive)
REMARK    1  A    between atoms: C_10  and  C_4 
REMARK    2  A    between atoms: N_12  and  C_5 
REMARK    3  A    between atoms: N_11  and  C_15 
REMARK    4  A    between atoms: C_20  and  N_12 
REMARK    5  A    between atoms: C_15  and  C_16 
REMARK    6  A    between atoms: C_16  and  C_20 
ROOT
ATOM      1  N   UNL d   1     -50.750  26.114  33.410  0.00  0.00    -0.195 N 
ATOM      2  C   UNL d   1     -51.542  25.888  33.381  0.00  0.00     0.167 A 
ATOM      3  N   UNL d   1     -50.287  25.436  33.431  0.00  0.00    -0.163 NA
ATOM      4  C   UNL d   1     -51.572  25.069  33.385  0.00  0.00     0.055 A 
ATOM      5  C   UNL d   1     -50.541  26.914  33.413  0.00  0.00     0.167 A 
ATOM      6  C   UNL d   1     -50.803  24.786  33.415  0.00  0.00     0.104 A 
ATOM      7  N   UNL d   1     -52.133  26.459  33.356  0.00  0.00    -0.227 NA
ATOM      8  C   UNL d   1     -51.143  27.491  33.387  0.00  0.00     0.058 A 
ATOM      9  C   UNL d   1     -51.934  27.264  33.359  0.00  0.00     0.086 A 
ATOM     10  C   UNL d   1     -50.577  23.993  33.428  0.00  0.00     0.023 C 
ATOM     11  C   UNL d   1     -52.531  27.839  33.334  0.00  0.00     0.021 C 
ENDROOT
BRANCH   5  12
ATOM     12  N   UNL d   1     -49.756  27.138  33.441  0.00  0.00    -0.225 NA
BRANCH  12  13
ATOM     13  C   UNL d   1     -49.537  27.826  33.836  0.00  0.00     0.102 C 
BRANCH  13  14
ATOM     14  C   UNL d   1     -48.762  27.913  34.125  0.00  0.00     0.040 C 
BRANCH  14  15
ATOM     15  C   UNL d   1     -48.635  28.156  34.901  0.00  0.00     0.082 C 
BRANCH  15  16
ATOM     16  N   UNL d   1     -48.130  28.788  35.059  0.00  0.00    -0.299 N 
ATOM     17  C   UNL d   1     -47.342  28.644  35.275  0.00  0.00     0.107 A 
ATOM     18  C   UNL d   1     -46.835  29.279  35.434  0.00  0.00     0.142 A 
ATOM     19  O   UNL d   1     -47.117  30.057  35.376  0.00  0.00    -0.300 OA
ATOM     20  C   UNL d   1     -47.900  30.197  35.161  0.00  0.00     0.142 A 
ATOM     21  C   UNL d   1     -48.407  29.562  35.002  0.00  0.00     0.107 A 
ENDBRANCH  15  16
ENDBRANCH  14  15
ENDBRANCH  13  14
ENDBRANCH  12  13
ENDBRANCH   5  12
BRANCH   4  22
ATOM     22  C   UNL d   1     -52.200  24.538  33.364  0.00  0.00     0.004 A 
ATOM     23  C   UNL d   1     -52.977  24.813  33.334  0.00  0.00     0.000 A 
ATOM     24  C   UNL d   1     -53.607  24.274  33.313  0.00  0.00     0.000 A 
ATOM     25  C   UNL d   1     -53.455  23.463  33.323  0.00  0.00     0.000 A 
ATOM     26  C   UNL d   1     -52.678  23.188  33.354  0.00  0.00     0.000 A 
ATOM     27  C   UNL d   1     -52.050  23.719  33.375  0.00  0.00     0.000 A 
ENDBRANCH   4  22
TORSDOF 6
ENDMDL
