MODEL 1
REMARK VINA RESULT:     103.9      0.000      0.000
REMARK  8 active torsions:
REMARK  status: ('A' for Active; 'I' for Inactive)
REMARK    1  A    between atoms: C_14  and  C_1 
REMARK    2  A    between atoms: C_6  and  C_2 
REMARK    3  A    between atoms: C_19  and  C_4 
REMARK       I    between atoms: N_13  and  C_6 
REMARK    4  A    between atoms: C_7  and  S_18 
REMARK    5  A    between atoms: C_26  and  N_13 
REMARK    6  A    between atoms: C_22  and  C_14 
REMARK    7  A    between atoms: S_18  and  C_22 
REMARK    8  A    between atoms: O_31  and  C_27 
ROOT
ATOM      1  C   UNL d   1      14.578  15.511  -3.120  0.00  0.00     0.076 A 
ATOM      2  C   UNL d   1      14.188  15.846  -4.433  0.00  0.00     0.092 A 
ATOM      3  C   UNL d   1      14.212  15.309  -3.824  0.00  0.00     0.018 A 
ATOM      4  C   UNL d   1      14.530  16.588  -4.345  0.00  0.00     0.120 A 
ATOM      5  N   UNL d   1      14.895  16.792  -3.647  0.00  0.00    -0.238 NA
ATOM      6  C   UNL d   1      14.919  16.252  -3.032  0.00  0.00     0.087 A 
ATOM      7  C   UNL d   1      13.822  15.645  -5.137  0.00  0.00     0.103 C 
ATOM      8  N   UNL d   1      13.462  15.447  -5.830  0.00  0.00    -0.191 NA
ATOM      9  C   UNL d   1      15.267  16.435  -2.355  0.00  0.00     0.021 C 
ENDROOT
BRANCH   4  10
ATOM     10  S   UNL d   1      14.505  17.127  -4.960  0.00  0.00    -0.063 SA
BRANCH  10  11
ATOM     11  C   UNL d   1      14.702  17.908  -4.830  0.00  0.00     0.079 C 
BRANCH  11  12
ATOM     12  C   UNL d   1      14.787  18.420  -5.456  0.00  0.00     0.207 C 
ATOM     13  O   UNL d   1      15.352  18.235  -6.088  0.00  0.00    -0.286 OA
BRANCH  12  14
ATOM     14  C   UNL d   1      14.460  19.100  -5.654  0.00  0.00     0.103 A 
ATOM     15  C   UNL d   1      13.792  19.313  -6.058  0.00  0.00     0.303 A 
ATOM     16  O   UNL d   1      13.623  20.100  -6.161  0.00  0.00    -0.273 OA
ATOM     17  O   UNL d   1      13.245  18.735  -6.389  0.00  0.00    -0.259 OA
ATOM     18  C   UNL d   1      14.122  20.674  -5.859  0.00  0.00     0.103 A 
ATOM     19  C   UNL d   1      14.790  20.466  -5.455  0.00  0.00     0.023 A 
ATOM     20  C   UNL d   1      13.936  21.486  -5.972  0.00  0.00     0.025 A 
ATOM     21  C   UNL d   1      14.963  19.668  -5.350  0.00  0.00     0.011 A 
ATOM     22  C   UNL d   1      15.306  21.049  -5.143  0.00  0.00     0.002 A 
ATOM     23  C   UNL d   1      15.132  21.851  -5.249  0.00  0.00     0.000 A 
ATOM     24  C   UNL d   1      14.439  22.070  -5.668  0.00  0.00     0.002 A 
ENDBRANCH  12  14
ENDBRANCH  11  12
ENDBRANCH  10  11
ENDBRANCH   4  10
BRANCH   3  25
ATOM     25  C   UNL d   1      13.871  14.570  -3.911  0.00  0.00     0.001 A 
ATOM     26  C   UNL d   1      14.276  13.969  -4.308  0.00  0.00     0.002 A 
ATOM     27  C   UNL d   1      13.931  13.221  -4.397  0.00  0.00     0.024 A 
ATOM     28  C   UNL d   1      13.182  13.075  -4.089  0.00  0.00     0.094 A 
ATOM     29  C   UNL d   1      12.773  13.671  -3.693  0.00  0.00     0.024 A 
ATOM     30  C   UNL d   1      13.118  14.419  -3.604  0.00  0.00     0.002 A 
BRANCH  28  31
ATOM     31  O   UNL d   1      12.866  12.336  -4.189  0.00  0.00    -0.328 OA
ATOM     32  C   UNL d   1      12.892  11.783  -3.457  0.00  0.00     0.181 C 
ENDBRANCH  28  31
ENDBRANCH   3  25
BRANCH   1  33
ATOM     33  C   UNL d   1      14.650  14.876  -2.290  0.00  0.00     0.281 C 
ATOM     34  N   UNL d   1      15.124  14.731  -1.688  0.00  0.00    -0.208 NA
ATOM     35  O   UNL d   1      13.970  14.242  -2.135  0.00  0.00    -0.265 OA
BRANCH  34  36
ATOM     36  C   UNL d   1      14.916  14.142  -1.165  0.00  0.00     0.085 A 
ATOM     37  C   UNL d   1      15.242  13.389  -1.255  0.00  0.00     0.019 A 
ATOM     38  C   UNL d   1      15.037  12.779  -0.728  0.00  0.00     0.002 A 
ATOM     39  C   UNL d   1      14.500  12.933  -0.107  0.00  0.00     0.000 A 
ATOM     40  C   UNL d   1      14.169  13.697  -0.016  0.00  0.00     0.002 A 
ATOM     41  C   UNL d   1      14.384  14.297  -0.552  0.00  0.00     0.019 A 
ENDBRANCH  34  36
ENDBRANCH   1  33
TORSDOF 8
ENDMDL
