MODEL 1
REMARK VINA RESULT:      -7.6      0.000      0.000
REMARK  4 active torsions:
REMARK  status: ('A' for Active; 'I' for Inactive)
REMARK    1  A    between atoms: N_8  and  C_1 
REMARK    2  A    between atoms: C_13  and  N_4 
REMARK    3  A    between atoms: C_6  and  N_8 
REMARK    4  A    between atoms: C_14  and  C_9 
ROOT
ATOM      1  C   UNL d   1     -47.563  13.899  23.092  0.00  0.00     0.135 A 
ATOM      2  C   UNL d   1     -48.132  13.316  23.255  0.00  0.00     0.296 A 
ATOM      3  N   UNL d   1     -48.710  14.282  22.542  0.00  0.00    -0.238 N 
ATOM      4  N   UNL d   1     -48.841  13.556  22.914  0.00  0.00    -0.209 N 
ATOM      5  C   UNL d   1     -47.926  14.482  22.657  0.00  0.00     0.102 A 
ATOM      6  O   UNL d   1     -48.007  12.628  23.679  0.00  0.00    -0.264 OA
ATOM      7  C   UNL d   1     -49.267  14.721  22.133  0.00  0.00     0.120 C 
ATOM      8  C   UNL d   1     -47.562  15.173  22.373  0.00  0.00     0.022 C 
ENDROOT
BRANCH   1   9
ATOM      9  N   UNL d   1     -46.773  13.880  23.332  0.00  0.00    -0.329 N 
ATOM     10  H   UNL d   1     -46.501  14.428  23.890  0.00  0.00     0.168 HD
BRANCH   9  11
ATOM     11  C   UNL d   1     -46.260  13.324  23.022  0.00  0.00     0.172 A 
ATOM     12  N   UNL d   1     -45.910  12.705  23.428  0.00  0.00    -0.222 NA
ATOM     13  C   UNL d   1     -45.435  12.285  22.895  0.00  0.00     0.090 A 
ATOM     14  C   UNL d   1     -45.496  12.648  22.166  0.00  0.00     0.057 A 
ATOM     15  S   UNL d   1     -46.009  13.296  22.239  0.00  0.00    -0.048 SA
BRANCH  13  16
ATOM     16  C   UNL d   1     -44.986  11.622  23.076  0.00  0.00     0.018 A 
ATOM     17  C   UNL d   1     -44.201  11.561  22.826  0.00  0.00     0.002 A 
ATOM     18  C   UNL d   1     -43.760  10.892  23.013  0.00  0.00     0.000 A 
ATOM     19  C   UNL d   1     -44.100  10.287  23.447  0.00  0.00     0.000 A 
ATOM     20  C   UNL d   1     -44.870  10.338  23.697  0.00  0.00     0.000 A 
ATOM     21  C   UNL d   1     -45.327  11.003  23.518  0.00  0.00     0.002 A 
ENDBRANCH  13  16
ENDBRANCH   9  11
ENDBRANCH   1   9
BRANCH   4  22
ATOM     22  C   UNL d   1     -49.553  13.150  22.936  0.00  0.00     0.085 A 
ATOM     23  C   UNL d   1     -50.084  13.275  23.555  0.00  0.00     0.019 A 
ATOM     24  C   UNL d   1     -50.796  12.862  23.568  0.00  0.00     0.002 A 
ATOM     25  C   UNL d   1     -50.978  12.328  22.967  0.00  0.00     0.000 A 
ATOM     26  C   UNL d   1     -50.447  12.203  22.347  0.00  0.00     0.002 A 
ATOM     27  C   UNL d   1     -49.735  12.612  22.329  0.00  0.00     0.019 A 
ENDBRANCH   4  22
TORSDOF 4
ENDMDL
MODEL 2
REMARK VINA RESULT:      -7.5      1.263      1.930
REMARK  4 active torsions:
REMARK  status: ('A' for Active; 'I' for Inactive)
REMARK    1  A    between atoms: N_8  and  C_1 
REMARK    2  A    between atoms: C_13  and  N_4 
REMARK    3  A    between atoms: C_6  and  N_8 
REMARK    4  A    between atoms: C_14  and  C_9 
ROOT
ATOM      1  C   UNL d   1     -47.837  12.867  23.336  0.00  0.00     0.135 A 
ATOM      2  C   UNL d   1     -48.414  13.344  22.977  0.00  0.00     0.296 A 
ATOM      3  N   UNL d   1     -48.814  12.076  22.908  0.00  0.00    -0.238 N 
ATOM      4  N   UNL d   1     -49.017  12.852  22.713  0.00  0.00    -0.209 N 
ATOM      5  C   UNL d   1     -48.091  12.096  23.288  0.00  0.00     0.102 A 
ATOM      6  O   UNL d   1     -48.385  14.158  22.901  0.00  0.00    -0.264 OA
ATOM      7  C   UNL d   1     -49.259  11.407  22.747  0.00  0.00     0.120 C 
ATOM      8  C   UNL d   1     -47.684  11.432  23.579  0.00  0.00     0.022 C 
ENDROOT
BRANCH   1   9
ATOM      9  N   UNL d   1     -47.135  13.136  23.678  0.00  0.00    -0.329 N 
ATOM     10  H   UNL d   1     -47.086  13.225  24.500  0.00  0.00     0.168 HD
BRANCH   9  11
ATOM     11  C   UNL d   1     -46.489  13.314  23.209  0.00  0.00     0.172 A 
ATOM     12  N   UNL d   1     -45.881  12.805  23.005  0.00  0.00    -0.222 NA
ATOM     13  C   UNL d   1     -45.350  13.220  22.525  0.00  0.00     0.090 A 
ATOM     14  C   UNL d   1     -45.635  13.981  22.436  0.00  0.00     0.057 A 
ATOM     15  S   UNL d   1     -46.344  14.044  22.860  0.00  0.00    -0.048 SA
BRANCH  13  16
ATOM     16  C   UNL d   1     -44.661  12.915  22.199  0.00  0.00     0.018 A 
ATOM     17  C   UNL d   1     -44.316  12.229  22.503  0.00  0.00     0.002 A 
ATOM     18  C   UNL d   1     -43.625  11.931  22.169  0.00  0.00     0.000 A 
ATOM     19  C   UNL d   1     -43.280  12.316  21.534  0.00  0.00     0.000 A 
ATOM     20  C   UNL d   1     -43.612  12.990  21.228  0.00  0.00     0.000 A 
ATOM     21  C   UNL d   1     -44.306  13.302  21.552  0.00  0.00     0.002 A 
ENDBRANCH  13  16
ENDBRANCH   9  11
ENDBRANCH   1   9
BRANCH   4  22
ATOM     22  C   UNL d   1     -49.701  13.086  22.324  0.00  0.00     0.085 A 
ATOM     23  C   UNL d   1     -50.383  13.263  22.754  0.00  0.00     0.019 A 
ATOM     24  C   UNL d   1     -51.064  13.497  22.355  0.00  0.00     0.002 A 
ATOM     25  C   UNL d   1     -51.064  13.554  21.532  0.00  0.00     0.000 A 
ATOM     26  C   UNL d   1     -50.382  13.376  21.103  0.00  0.00     0.002 A 
ATOM     27  C   UNL d   1     -49.700  13.142  21.496  0.00  0.00     0.019 A 
ENDBRANCH   4  22
TORSDOF 4
ENDMDL
MODEL 3
REMARK VINA RESULT:      -7.2      8.401      9.733
REMARK  4 active torsions:
REMARK  status: ('A' for Active; 'I' for Inactive)
REMARK    1  A    between atoms: N_8  and  C_1 
REMARK    2  A    between atoms: C_13  and  N_4 
REMARK    3  A    between atoms: C_6  and  N_8 
REMARK    4  A    between atoms: C_14  and  C_9 
ROOT
ATOM      1  C   UNL d   1     -39.408  15.482  18.808  0.00  0.00     0.135 A 
ATOM      2  C   UNL d   1     -38.827  14.975  18.499  0.00  0.00     0.296 A 
ATOM      3  N   UNL d   1     -39.878  14.957  17.682  0.00  0.00    -0.238 N 
ATOM      4  N   UNL d   1     -39.120  14.652  17.803  0.00  0.00    -0.209 N 
ATOM      5  C   UNL d   1     -40.044  15.463  18.301  0.00  0.00     0.102 A 
ATOM      6  O   UNL d   1     -38.094  14.827  18.832  0.00  0.00    -0.264 OA
ATOM      7  C   UNL d   1     -40.372  14.781  17.052  0.00  0.00     0.120 C 
ATOM      8  C   UNL d   1     -40.752  15.888  18.395  0.00  0.00     0.022 C 
ENDROOT
BRANCH   1   9
ATOM      9  N   UNL d   1     -39.344  15.922  19.503  0.00  0.00    -0.329 N 
ATOM     10  H   UNL d   1     -39.079  16.705  19.470  0.00  0.00     0.168 HD
BRANCH   9  11
ATOM     11  C   UNL d   1     -39.540  15.587  20.223  0.00  0.00     0.172 A 
ATOM     12  N   UNL d   1     -39.037  15.175  20.721  0.00  0.00    -0.222 NA
ATOM     13  C   UNL d   1     -39.471  14.938  21.385  0.00  0.00     0.090 A 
ATOM     14  C   UNL d   1     -40.238  15.205  21.291  0.00  0.00     0.057 A 
ATOM     15  S   UNL d   1     -40.286  15.610  20.569  0.00  0.00    -0.048 SA
BRANCH  13  16
ATOM     16  C   UNL d   1     -39.177  14.510  22.021  0.00  0.00     0.018 A 
ATOM     17  C   UNL d   1     -39.073  13.692  21.970  0.00  0.00     0.002 A 
ATOM     18  C   UNL d   1     -38.777  13.274  22.614  0.00  0.00     0.000 A 
ATOM     19  C   UNL d   1     -38.585  13.669  23.305  0.00  0.00     0.000 A 
ATOM     20  C   UNL d   1     -38.684  14.472  23.364  0.00  0.00     0.000 A 
ATOM     21  C   UNL d   1     -38.980  14.907  22.727  0.00  0.00     0.002 A 
ENDBRANCH  13  16
ENDBRANCH   9  11
ENDBRANCH   1   9
BRANCH   4  22
ATOM     22  C   UNL d   1     -38.732  14.121  17.313  0.00  0.00     0.085 A 
ATOM     23  C   UNL d   1     -38.738  13.314  17.487  0.00  0.00     0.019 A 
ATOM     24  C   UNL d   1     -38.346  12.789  16.988  0.00  0.00     0.002 A 
ATOM     25  C   UNL d   1     -37.951  13.067  16.320  0.00  0.00     0.000 A 
ATOM     26  C   UNL d   1     -37.945  13.873  16.146  0.00  0.00     0.002 A 
ATOM     27  C   UNL d   1     -38.335  14.402  16.640  0.00  0.00     0.019 A 
ENDBRANCH   4  22
TORSDOF 4
ENDMDL
MODEL 4
REMARK VINA RESULT:      -6.9      1.453      2.289
REMARK  4 active torsions:
REMARK  status: ('A' for Active; 'I' for Inactive)
REMARK    1  A    between atoms: N_8  and  C_1 
REMARK    2  A    between atoms: C_13  and  N_4 
REMARK    3  A    between atoms: C_6  and  N_8 
REMARK    4  A    between atoms: C_14  and  C_9 
ROOT
ATOM      1  C   UNL d   1     -49.027  12.632  22.348  0.00  0.00     0.135 A 
ATOM      2  C   UNL d   1     -49.263  13.220  22.885  0.00  0.00     0.296 A 
ATOM      3  N   UNL d   1     -49.588  13.617  21.657  0.00  0.00    -0.238 N 
ATOM      4  N   UNL d   1     -49.610  13.828  22.455  0.00  0.00    -0.209 N 
ATOM      5  C   UNL d   1     -49.230  12.885  21.602  0.00  0.00     0.102 A 
ATOM      6  O   UNL d   1     -49.167  13.195  23.697  0.00  0.00    -0.264 OA
ATOM      7  C   UNL d   1     -49.875  14.065  21.033  0.00  0.00     0.120 C 
ATOM      8  C   UNL d   1     -49.096  12.469  20.896  0.00  0.00     0.022 C 
ENDROOT
BRANCH   1   9
ATOM      9  N   UNL d   1     -48.654  11.923  22.545  0.00  0.00    -0.329 N 
ATOM     10  H   UNL d   1     -49.085  11.216  22.534  0.00  0.00     0.168 HD
BRANCH   9  11
ATOM     11  C   UNL d   1     -47.862  11.915  22.750  0.00  0.00     0.172 A 
ATOM     12  N   UNL d   1     -47.254  12.300  22.359  0.00  0.00    -0.222 NA
ATOM     13  C   UNL d   1     -46.549  12.138  22.759  0.00  0.00     0.090 A 
ATOM     14  C   UNL d   1     -46.726  11.655  23.394  0.00  0.00     0.057 A 
ATOM     15  S   UNL d   1     -47.543  11.513  23.392  0.00  0.00    -0.048 SA
BRANCH  13  16
ATOM     16  C   UNL d   1     -45.805  12.417  22.549  0.00  0.00     0.018 A 
ATOM     17  C   UNL d   1     -45.134  11.946  22.640  0.00  0.00     0.002 A 
ATOM     18  C   UNL d   1     -44.394  12.236  22.427  0.00  0.00     0.000 A 
ATOM     19  C   UNL d   1     -44.324  12.993  22.124  0.00  0.00     0.000 A 
ATOM     20  C   UNL d   1     -44.978  13.464  22.031  0.00  0.00     0.000 A 
ATOM     21  C   UNL d   1     -45.729  13.188  22.240  0.00  0.00     0.002 A 
ENDBRANCH  13  16
ENDBRANCH   9  11
ENDBRANCH   1   9
BRANCH   4  22
ATOM     22  C   UNL d   1     -49.924  14.522  22.760  0.00  0.00     0.085 A 
ATOM     23  C   UNL d   1     -50.727  14.571  22.941  0.00  0.00     0.019 A 
ATOM     24  C   UNL d   1     -51.032  15.272  23.247  0.00  0.00     0.002 A 
ATOM     25  C   UNL d   1     -50.539  15.920  23.370  0.00  0.00     0.000 A 
ATOM     26  C   UNL d   1     -49.735  15.872  23.189  0.00  0.00     0.002 A 
ATOM     27  C   UNL d   1     -49.425  15.174  22.884  0.00  0.00     0.019 A 
ENDBRANCH   4  22
TORSDOF 4
ENDMDL
MODEL 5
REMARK VINA RESULT:      -6.2      8.632      9.539
REMARK  4 active torsions:
REMARK  status: ('A' for Active; 'I' for Inactive)
REMARK    1  A    between atoms: N_8  and  C_1 
REMARK    2  A    between atoms: C_13  and  N_4 
REMARK    3  A    between atoms: C_6  and  N_8 
REMARK    4  A    between atoms: C_14  and  C_9 
ROOT
ATOM      1  C   UNL d   1     -38.491  14.607  18.835  0.00  0.00     0.135 A 
ATOM      2  C   UNL d   1     -39.044  15.136  18.511  0.00  0.00     0.296 A 
ATOM      3  N   UNL d   1     -39.200  13.951  17.923  0.00  0.00    -0.238 N 
ATOM      4  N   UNL d   1     -39.481  14.727  17.948  0.00  0.00    -0.209 N 
ATOM      5  C   UNL d   1     -38.596  13.889  18.469  0.00  0.00     0.102 A 
ATOM      6  O   UNL d   1     -39.135  15.922  18.718  0.00  0.00    -0.264 OA
ATOM      7  C   UNL d   1     -39.480  13.353  17.438  0.00  0.00     0.120 C 
ATOM      8  C   UNL d   1     -38.159  13.198  18.623  0.00  0.00     0.022 C 
ENDROOT
BRANCH   1   9
ATOM      9  N   UNL d   1     -37.940  14.788  19.422  0.00  0.00    -0.329 N 
ATOM     10  H   UNL d   1     -37.149  14.922  19.215  0.00  0.00     0.168 HD
BRANCH   9  11
ATOM     11  C   UNL d   1     -38.170  14.835  20.205  0.00  0.00     0.172 A 
ATOM     12  N   UNL d   1     -38.182  14.221  20.746  0.00  0.00    -0.222 NA
ATOM     13  C   UNL d   1     -38.453  14.521  21.469  0.00  0.00     0.090 A 
ATOM     14  C   UNL d   1     -38.605  15.317  21.367  0.00  0.00     0.057 A 
ATOM     15  S   UNL d   1     -38.431  15.518  20.582  0.00  0.00    -0.048 SA
BRANCH  13  16
ATOM     16  C   UNL d   1     -38.549  14.088  22.160  0.00  0.00     0.018 A 
ATOM     17  C   UNL d   1     -39.202  13.594  22.264  0.00  0.00     0.002 A 
ATOM     18  C   UNL d   1     -39.288  13.165  22.961  0.00  0.00     0.000 A 
ATOM     19  C   UNL d   1     -38.724  13.228  23.551  0.00  0.00     0.000 A 
ATOM     20  C   UNL d   1     -38.079  13.711  23.458  0.00  0.00     0.000 A 
ATOM     21  C   UNL d   1     -37.978  14.149  22.764  0.00  0.00     0.002 A 
ENDBRANCH  13  16
ENDBRANCH   9  11
ENDBRANCH   1   9
BRANCH   4  22
ATOM     22  C   UNL d   1     -40.089  15.032  17.489  0.00  0.00     0.085 A 
ATOM     23  C   UNL d   1     -39.929  15.352  16.745  0.00  0.00     0.019 A 
ATOM     24  C   UNL d   1     -40.546  15.656  16.292  0.00  0.00     0.002 A 
ATOM     25  C   UNL d   1     -41.318  15.640  16.580  0.00  0.00     0.000 A 
ATOM     26  C   UNL d   1     -41.479  15.320  17.323  0.00  0.00     0.002 A 
ATOM     27  C   UNL d   1     -40.867  15.015  17.780  0.00  0.00     0.019 A 
ENDBRANCH   4  22
TORSDOF 4
ENDMDL
MODEL 6
REMARK VINA RESULT:      -4.8      7.925     10.165
REMARK  4 active torsions:
REMARK  status: ('A' for Active; 'I' for Inactive)
REMARK    1  A    between atoms: N_8  and  C_1 
REMARK    2  A    between atoms: C_13  and  N_4 
REMARK    3  A    between atoms: C_6  and  N_8 
REMARK    4  A    between atoms: C_14  and  C_9 
ROOT
ATOM      1  C   UNL d   1     -38.162  14.286  18.633  0.00  0.00     0.135 A 
ATOM      2  C   UNL d   1     -38.330  14.926  18.132  0.00  0.00     0.296 A 
ATOM      3  N   UNL d   1     -38.479  13.799  17.439  0.00  0.00    -0.238 N 
ATOM      4  N   UNL d   1     -38.526  14.622  17.394  0.00  0.00    -0.209 N 
ATOM      5  C   UNL d   1     -38.256  13.604  18.200  0.00  0.00     0.102 A 
ATOM      6  O   UNL d   1     -38.304  15.717  18.338  0.00  0.00    -0.264 OA
ATOM      7  C   UNL d   1     -38.630  13.274  16.828  0.00  0.00     0.120 C 
ATOM      8  C   UNL d   1     -38.144  12.830  18.483  0.00  0.00     0.022 C 
ENDROOT
BRANCH   1   9
ATOM      9  N   UNL d   1     -37.940  14.341  19.426  0.00  0.00    -0.329 N 
ATOM     10  H   UNL d   1     -37.143  14.262  19.636  0.00  0.00     0.168 HD
BRANCH   9  11
ATOM     11  C   UNL d   1     -38.503  14.474  20.004  0.00  0.00     0.172 A 
ATOM     12  N   UNL d   1     -39.312  14.527  19.893  0.00  0.00    -0.222 NA
ATOM     13  C   UNL d   1     -39.664  14.664  20.629  0.00  0.00     0.090 A 
ATOM     14  C   UNL d   1     -39.070  14.695  21.189  0.00  0.00     0.057 A 
ATOM     15  S   UNL d   1     -38.345  14.577  20.805  0.00  0.00    -0.048 SA
BRANCH  13  16
ATOM     16  C   UNL d   1     -40.470  14.753  20.764  0.00  0.00     0.018 A 
ATOM     17  C   UNL d   1     -40.934  14.111  20.997  0.00  0.00     0.002 A 
ATOM     18  C   UNL d   1     -41.740  14.211  21.130  0.00  0.00     0.000 A 
ATOM     19  C   UNL d   1     -42.081  14.949  21.031  0.00  0.00     0.000 A 
ATOM     20  C   UNL d   1     -41.633  15.586  20.804  0.00  0.00     0.000 A 
ATOM     21  C   UNL d   1     -40.822  15.502  20.666  0.00  0.00     0.002 A 
ENDBRANCH  13  16
ENDBRANCH   9  11
ENDBRANCH   1   9
BRANCH   4  22
ATOM     22  C   UNL d   1     -38.732  15.055  16.728  0.00  0.00     0.085 A 
ATOM     23  C   UNL d   1     -39.497  15.353  16.647  0.00  0.00     0.019 A 
ATOM     24  C   UNL d   1     -39.694  15.786  15.975  0.00  0.00     0.002 A 
ATOM     25  C   UNL d   1     -39.131  15.922  15.388  0.00  0.00     0.000 A 
ATOM     26  C   UNL d   1     -38.365  15.624  15.470  0.00  0.00     0.002 A 
ATOM     27  C   UNL d   1     -38.164  15.191  16.138  0.00  0.00     0.019 A 
ENDBRANCH   4  22
TORSDOF 4
ENDMDL
