MODEL 1
REMARK VINA RESULT:      -2.5      0.000      0.000
REMARK  4 active torsions:
REMARK  status: ('A' for Active; 'I' for Inactive)
REMARK    1  A    between atoms: C_7  and  N_1 
REMARK    2  A    between atoms: C_9  and  C_7 
REMARK       I    between atoms: N_16  and  C_9 
REMARK    3  A    between atoms: C_21  and  N_16 
REMARK    4  A    between atoms: C_20  and  C_21 
ROOT
ATOM      1  C   UNL d   1     -42.467-122.466 -50.683  0.00  0.00     0.146 C 
ENDROOT
BRANCH   1   2
ATOM      2  N   UNL d   1     -42.317-122.583 -49.887  0.00  0.00    -0.269 N 
ATOM      3  C   UNL d   1     -41.622-122.277 -49.580  0.00  0.00     0.265 A 
ATOM      4  C   UNL d   1     -41.362-122.340 -48.758  0.00  0.00     0.068 A 
ATOM      5  O   UNL d   1     -41.123-121.868 -50.115  0.00  0.00    -0.267 OA
ATOM      6  C   UNL d   1     -41.762-122.723 -48.112  0.00  0.00     0.034 A 
ATOM      7  C   UNL d   1     -41.392-122.700 -47.388  0.00  0.00     0.007 C 
ATOM      8  S   UNL d   1     -42.482-123.113 -48.141  0.00  0.00    -0.085 SA
ATOM      9  C   UNL d   1     -42.880-123.189 -48.712  0.00  0.00     0.046 A 
ATOM     10  C   UNL d   1     -42.821-122.954 -49.518  0.00  0.00     0.073 A 
ATOM     11  C   UNL d   1     -43.552-123.623 -48.459  0.00  0.00     0.008 A 
ATOM     12  C   UNL d   1     -43.421-123.149 -50.061  0.00  0.00     0.018 A 
ATOM     13  C   UNL d   1     -44.086-123.579 -49.807  0.00  0.00     0.002 A 
ATOM     14  C   UNL d   1     -44.152-123.817 -49.002  0.00  0.00     0.001 A 
ENDBRANCH   1   2
BRANCH   1  15
ATOM     15  C   UNL d   1     -41.948-122.780 -51.240  0.00  0.00     0.297 C 
ATOM     16  N   UNL d   1     -41.903-122.476 -51.994  0.00  0.00    -0.205 NA
ATOM     17  O   UNL d   1     -41.470-123.411 -51.028  0.00  0.00    -0.264 OA
BRANCH  16  18
ATOM     18  C   UNL d   1     -41.391-122.789 -52.537  0.00  0.00     0.102 C 
BRANCH  18  19
ATOM     19  C   UNL d   1     -41.535-122.702 -53.337  0.00  0.00     0.021 A 
ATOM     20  C   UNL d   1     -41.879-122.007 -53.612  0.00  0.00     0.028 A 
ATOM     21  C   UNL d   1     -42.024-121.921 -54.425  0.00  0.00     0.119 A 
ATOM     22  O   UNL d   1     -42.346-121.323 -54.859  0.00  0.00    -0.300 OA
ATOM     23  C   UNL d   1     -41.824-122.525 -54.935  0.00  0.00     0.119 A 
ATOM     24  C   UNL d   1     -42.351-121.547 -55.642  0.00  0.00     0.304 A 
ATOM     25  O   UNL d   1     -42.028-122.292 -55.696  0.00  0.00    -0.300 OA
ATOM     26  C   UNL d   1     -41.480-123.217 -54.644  0.00  0.00     0.026 A 
ATOM     27  C   UNL d   1     -41.339-123.295 -53.842  0.00  0.00     0.004 A 
ENDBRANCH  18  19
ENDBRANCH  16  18
ENDBRANCH   1  15
TORSDOF 4
ENDMDL
MODEL 2
REMARK VINA RESULT:       0.0      1.956      5.449
REMARK  4 active torsions:
REMARK  status: ('A' for Active; 'I' for Inactive)
REMARK    1  A    between atoms: C_7  and  N_1 
REMARK    2  A    between atoms: C_9  and  C_7 
REMARK       I    between atoms: N_16  and  C_9 
REMARK    3  A    between atoms: C_21  and  N_16 
REMARK    4  A    between atoms: C_20  and  C_21 
ROOT
ATOM      1  C   UNL d   1     -41.331-122.178 -52.780  0.00  0.00     0.146 C 
ENDROOT
BRANCH   1   2
ATOM      2  N   UNL d   1     -41.593-121.946 -53.520  0.00  0.00    -0.269 N 
ATOM      3  C   UNL d   1     -41.869-121.179 -53.603  0.00  0.00     0.265 A 
ATOM      4  C   UNL d   1     -42.168-120.827 -54.334  0.00  0.00     0.068 A 
ATOM      5  O   UNL d   1     -41.859-120.698 -52.917  0.00  0.00    -0.267 OA
ATOM      6  C   UNL d   1     -42.237-121.192 -55.100  0.00  0.00     0.034 A 
ATOM      7  C   UNL d   1     -42.539-120.732 -55.698  0.00  0.00     0.007 C 
ATOM      8  S   UNL d   1     -42.030-121.960 -55.299  0.00  0.00    -0.085 SA
ATOM      9  C   UNL d   1     -41.762-122.435 -54.861  0.00  0.00     0.046 A 
ATOM     10  C   UNL d   1     -41.556-122.447 -54.044  0.00  0.00     0.073 A 
ATOM     11  C   UNL d   1     -41.647-123.126 -55.323  0.00  0.00     0.008 A 
ATOM     12  C   UNL d   1     -41.240-123.135 -53.697  0.00  0.00     0.018 A 
ATOM     13  C   UNL d   1     -41.127-123.817 -54.159  0.00  0.00     0.002 A 
ATOM     14  C   UNL d   1     -41.331-123.813 -54.976  0.00  0.00     0.001 A 
ENDBRANCH   1   2
BRANCH   1  15
ATOM     15  C   UNL d   1     -41.869-122.219 -52.159  0.00  0.00     0.297 C 
ATOM     16  N   UNL d   1     -41.650-122.505 -51.428  0.00  0.00    -0.205 NA
ATOM     17  O   UNL d   1     -42.639-121.966 -52.280  0.00  0.00    -0.264 OA
BRANCH  16  18
ATOM     18  C   UNL d   1     -42.184-122.543 -50.820  0.00  0.00     0.102 C 
BRANCH  18  19
ATOM     19  C   UNL d   1     -41.974-122.884 -50.108  0.00  0.00     0.021 A 
ATOM     20  C   UNL d   1     -42.328-122.620 -49.414  0.00  0.00     0.028 A 
ATOM     21  C   UNL d   1     -42.113-122.967 -48.691  0.00  0.00     0.119 A 
ATOM     22  O   UNL d   1     -42.353-122.837 -47.933  0.00  0.00    -0.300 OA
ATOM     23  C   UNL d   1     -41.556-123.563 -48.682  0.00  0.00     0.119 A 
ATOM     24  C   UNL d   1     -41.948-123.348 -47.444  0.00  0.00     0.304 A 
ATOM     25  O   UNL d   1     -41.452-123.801 -47.903  0.00  0.00    -0.300 OA
ATOM     26  C   UNL d   1     -41.209-123.817 -49.387  0.00  0.00     0.026 A 
ATOM     27  C   UNL d   1     -41.426-123.470 -50.096  0.00  0.00     0.004 A 
ENDBRANCH  18  19
ENDBRANCH  16  18
ENDBRANCH   1  15
TORSDOF 4
ENDMDL
