MODEL 1
REMARK VINA RESULT:      56.2      0.000      0.000
REMARK  2 active torsions:
REMARK  status: ('A' for Active; 'I' for Inactive)
REMARK    1  A    between atoms: S_2  and  N_1 
REMARK    2  A    between atoms: C_10  and  S_2 
ROOT
ATOM      1  S   UNL d   1      61.256  47.342  50.407  0.00  0.00     0.273 S 
ATOM      2  O   UNL d   1      60.701  46.936  50.863  0.00  0.00    -0.200 OA
ATOM      3  O   UNL d   1      61.807  47.756  49.956  0.00  0.00    -0.200 OA
ENDROOT
BRANCH   1   4
ATOM      4  N   UNL d   1      61.022  48.055  50.751  0.00  0.00    -0.207 N 
ATOM      5  C   UNL d   1      60.536  48.527  50.279  0.00  0.00     0.148 A 
ATOM      6  N   UNL d   1      60.208  49.270  50.458  0.00  0.00    -0.198 NA
ATOM      7  C   UNL d   1      60.285  49.708  51.137  0.00  0.00     0.066 A 
ATOM      8  C   UNL d   1      60.794  48.699  51.028  0.00  0.00     0.169 A 
ATOM      9  C   UNL d   1      60.707  49.531  51.823  0.00  0.00     0.066 A 
ATOM     10  N   UNL d   1      61.159  48.860  51.990  0.00  0.00    -0.198 NA
ATOM     11  C   UNL d   1      61.297  48.206  51.512  0.00  0.00     0.148 A 
ENDBRANCH   1   4
BRANCH   1  12
ATOM     12  C   UNL d   1      61.492  46.632  50.062  0.00  0.00     0.104 A 
ATOM     13  C   UNL d   1      61.132  45.925  50.284  0.00  0.00     0.013 A 
ATOM     14  C   UNL d   1      61.368  45.215  49.939  0.00  0.00     0.001 A 
ATOM     15  C   UNL d   1      61.966  45.212  49.371  0.00  0.00     0.000 A 
ATOM     16  C   UNL d   1      62.327  45.919  49.148  0.00  0.00     0.001 A 
ATOM     17  C   UNL d   1      62.091  46.629  49.493  0.00  0.00     0.013 A 
ENDBRANCH   1  12
TORSDOF 2
ENDMDL
MODEL 2
REMARK VINA RESULT:      58.7      1.047      3.379
REMARK  2 active torsions:
REMARK  status: ('A' for Active; 'I' for Inactive)
REMARK    1  A    between atoms: S_2  and  N_1 
REMARK    2  A    between atoms: C_10  and  S_2 
ROOT
ATOM      1  S   UNL d   1      61.212  47.584  50.510  0.00  0.00     0.273 S 
ATOM      2  O   UNL d   1      61.661  48.004  49.960  0.00  0.00    -0.200 OA
ATOM      3  O   UNL d   1      60.766  47.156  51.055  0.00  0.00    -0.200 OA
ENDROOT
BRANCH   1   4
ATOM      4  N   UNL d   1      61.438  46.873  50.157  0.00  0.00    -0.207 N 
ATOM      5  C   UNL d   1      62.061  46.932  49.620  0.00  0.00     0.148 A 
ATOM      6  N   UNL d   1      62.419  46.328  49.174  0.00  0.00    -0.198 NA
ATOM      7  C   UNL d   1      62.241  45.536  49.161  0.00  0.00     0.066 A 
ATOM      8  C   UNL d   1      61.666  46.255  49.824  0.00  0.00     0.169 A 
ATOM      9  C   UNL d   1      61.664  45.127  49.584  0.00  0.00     0.066 A 
ATOM     10  N   UNL d   1      61.118  45.424  50.130  0.00  0.00    -0.198 NA
ATOM     11  C   UNL d   1      61.021  46.199  50.382  0.00  0.00     0.148 A 
ENDBRANCH   1   4
BRANCH   1  12
ATOM     12  C   UNL d   1      60.984  48.291  50.865  0.00  0.00     0.104 A 
ATOM     13  C   UNL d   1      61.138  48.421  51.665  0.00  0.00     0.013 A 
ATOM     14  C   UNL d   1      60.909  49.129  52.019  0.00  0.00     0.001 A 
ATOM     15  C   UNL d   1      60.527  49.708  51.575  0.00  0.00     0.000 A 
ATOM     16  C   UNL d   1      60.372  49.580  50.774  0.00  0.00     0.001 A 
ATOM     17  C   UNL d   1      60.601  48.872  50.420  0.00  0.00     0.013 A 
ENDBRANCH   1  12
TORSDOF 2
ENDMDL
