MODEL 1
REMARK VINA RESULT:      14.8      0.000      0.000
REMARK  1 active torsions:
REMARK  status: ('A' for Active; 'I' for Inactive)
REMARK       I    between atoms: N_2  and  C_1 
REMARK       I    between atoms: N_4  and  C_1 
REMARK    1  A    between atoms: C_5  and  N_2 
ROOT
ATOM      1  N   UNL d   1     -52.413  25.608  33.487  0.00  0.00    -0.242 NA
ATOM      2  C   UNL d   1     -51.015  25.234  33.362  0.00  0.00     0.105 A 
ATOM      3  C   UNL d   1     -52.030  24.207  33.358  0.00  0.00     0.019 A 
ATOM      4  C   UNL d   1     -52.622  24.795  33.440  0.00  0.00     0.082 A 
ATOM      5  C   UNL d   1     -51.226  24.433  33.318  0.00  0.00     0.022 A 
ATOM      6  C   UNL d   1     -51.610  25.820  33.450  0.00  0.00     0.118 A 
ATOM      7  C   UNL d   1     -52.246  23.407  33.306  0.00  0.00     0.002 A 
ATOM      8  C   UNL d   1     -53.420  24.579  33.478  0.00  0.00     0.019 A 
ATOM      9  C   UNL d   1     -53.052  23.189  33.345  0.00  0.00     0.000 A 
ATOM     10  C   UNL d   1     -53.639  23.769  33.432  0.00  0.00     0.002 A 
ENDROOT
BRANCH   2  11
ATOM     11  N   UNL d   1     -50.217  25.455  33.333  0.00  0.00    -0.191 NA
ATOM     12  C   UNL d   1     -50.003  26.257  33.352  0.00  0.00     0.354 C 
ATOM     13  N   UNL d   1     -50.592  26.847  33.406  0.00  0.00    -0.253 N 
ATOM     14  O   UNL d   1     -49.194  26.483  33.315  0.00  0.00    -0.244 OA
ATOM     15  C   UNL d   1     -51.394  26.625  33.431  0.00  0.00     0.104 C 
ATOM     16  C   UNL d   1     -50.374  27.650  33.416  0.00  0.00     0.104 C 
ENDBRANCH   2  11
TORSDOF 1
ENDMDL
MODEL 2
REMARK VINA RESULT:      17.4      2.090      3.646
REMARK  1 active torsions:
REMARK  status: ('A' for Active; 'I' for Inactive)
REMARK       I    between atoms: N_2  and  C_1 
REMARK       I    between atoms: N_4  and  C_1 
REMARK    1  A    between atoms: C_5  and  N_2 
ROOT
ATOM      1  N   UNL d   1     -51.140  23.432  33.413  0.00  0.00    -0.242 NA
ATOM      2  C   UNL d   1     -52.537  23.824  33.328  0.00  0.00     0.105 A 
ATOM      3  C   UNL d   1     -51.512  24.840  33.338  0.00  0.00     0.019 A 
ATOM      4  C   UNL d   1     -50.924  24.244  33.388  0.00  0.00     0.082 A 
ATOM      5  C   UNL d   1     -52.319  24.623  33.306  0.00  0.00     0.022 A 
ATOM      6  C   UNL d   1     -51.946  23.229  33.385  0.00  0.00     0.118 A 
ATOM      7  C   UNL d   1     -51.289  25.639  33.308  0.00  0.00     0.002 A 
ATOM      8  C   UNL d   1     -50.123  24.451  33.418  0.00  0.00     0.019 A 
ATOM      9  C   UNL d   1     -50.479  25.848  33.338  0.00  0.00     0.000 A 
ATOM     10  C   UNL d   1     -49.898  25.261  33.394  0.00  0.00     0.002 A 
ENDROOT
BRANCH   2  11
ATOM     11  N   UNL d   1     -53.337  23.610  33.308  0.00  0.00    -0.191 NA
ATOM     12  C   UNL d   1     -53.737  23.413  34.008  0.00  0.00     0.354 C 
ATOM     13  N   UNL d   1     -53.335  23.436  34.741  0.00  0.00    -0.253 N 
ATOM     14  O   UNL d   1     -54.548  23.189  33.988  0.00  0.00    -0.244 OA
ATOM     15  C   UNL d   1     -52.530  23.646  34.761  0.00  0.00     0.104 C 
ATOM     16  C   UNL d   1     -53.738  23.230  35.440  0.00  0.00     0.104 C 
ENDBRANCH   2  11
TORSDOF 1
ENDMDL
