MODEL 1
REMARK VINA RESULT:      17.1      0.000      0.000
REMARK  2 active torsions:
REMARK  status: ('A' for Active; 'I' for Inactive)
REMARK    1  A    between atoms: N_9  and  C_2 
REMARK    2  A    between atoms: C_11  and  N_9 
ROOT
ATOM      1  C   UNL d   1      60.112  49.677  51.255  0.00  0.00     0.154 A 
ATOM      2  C   UNL d   1      59.451  49.696  50.768  0.00  0.00     0.185 A 
ATOM      3  C   UNL d   1      60.868  49.668  50.925  0.00  0.00     0.186 A 
ATOM      4  N   UNL d   1      60.190  49.663  52.076  0.00  0.00    -0.218 NA
ATOM      5  N   UNL d   1      61.412  49.650  51.543  0.00  0.00    -0.203 NA
ATOM      6  N   UNL d   1      59.543  49.706  49.948  0.00  0.00    -0.203 NA
ATOM      7  N   UNL d   1      60.963  49.679  50.110  0.00  0.00    -0.203 NA
ATOM      8  C   UNL d   1      60.999  49.646  52.248  0.00  0.00     0.201 A 
ATOM      9  C   UNL d   1      60.299  49.698  49.619  0.00  0.00     0.202 A 
ENDROOT
BRANCH   2  10
ATOM     10  N   UNL d   1      58.694  49.705  51.098  0.00  0.00    -0.225 NA
BRANCH  10  11
ATOM     11  C   UNL d   1      58.034  49.609  50.618  0.00  0.00     0.083 A 
ATOM     12  C   UNL d   1      58.096  49.708  49.802  0.00  0.00     0.021 A 
ATOM     13  C   UNL d   1      57.440  49.613  49.324  0.00  0.00     0.031 A 
ATOM     14  C   UNL d   1      56.704  49.416  49.660  0.00  0.00     0.140 A 
ATOM     15  C   UNL d   1      56.641  49.317  50.477  0.00  0.00     0.031 A 
ATOM     16  F   UNL d   1      56.034  49.318  49.181  0.00  0.00    -0.204 F 
ATOM     17  C   UNL d   1      57.306  49.413  50.956  0.00  0.00     0.021 A 
ENDBRANCH  10  11
ENDBRANCH   2  10
TORSDOF 2
ENDMDL
