MODEL 1
REMARK VINA RESULT:      -1.8      0.000      0.000
REMARK  7 active torsions:
REMARK  status: ('A' for Active; 'I' for Inactive)
REMARK    1  A    between atoms: C_3  and  C_1 
REMARK    2  A    between atoms: C_9  and  N_2 
REMARK    3  A    between atoms: C_6  and  C_3 
REMARK    4  A    between atoms: C_8  and  C_3 
REMARK       I    between atoms: N_11  and  C_6 
REMARK    5  A    between atoms: C_26  and  C_7 
REMARK    6  A    between atoms: C_21  and  N_11 
REMARK    7  A    between atoms: C_12  and  C_21 
ROOT
ATOM      1  C   UNL d   1      59.006  -0.564  29.364  0.00  0.00     0.103 A 
ATOM      2  N   UNL d   1      59.237  -1.334  29.193  0.00  0.00    -0.269 N 
ATOM      3  S   UNL d   1      59.641  -0.063  29.197  0.00  0.00    -0.064 SA
ATOM      4  C   UNL d   1      60.016  -1.318  28.920  0.00  0.00     0.271 A 
ATOM      5  C   UNL d   1      60.263  -0.530  28.923  0.00  0.00     0.087 A 
ATOM      6  O   UNL d   1      60.462  -1.969  28.687  0.00  0.00    -0.266 OA
ENDROOT
BRANCH   1   7
ATOM      7  C   UNL d   1      58.266  -0.328  29.653  0.00  0.00     0.101 C 
BRANCH   7   8
ATOM      8  C   UNL d   1      58.176  -0.121  30.448  0.00  0.00     0.283 C 
ATOM      9  N   UNL d   1      57.477  -0.289  30.842  0.00  0.00    -0.204 NA
ATOM     10  O   UNL d   1      58.797   0.257  30.846  0.00  0.00    -0.265 OA
BRANCH   9  11
ATOM     11  C   UNL d   1      57.388  -0.083  31.638  0.00  0.00     0.127 C 
BRANCH  11  12
ATOM     12  C   UNL d   1      56.775  -0.397  32.087  0.00  0.00     0.119 A 
ATOM     13  O   UNL d   1      56.241  -0.979  31.856  0.00  0.00    -0.304 OA
ATOM     14  C   UNL d   1      55.724  -1.122  32.483  0.00  0.00     0.123 A 
ATOM     15  C   UNL d   1      55.938  -0.627  33.104  0.00  0.00     0.029 A 
ATOM     16  C   UNL d   1      56.585  -0.179  32.864  0.00  0.00     0.028 A 
ENDBRANCH  11  12
ENDBRANCH   9  11
ENDBRANCH   7   8
BRANCH   7  17
ATOM     17  C   UNL d   1      57.612  -0.298  29.141  0.00  0.00     0.129 C 
ATOM     18  N   UNL d   1      57.444   0.401  28.740  0.00  0.00    -0.146 N 
ENDBRANCH   7  17
ENDBRANCH   1   7
BRANCH   2  19
ATOM     19  C   UNL d   1      59.211  -2.156  29.108  0.00  0.00     0.068 A 
ATOM     20  C   UNL d   1      59.761  -2.627  29.485  0.00  0.00     0.020 A 
ATOM     21  C   UNL d   1      59.734  -3.443  29.399  0.00  0.00     0.031 A 
ATOM     22  C   UNL d   1      59.146  -3.788  28.928  0.00  0.00     0.140 A 
ATOM     23  C   UNL d   1      58.592  -3.309  28.548  0.00  0.00     0.031 A 
ATOM     24  F   UNL d   1      59.113  -4.605  28.837  0.00  0.00    -0.204 F 
ATOM     25  C   UNL d   1      58.623  -2.495  28.636  0.00  0.00     0.020 A 
ENDBRANCH   2  19
BRANCH   5  26
ATOM     26  C   UNL d   1      61.009  -0.262  28.690  0.00  0.00     0.011 C 
ATOM     27  C   UNL d   1      61.133   0.534  28.539  0.00  0.00     0.001 C 
ENDBRANCH   5  26
TORSDOF 7
ENDMDL
