MODEL 1
REMARK VINA RESULT:      -5.8      0.000      0.000
REMARK  6 active torsions:
REMARK  status: ('A' for Active; 'I' for Inactive)
REMARK    1  A    between atoms: C_3  and  C_1 
REMARK    2  A    between atoms: C_5  and  C_1 
REMARK    3  A    between atoms: C_2  and  C_5 
REMARK    4  A    between atoms: C_4  and  C_2 
REMARK    5  A    between atoms: C_8  and  C_3 
REMARK    6  A    between atoms: C_7  and  C_4 
ROOT
ATOM      1  C   UNL d   1     -46.661  13.645  22.963  0.00  0.00     0.196 C 
ATOM      2  O   UNL d   1     -46.145  14.242  22.695  0.00  0.00    -0.287 OA
ENDROOT
BRANCH   1   3
ATOM      3  C   UNL d   1     -46.362  12.916  23.192  0.00  0.00     0.042 C 
BRANCH   3   4
ATOM      4  C   UNL d   1     -45.674  12.610  22.855  0.00  0.00     0.003 C 
BRANCH   4   5
ATOM      5  C   UNL d   1     -45.363  11.844  23.075  0.00  0.00     0.000 A 
ATOM      6  C   UNL d   1     -45.832  11.296  23.476  0.00  0.00     0.002 A 
ATOM      7  C   UNL d   1     -45.528  10.567  23.681  0.00  0.00     0.030 A 
ATOM      8  C   UNL d   1     -44.752  10.381  23.488  0.00  0.00     0.140 A 
ATOM      9  C   UNL d   1     -44.283  10.929  23.088  0.00  0.00     0.030 A 
ATOM     10  F   UNL d   1     -44.432   9.638  23.694  0.00  0.00    -0.204 F 
ATOM     11  C   UNL d   1     -44.575  11.679  22.868  0.00  0.00     0.002 A 
ENDBRANCH   4   5
ENDBRANCH   3   4
ENDBRANCH   1   3
BRANCH   1  12
ATOM     12  C   UNL d   1     -47.465  13.783  22.998  0.00  0.00     0.042 C 
BRANCH  12  13
ATOM     13  C   UNL d   1     -47.795  14.422  22.594  0.00  0.00     0.003 C 
BRANCH  13  14
ATOM     14  C   UNL d   1     -48.627  14.550  22.631  0.00  0.00     0.000 A 
ATOM     15  C   UNL d   1     -48.907  15.153  23.128  0.00  0.00     0.002 A 
ATOM     16  C   UNL d   1     -49.716  15.288  23.173  0.00  0.00     0.030 A 
ATOM     17  C   UNL d   1     -50.243  14.821  22.722  0.00  0.00     0.140 A 
ATOM     18  C   UNL d   1     -49.945  14.223  22.230  0.00  0.00     0.030 A 
ATOM     19  F   UNL d   1     -51.055  14.968  22.777  0.00  0.00    -0.204 F 
ATOM     20  C   UNL d   1     -49.135  14.088  22.186  0.00  0.00     0.002 A 
ENDBRANCH  13  14
ENDBRANCH  12  13
ENDBRANCH   1  12
TORSDOF 6
ENDMDL
MODEL 2
REMARK VINA RESULT:      -5.6      1.147      5.555
REMARK  6 active torsions:
REMARK  status: ('A' for Active; 'I' for Inactive)
REMARK    1  A    between atoms: C_3  and  C_1 
REMARK    2  A    between atoms: C_5  and  C_1 
REMARK    3  A    between atoms: C_2  and  C_5 
REMARK    4  A    between atoms: C_4  and  C_2 
REMARK    5  A    between atoms: C_8  and  C_3 
REMARK    6  A    between atoms: C_7  and  C_4 
ROOT
ATOM      1  C   UNL d   1     -47.404  12.070  23.448  0.00  0.00     0.196 C 
ATOM      2  O   UNL d   1     -47.930  11.473  23.695  0.00  0.00    -0.287 OA
ENDROOT
BRANCH   1   3
ATOM      3  C   UNL d   1     -47.681  12.828  23.305  0.00  0.00     0.042 C 
BRANCH   3   4
ATOM      4  C   UNL d   1     -48.287  12.967  22.762  0.00  0.00     0.003 C 
BRANCH   4   5
ATOM      5  C   UNL d   1     -48.678  13.726  22.703  0.00  0.00     0.000 A 
ATOM      6  C   UNL d   1     -48.251  14.410  22.528  0.00  0.00     0.002 A 
ATOM      7  C   UNL d   1     -48.631  15.130  22.473  0.00  0.00     0.030 A 
ATOM      8  C   UNL d   1     -49.442  15.171  22.593  0.00  0.00     0.140 A 
ATOM      9  C   UNL d   1     -49.869  14.488  22.767  0.00  0.00     0.030 A 
ATOM     10  F   UNL d   1     -49.841  15.903  22.539  0.00  0.00    -0.204 F 
ATOM     11  C   UNL d   1     -49.499  13.742  22.828  0.00  0.00     0.002 A 
ENDBRANCH   4   5
ENDBRANCH   3   4
ENDBRANCH   1   3
BRANCH   1  12
ATOM     12  C   UNL d   1     -46.610  11.903  23.348  0.00  0.00     0.042 C 
BRANCH  12  13
ATOM     13  C   UNL d   1     -46.286  11.218  23.674  0.00  0.00     0.003 C 
BRANCH  13  14
ATOM     14  C   UNL d   1     -45.486  11.016  23.501  0.00  0.00     0.000 A 
ATOM     15  C   UNL d   1     -45.225  10.252  23.697  0.00  0.00     0.002 A 
ATOM     16  C   UNL d   1     -44.447  10.045  23.533  0.00  0.00     0.030 A 
ATOM     17  C   UNL d   1     -43.933  10.597  23.175  0.00  0.00     0.140 A 
ATOM     18  C   UNL d   1     -44.212  11.356  22.986  0.00  0.00     0.030 A 
ATOM     19  F   UNL d   1     -43.153  10.373  23.016  0.00  0.00    -0.204 F 
ATOM     20  C   UNL d   1     -44.990  11.564  23.150  0.00  0.00     0.002 A 
ENDBRANCH  13  14
ENDBRANCH  12  13
ENDBRANCH   1  12
TORSDOF 6
ENDMDL
MODEL 3
REMARK VINA RESULT:      -5.5      1.986      2.617
REMARK  6 active torsions:
REMARK  status: ('A' for Active; 'I' for Inactive)
REMARK    1  A    between atoms: C_3  and  C_1 
REMARK    2  A    between atoms: C_5  and  C_1 
REMARK    3  A    between atoms: C_2  and  C_5 
REMARK    4  A    between atoms: C_4  and  C_2 
REMARK    5  A    between atoms: C_8  and  C_3 
REMARK    6  A    between atoms: C_7  and  C_4 
ROOT
ATOM      1  C   UNL d   1     -48.168  11.611  23.317  0.00  0.00     0.196 C 
ATOM      2  O   UNL d   1     -48.438  10.921  23.698  0.00  0.00    -0.287 OA
ENDROOT
BRANCH   1   3
ATOM      3  C   UNL d   1     -47.374  11.690  23.124  0.00  0.00     0.042 C 
BRANCH   3   4
ATOM      4  C   UNL d   1     -46.896  12.248  23.501  0.00  0.00     0.003 C 
BRANCH   4   5
ATOM      5  C   UNL d   1     -46.306  12.700  23.077  0.00  0.00     0.000 A 
ATOM      6  C   UNL d   1     -45.702  12.323  22.660  0.00  0.00     0.002 A 
ATOM      7  C   UNL d   1     -45.144  12.761  22.258  0.00  0.00     0.030 A 
ATOM      8  C   UNL d   1     -45.185  13.581  22.270  0.00  0.00     0.140 A 
ATOM      9  C   UNL d   1     -45.788  13.958  22.687  0.00  0.00     0.030 A 
ATOM     10  F   UNL d   1     -44.618  14.039  21.862  0.00  0.00    -0.204 F 
ATOM     11  C   UNL d   1     -46.369  13.528  23.104  0.00  0.00     0.002 A 
ENDBRANCH   4   5
ENDBRANCH   3   4
ENDBRANCH   1   3
BRANCH   1  12
ATOM     12  C   UNL d   1     -48.691  12.210  23.132  0.00  0.00     0.042 C 
BRANCH  12  13
ATOM     13  C   UNL d   1     -49.414  12.035  22.776  0.00  0.00     0.003 C 
BRANCH  13  14
ATOM     14  C   UNL d   1     -49.833  12.642  22.369  0.00  0.00     0.000 A 
ATOM     15  C   UNL d   1     -50.076  12.494  21.589  0.00  0.00     0.002 A 
ATOM     16  C   UNL d   1     -50.485  13.079  21.182  0.00  0.00     0.030 A 
ATOM     17  C   UNL d   1     -50.651  13.809  21.554  0.00  0.00     0.140 A 
ATOM     18  C   UNL d   1     -50.400  13.939  22.334  0.00  0.00     0.030 A 
ATOM     19  F   UNL d   1     -51.064  14.388  21.132  0.00  0.00    -0.204 F 
ATOM     20  C   UNL d   1     -49.991  13.354  22.741  0.00  0.00     0.002 A 
ENDBRANCH  13  14
ENDBRANCH  12  13
ENDBRANCH   1  12
TORSDOF 6
ENDMDL
MODEL 4
REMARK VINA RESULT:      -5.5      1.827      2.183
REMARK  6 active torsions:
REMARK  status: ('A' for Active; 'I' for Inactive)
REMARK    1  A    between atoms: C_3  and  C_1 
REMARK    2  A    between atoms: C_5  and  C_1 
REMARK    3  A    between atoms: C_2  and  C_5 
REMARK    4  A    between atoms: C_4  and  C_2 
REMARK    5  A    between atoms: C_8  and  C_3 
REMARK    6  A    between atoms: C_7  and  C_4 
ROOT
ATOM      1  C   UNL d   1     -47.013  13.624  22.883  0.00  0.00     0.196 C 
ATOM      2  O   UNL d   1     -47.097  14.453  22.897  0.00  0.00    -0.287 OA
ENDROOT
BRANCH   1   3
ATOM      3  C   UNL d   1     -46.266  13.287  22.856  0.00  0.00     0.042 C 
BRANCH   3   4
ATOM      4  C   UNL d   1     -45.803  13.327  22.174  0.00  0.00     0.003 C 
BRANCH   4   5
ATOM      5  C   UNL d   1     -45.033  12.955  22.126  0.00  0.00     0.000 A 
ATOM      6  C   UNL d   1     -44.855  12.290  22.581  0.00  0.00     0.002 A 
ATOM      7  C   UNL d   1     -44.119  11.942  22.529  0.00  0.00     0.030 A 
ATOM      8  C   UNL d   1     -43.556  12.255  22.022  0.00  0.00     0.140 A 
ATOM      9  C   UNL d   1     -43.734  12.920  21.567  0.00  0.00     0.030 A 
ATOM     10  F   UNL d   1     -42.799  11.906  21.961  0.00  0.00    -0.204 F 
ATOM     11  C   UNL d   1     -44.480  13.291  21.605  0.00  0.00     0.002 A 
ENDBRANCH   4   5
ENDBRANCH   3   4
ENDBRANCH   1   3
BRANCH   1  12
ATOM     12  C   UNL d   1     -47.674  13.144  22.896  0.00  0.00     0.042 C 
BRANCH  12  13
ATOM     13  C   UNL d   1     -48.372  13.408  23.247  0.00  0.00     0.003 C 
BRANCH  13  14
ATOM     14  C   UNL d   1     -49.041  12.896  23.276  0.00  0.00     0.000 A 
ATOM     15  C   UNL d   1     -49.735  13.137  22.890  0.00  0.00     0.002 A 
ATOM     16  C   UNL d   1     -50.393  12.645  22.912  0.00  0.00     0.030 A 
ATOM     17  C   UNL d   1     -50.356  11.916  23.318  0.00  0.00     0.140 A 
ATOM     18  C   UNL d   1     -49.654  11.691  23.698  0.00  0.00     0.030 A 
ATOM     19  F   UNL d   1     -51.027  11.431  23.331  0.00  0.00    -0.204 F 
ATOM     20  C   UNL d   1     -48.996  12.183  23.676  0.00  0.00     0.002 A 
ENDBRANCH  13  14
ENDBRANCH  12  13
ENDBRANCH   1  12
TORSDOF 6
ENDMDL
MODEL 5
REMARK VINA RESULT:      -5.5      1.642      5.217
REMARK  6 active torsions:
REMARK  status: ('A' for Active; 'I' for Inactive)
REMARK    1  A    between atoms: C_3  and  C_1 
REMARK    2  A    between atoms: C_5  and  C_1 
REMARK    3  A    between atoms: C_2  and  C_5 
REMARK    4  A    between atoms: C_4  and  C_2 
REMARK    5  A    between atoms: C_8  and  C_3 
REMARK    6  A    between atoms: C_7  and  C_4 
ROOT
ATOM      1  C   UNL d   1     -48.262  12.021  23.356  0.00  0.00     0.196 C 
ATOM      2  O   UNL d   1     -48.527  11.262  23.571  0.00  0.00    -0.287 OA
ENDROOT
BRANCH   1   3
ATOM      3  C   UNL d   1     -48.718  12.681  23.528  0.00  0.00     0.042 C 
BRANCH   3   4
ATOM      4  C   UNL d   1     -49.443  12.808  23.155  0.00  0.00     0.003 C 
BRANCH   4   5
ATOM      5  C   UNL d   1     -49.867  13.549  23.228  0.00  0.00     0.000 A 
ATOM      6  C   UNL d   1     -50.585  13.587  23.632  0.00  0.00     0.002 A 
ATOM      7  C   UNL d   1     -50.983  14.297  23.697  0.00  0.00     0.030 A 
ATOM      8  C   UNL d   1     -50.665  14.973  23.358  0.00  0.00     0.140 A 
ATOM      9  C   UNL d   1     -49.947  14.935  22.954  0.00  0.00     0.030 A 
ATOM     10  F   UNL d   1     -51.064  15.704  23.418  0.00  0.00    -0.204 F 
ATOM     11  C   UNL d   1     -49.525  14.219  22.876  0.00  0.00     0.002 A 
ENDBRANCH   4   5
ENDBRANCH   3   4
ENDBRANCH   1   3
BRANCH   1  12
ATOM     12  C   UNL d   1     -47.546  12.113  22.973  0.00  0.00     0.042 C 
BRANCH  12  13
ATOM     13  C   UNL d   1     -46.872  12.325  23.398  0.00  0.00     0.003 C 
BRANCH  13  14
ATOM     14  C   UNL d   1     -46.150  12.467  22.986  0.00  0.00     0.000 A 
ATOM     15  C   UNL d   1     -46.058  13.195  22.599  0.00  0.00     0.002 A 
ATOM     16  C   UNL d   1     -45.358  13.344  22.194  0.00  0.00     0.030 A 
ATOM     17  C   UNL d   1     -44.754  12.767  22.177  0.00  0.00     0.140 A 
ATOM     18  C   UNL d   1     -44.864  12.044  22.570  0.00  0.00     0.030 A 
ATOM     19  F   UNL d   1     -44.056  12.932  21.765  0.00  0.00    -0.204 F 
ATOM     20  C   UNL d   1     -45.564  11.896  22.975  0.00  0.00     0.002 A 
ENDBRANCH  13  14
ENDBRANCH  12  13
ENDBRANCH   1  12
TORSDOF 6
ENDMDL
MODEL 6
REMARK VINA RESULT:      -5.4      7.813      9.540
REMARK  6 active torsions:
REMARK  status: ('A' for Active; 'I' for Inactive)
REMARK    1  A    between atoms: C_3  and  C_1 
REMARK    2  A    between atoms: C_5  and  C_1 
REMARK    3  A    between atoms: C_2  and  C_5 
REMARK    4  A    between atoms: C_4  and  C_2 
REMARK    5  A    between atoms: C_8  and  C_3 
REMARK    6  A    between atoms: C_7  and  C_4 
ROOT
ATOM      1  C   UNL d   1     -40.419  14.237  18.693  0.00  0.00     0.196 C 
ATOM      2  O   UNL d   1     -41.048  13.690  18.686  0.00  0.00    -0.287 OA
ENDROOT
BRANCH   1   3
ATOM      3  C   UNL d   1     -40.095  14.499  17.986  0.00  0.00     0.042 C 
BRANCH   3   4
ATOM      4  C   UNL d   1     -39.534  14.050  17.580  0.00  0.00     0.003 C 
BRANCH   4   5
ATOM      5  C   UNL d   1     -39.127  14.348  16.889  0.00  0.00     0.000 A 
ATOM      6  C   UNL d   1     -39.162  15.148  16.690  0.00  0.00     0.002 A 
ATOM      7  C   UNL d   1     -38.772  15.424  16.029  0.00  0.00     0.030 A 
ATOM      8  C   UNL d   1     -38.343  14.903  15.562  0.00  0.00     0.140 A 
ATOM      9  C   UNL d   1     -38.308  14.103  15.761  0.00  0.00     0.030 A 
ATOM     10  F   UNL d   1     -37.940  15.176  14.884  0.00  0.00    -0.204 F 
ATOM     11  C   UNL d   1     -38.701  13.800  16.433  0.00  0.00     0.002 A 
ENDBRANCH   4   5
ENDBRANCH   3   4
ENDBRANCH   1   3
BRANCH   1  12
ATOM     12  C   UNL d   1     -40.124  14.515  19.402  0.00  0.00     0.042 C 
BRANCH  12  13
ATOM     13  C   UNL d   1     -40.590  14.492  20.083  0.00  0.00     0.003 C 
BRANCH  13  14
ATOM     14  C   UNL d   1     -40.308  14.855  20.789  0.00  0.00     0.000 A 
ATOM     15  C   UNL d   1     -39.712  14.468  21.217  0.00  0.00     0.002 A 
ATOM     16  C   UNL d   1     -39.430  14.813  21.907  0.00  0.00     0.030 A 
ATOM     17  C   UNL d   1     -39.743  15.542  22.169  0.00  0.00     0.140 A 
ATOM     18  C   UNL d   1     -40.340  15.915  21.728  0.00  0.00     0.030 A 
ATOM     19  F   UNL d   1     -39.449  15.877  22.865  0.00  0.00    -0.204 F 
ATOM     20  C   UNL d   1     -40.621  15.570  21.037  0.00  0.00     0.002 A 
ENDBRANCH  13  14
ENDBRANCH  12  13
ENDBRANCH   1  12
TORSDOF 6
ENDMDL
MODEL 7
REMARK VINA RESULT:      -5.4      8.067      9.535
REMARK  6 active torsions:
REMARK  status: ('A' for Active; 'I' for Inactive)
REMARK    1  A    between atoms: C_3  and  C_1 
REMARK    2  A    between atoms: C_5  and  C_1 
REMARK    3  A    between atoms: C_2  and  C_5 
REMARK    4  A    between atoms: C_4  and  C_2 
REMARK    5  A    between atoms: C_8  and  C_3 
REMARK    6  A    between atoms: C_7  and  C_4 
ROOT
ATOM      1  C   UNL d   1     -40.374  14.348  19.295  0.00  0.00     0.196 C 
ATOM      2  O   UNL d   1     -41.151  14.051  19.267  0.00  0.00    -0.287 OA
ENDROOT
BRANCH   1   3
ATOM      3  C   UNL d   1     -40.115  14.761  19.955  0.00  0.00     0.042 C 
BRANCH   3   4
ATOM      4  C   UNL d   1     -40.216  14.458  20.716  0.00  0.00     0.003 C 
BRANCH   4   5
ATOM      5  C   UNL d   1     -39.806  14.786  21.392  0.00  0.00     0.000 A 
ATOM      6  C   UNL d   1     -39.399  14.297  21.917  0.00  0.00     0.002 A 
ATOM      7  C   UNL d   1     -39.011  14.617  22.560  0.00  0.00     0.030 A 
ATOM      8  C   UNL d   1     -39.028  15.428  22.683  0.00  0.00     0.140 A 
ATOM      9  C   UNL d   1     -39.435  15.917  22.158  0.00  0.00     0.030 A 
ATOM     10  F   UNL d   1     -38.634  15.765  23.337  0.00  0.00    -0.204 F 
ATOM     11  C   UNL d   1     -39.838  15.609  21.494  0.00  0.00     0.002 A 
ENDBRANCH   4   5
ENDBRANCH   3   4
ENDBRANCH   1   3
BRANCH   1  12
ATOM     12  C   UNL d   1     -39.866  14.230  18.666  0.00  0.00     0.042 C 
BRANCH  12  13
ATOM     13  C   UNL d   1     -40.105  14.417  17.899  0.00  0.00     0.003 C 
BRANCH  13  14
ATOM     14  C   UNL d   1     -39.551  14.358  17.266  0.00  0.00     0.000 A 
ATOM     15  C   UNL d   1     -39.446  15.020  16.777  0.00  0.00     0.002 A 
ATOM     16  C   UNL d   1     -38.908  14.974  16.157  0.00  0.00     0.030 A 
ATOM     17  C   UNL d   1     -38.478  14.269  16.028  0.00  0.00     0.140 A 
ATOM     18  C   UNL d   1     -38.596  13.617  16.528  0.00  0.00     0.030 A 
ATOM     19  F   UNL d   1     -37.940  14.238  15.400  0.00  0.00    -0.204 F 
ATOM     20  C   UNL d   1     -39.134  13.664  17.148  0.00  0.00     0.002 A 
ENDBRANCH  13  14
ENDBRANCH  12  13
ENDBRANCH   1  12
TORSDOF 6
ENDMDL
MODEL 8
REMARK VINA RESULT:      -5.3      1.756      4.681
REMARK  6 active torsions:
REMARK  status: ('A' for Active; 'I' for Inactive)
REMARK    1  A    between atoms: C_3  and  C_1 
REMARK    2  A    between atoms: C_5  and  C_1 
REMARK    3  A    between atoms: C_2  and  C_5 
REMARK    4  A    between atoms: C_4  and  C_2 
REMARK    5  A    between atoms: C_8  and  C_3 
REMARK    6  A    between atoms: C_7  and  C_4 
ROOT
ATOM      1  C   UNL d   1     -47.846  14.406  22.614  0.00  0.00     0.196 C 
ATOM      2  O   UNL d   1     -47.931  15.219  22.452  0.00  0.00    -0.287 OA
ENDROOT
BRANCH   1   3
ATOM      3  C   UNL d   1     -48.434  14.005  23.023  0.00  0.00     0.042 C 
BRANCH   3   4
ATOM      4  C   UNL d   1     -49.161  13.836  22.672  0.00  0.00     0.003 C 
BRANCH   4   5
ATOM      5  C   UNL d   1     -49.656  13.191  22.941  0.00  0.00     0.000 A 
ATOM      6  C   UNL d   1     -50.311  13.333  23.421  0.00  0.00     0.002 A 
ATOM      7  C   UNL d   1     -50.778  12.713  23.673  0.00  0.00     0.030 A 
ATOM      8  C   UNL d   1     -50.593  11.946  23.446  0.00  0.00     0.140 A 
ATOM      9  C   UNL d   1     -49.938  11.805  22.965  0.00  0.00     0.030 A 
ATOM     10  F   UNL d   1     -51.064  11.305  23.698  0.00  0.00    -0.204 F 
ATOM     11  C   UNL d   1     -49.448  12.425  22.697  0.00  0.00     0.002 A 
ENDBRANCH   4   5
ENDBRANCH   3   4
ENDBRANCH   1   3
BRANCH   1  12
ATOM     12  C   UNL d   1     -47.179  14.005  22.367  0.00  0.00     0.042 C 
BRANCH  12  13
ATOM     13  C   UNL d   1     -46.534  13.920  22.875  0.00  0.00     0.003 C 
BRANCH  13  14
ATOM     14  C   UNL d   1     -45.881  13.442  22.639  0.00  0.00     0.000 A 
ATOM     15  C   UNL d   1     -45.359  13.748  22.070  0.00  0.00     0.002 A 
ATOM     16  C   UNL d   1     -44.719  13.291  21.833  0.00  0.00     0.030 A 
ATOM     17  C   UNL d   1     -44.602  12.532  22.162  0.00  0.00     0.140 A 
ATOM     18  C   UNL d   1     -45.135  12.243  22.729  0.00  0.00     0.030 A 
ATOM     19  F   UNL d   1     -43.953  12.083  21.912  0.00  0.00    -0.204 F 
ATOM     20  C   UNL d   1     -45.775  12.700  22.967  0.00  0.00     0.002 A 
ENDBRANCH  13  14
ENDBRANCH  12  13
ENDBRANCH   1  12
TORSDOF 6
ENDMDL
MODEL 9
REMARK VINA RESULT:      -4.9      8.279      9.828
REMARK  6 active torsions:
REMARK  status: ('A' for Active; 'I' for Inactive)
REMARK    1  A    between atoms: C_3  and  C_1 
REMARK    2  A    between atoms: C_5  and  C_1 
REMARK    3  A    between atoms: C_2  and  C_5 
REMARK    4  A    between atoms: C_4  and  C_2 
REMARK    5  A    between atoms: C_8  and  C_3 
REMARK    6  A    between atoms: C_7  and  C_4 
ROOT
ATOM      1  C   UNL d   1     -38.904  14.884  19.344  0.00  0.00     0.196 C 
ATOM      2  O   UNL d   1     -38.156  15.112  19.056  0.00  0.00    -0.287 OA
ENDROOT
BRANCH   1   3
ATOM      3  C   UNL d   1     -39.579  15.043  18.905  0.00  0.00     0.042 C 
BRANCH   3   4
ATOM      4  C   UNL d   1     -39.559  15.558  18.261  0.00  0.00     0.003 C 
BRANCH   4   5
ATOM      5  C   UNL d   1     -40.221  15.639  17.724  0.00  0.00     0.000 A 
ATOM      6  C   UNL d   1     -40.969  15.847  18.003  0.00  0.00     0.002 A 
ATOM      7  C   UNL d   1     -41.595  15.922  17.485  0.00  0.00     0.030 A 
ATOM      8  C   UNL d   1     -41.478  15.790  16.684  0.00  0.00     0.140 A 
ATOM      9  C   UNL d   1     -40.730  15.582  16.405  0.00  0.00     0.030 A 
ATOM     10  F   UNL d   1     -42.111  15.864  16.145  0.00  0.00    -0.204 F 
ATOM     11  C   UNL d   1     -40.076  15.500  16.918  0.00  0.00     0.002 A 
ENDBRANCH   4   5
ENDBRANCH   3   4
ENDBRANCH   1   3
BRANCH   1  12
ATOM     12  C   UNL d   1     -38.968  14.501  20.062  0.00  0.00     0.042 C 
BRANCH  12  13
ATOM     13  C   UNL d   1     -38.297  14.368  20.523  0.00  0.00     0.003 C 
BRANCH  13  14
ATOM     14  C   UNL d   1     -38.379  13.996  21.275  0.00  0.00     0.000 A 
ATOM     15  C   UNL d   1     -37.955  13.295  21.411  0.00  0.00     0.002 A 
ATOM     16  C   UNL d   1     -38.027  12.923  22.141  0.00  0.00     0.030 A 
ATOM     17  C   UNL d   1     -38.520  13.252  22.731  0.00  0.00     0.140 A 
ATOM     18  C   UNL d   1     -38.935  13.953  22.576  0.00  0.00     0.030 A 
ATOM     19  F   UNL d   1     -38.582  12.866  23.460  0.00  0.00    -0.204 F 
ATOM     20  C   UNL d   1     -38.863  14.325  21.847  0.00  0.00     0.002 A 
ENDBRANCH  13  14
ENDBRANCH  12  13
ENDBRANCH   1  12
TORSDOF 6
ENDMDL
