MODEL 1
REMARK VINA RESULT:      -8.8      0.000      0.000
REMARK  3 active torsions:
REMARK  status: ('A' for Active; 'I' for Inactive)
REMARK    1  A    between atoms: C_6  and  N_1 
REMARK    2  A    between atoms: C_5  and  C_9 
REMARK    3  A    between atoms: C_14  and  C_6 
ROOT
ATOM      1  C   UNL d   1      53.096  30.558  53.439  0.00  0.00     0.064 A 
ATOM      2  C   UNL d   1      53.809  30.803  53.773  0.00  0.00     0.006 A 
ATOM      3  C   UNL d   1      52.617  31.099  53.046  0.00  0.00     0.006 A 
ATOM      4  C   UNL d   1      53.564  32.135  53.317  0.00  0.00     0.018 A 
ATOM      5  C   UNL d   1      54.044  31.590  53.713  0.00  0.00     0.002 A 
ATOM      6  C   UNL d   1      52.851  31.890  52.984  0.00  0.00     0.002 A 
ENDROOT
BRANCH   4   7
ATOM      7  C   UNL d   1      53.799  32.923  53.257  0.00  0.00     0.084 C 
BRANCH   7   8
ATOM      8  N   UNL d   1      53.609  33.458  53.855  0.00  0.00    -0.259 N 
ATOM      9  C   UNL d   1      52.981  34.000  53.836  0.00  0.00     0.153 A 
ATOM     10  S   UNL d   1      52.996  34.419  54.541  0.00  0.00    -0.053 SA
ATOM     11  S   UNL d   1      52.442  34.095  53.217  0.00  0.00    -0.052 SA
ATOM     12  C   UNL d   1      53.628  34.140  54.992  0.00  0.00     0.099 A 
ATOM     13  C   UNL d   1      54.005  33.547  54.568  0.00  0.00     0.272 A 
ATOM     14  O   UNL d   1      54.667  33.112  54.811  0.00  0.00    -0.266 OA
ENDBRANCH   7   8
ENDBRANCH   4   7
BRANCH   1  15
ATOM     15  C   UNL d   1      52.863  29.763  53.503  0.00  0.00     0.211 C 
ATOM     16  O   UNL d   1      52.299  29.455  52.989  0.00  0.00    -0.644 OA
ATOM     17  O   UNL d   1      53.200  29.283  54.083  0.00  0.00    -0.644 OA
ENDBRANCH   1  15
TORSDOF 3
ENDMDL
MODEL 2
REMARK VINA RESULT:      -8.1      2.007      3.618
REMARK  3 active torsions:
REMARK  status: ('A' for Active; 'I' for Inactive)
REMARK    1  A    between atoms: C_6  and  N_1 
REMARK    2  A    between atoms: C_5  and  C_9 
REMARK    3  A    between atoms: C_14  and  C_6 
ROOT
ATOM      1  C   UNL d   1      54.414  33.398  54.733  0.00  0.00     0.064 A 
ATOM      2  C   UNL d   1      54.628  33.412  53.937  0.00  0.00     0.006 A 
ATOM      3  C   UNL d   1      54.090  32.716  55.060  0.00  0.00     0.006 A 
ATOM      4  C   UNL d   1      54.192  32.059  53.795  0.00  0.00     0.018 A 
ATOM      5  C   UNL d   1      54.518  32.745  53.467  0.00  0.00     0.002 A 
ATOM      6  C   UNL d   1      53.978  32.045  54.591  0.00  0.00     0.002 A 
ENDROOT
BRANCH   4   7
ATOM      7  C   UNL d   1      54.081  31.391  53.325  0.00  0.00     0.084 C 
BRANCH   7   8
ATOM      8  N   UNL d   1      53.330  31.058  53.250  0.00  0.00    -0.259 N 
ATOM      9  C   UNL d   1      53.093  30.326  53.562  0.00  0.00     0.153 A 
ATOM     10  S   UNL d   1      52.307  30.215  53.356  0.00  0.00    -0.053 SA
ATOM     11  S   UNL d   1      53.567  29.810  53.998  0.00  0.00    -0.052 SA
ATOM     12  C   UNL d   1      52.060  30.871  52.922  0.00  0.00     0.099 A 
ATOM     13  C   UNL d   1      52.692  31.390  52.857  0.00  0.00     0.272 A 
ATOM     14  O   UNL d   1      52.691  32.120  52.465  0.00  0.00    -0.266 OA
ENDBRANCH   7   8
ENDBRANCH   4   7
BRANCH   1  15
ATOM     15  C   UNL d   1      54.527  34.074  55.203  0.00  0.00     0.211 C 
ATOM     16  O   UNL d   1      53.922  34.624  55.288  0.00  0.00    -0.644 OA
ATOM     17  O   UNL d   1      55.250  34.191  55.583  0.00  0.00    -0.644 OA
ENDBRANCH   1  15
TORSDOF 3
ENDMDL
MODEL 3
REMARK VINA RESULT:      -8.1      2.482      3.293
REMARK  3 active torsions:
REMARK  status: ('A' for Active; 'I' for Inactive)
REMARK    1  A    between atoms: C_6  and  N_1 
REMARK    2  A    between atoms: C_5  and  C_9 
REMARK    3  A    between atoms: C_14  and  C_6 
ROOT
ATOM      1  C   UNL d   1      51.102  34.184  52.883  0.00  0.00     0.064 A 
ATOM      2  C   UNL d   1      51.677  34.775  52.891  0.00  0.00     0.006 A 
ATOM      3  C   UNL d   1      51.315  33.399  53.009  0.00  0.00     0.006 A 
ATOM      4  C   UNL d   1      52.682  33.794  53.153  0.00  0.00     0.018 A 
ATOM      5  C   UNL d   1      52.466  34.582  53.025  0.00  0.00     0.002 A 
ATOM      6  C   UNL d   1      52.107  33.202  53.144  0.00  0.00     0.002 A 
ENDROOT
BRANCH   4   7
ATOM      7  C   UNL d   1      53.472  33.600  53.287  0.00  0.00     0.084 C 
BRANCH   7   8
ATOM      8  N   UNL d   1      53.723  33.394  54.046  0.00  0.00    -0.259 N 
ATOM      9  C   UNL d   1      53.874  32.623  54.312  0.00  0.00     0.153 A 
ATOM     10  S   UNL d   1      54.111  32.675  55.095  0.00  0.00    -0.053 SA
ATOM     11  S   UNL d   1      53.799  31.933  53.864  0.00  0.00    -0.052 SA
ATOM     12  C   UNL d   1      54.106  33.470  55.312  0.00  0.00     0.099 A 
ATOM     13  C   UNL d   1      53.867  33.914  54.664  0.00  0.00     0.272 A 
ATOM     14  O   UNL d   1      53.784  34.737  54.635  0.00  0.00    -0.266 OA
ENDBRANCH   7   8
ENDBRANCH   4   7
BRANCH   1  15
ATOM     15  C   UNL d   1      50.307  34.384  52.746  0.00  0.00     0.211 C 
ATOM     16  O   UNL d   1      49.872  34.771  53.328  0.00  0.00    -0.644 OA
ATOM     17  O   UNL d   1      49.955  34.192  52.025  0.00  0.00    -0.644 OA
ENDBRANCH   1  15
TORSDOF 3
ENDMDL
MODEL 4
REMARK VINA RESULT:      -7.5      1.732      3.185
REMARK  3 active torsions:
REMARK  status: ('A' for Active; 'I' for Inactive)
REMARK    1  A    between atoms: C_6  and  N_1 
REMARK    2  A    between atoms: C_5  and  C_9 
REMARK    3  A    between atoms: C_14  and  C_6 
ROOT
ATOM      1  C   UNL d   1      54.443  33.576  54.710  0.00  0.00     0.064 A 
ATOM      2  C   UNL d   1      54.517  32.966  54.159  0.00  0.00     0.006 A 
ATOM      3  C   UNL d   1      53.848  34.137  54.626  0.00  0.00     0.006 A 
ATOM      4  C   UNL d   1      53.397  33.483  53.437  0.00  0.00     0.018 A 
ATOM      5  C   UNL d   1      53.996  32.919  53.523  0.00  0.00     0.002 A 
ATOM      6  C   UNL d   1      53.323  34.092  53.988  0.00  0.00     0.002 A 
ENDROOT
BRANCH   4   7
ATOM      7  C   UNL d   1      52.876  33.436  52.801  0.00  0.00     0.084 C 
BRANCH   7   8
ATOM      8  N   UNL d   1      52.085  33.236  52.928  0.00  0.00    -0.259 N 
ATOM      9  C   UNL d   1      51.450  33.770  52.948  0.00  0.00     0.153 A 
ATOM     10  S   UNL d   1      50.769  33.336  53.089  0.00  0.00    -0.053 SA
ATOM     11  S   UNL d   1      51.502  34.588  52.844  0.00  0.00    -0.052 SA
ATOM     12  C   UNL d   1      50.980  32.541  53.156  0.00  0.00     0.099 A 
ATOM     13  C   UNL d   1      51.792  32.481  53.057  0.00  0.00     0.272 A 
ATOM     14  O   UNL d   1      52.241  31.785  53.081  0.00  0.00    -0.266 OA
ENDBRANCH   7   8
ENDBRANCH   4   7
BRANCH   1  15
ATOM     15  C   UNL d   1      54.971  33.619  55.350  0.00  0.00     0.211 C 
ATOM     16  O   UNL d   1      55.636  34.101  55.305  0.00  0.00    -0.644 OA
ATOM     17  O   UNL d   1      54.826  33.177  56.031  0.00  0.00    -0.644 OA
ENDBRANCH   1  15
TORSDOF 3
ENDMDL
