MODEL 1
REMARK VINA RESULT:      24.9      0.000      0.000
REMARK  7 active torsions:
REMARK  status: ('A' for Active; 'I' for Inactive)
REMARK    1  A    between atoms: C_6  and  C_1 
REMARK    2  A    between atoms: C_8  and  N_3 
REMARK    3  A    between atoms: O_7  and  C_6 
REMARK    4  A    between atoms: C_9  and  O_7 
REMARK    5  A    between atoms: C_19  and  C_8 
REMARK    6  A    between atoms: O_16  and  C_10 
REMARK    7  A    between atoms: O_18  and  C_19 
ROOT
ATOM      1  C   UNL d   1      45.587 -15.581  44.638  0.00  0.00     0.173 A 
ATOM      2  N   UNL d   1      44.792 -15.811  44.728  0.00  0.00    -0.225 NA
ATOM      3  N   UNL d   1      45.619 -14.743  44.653  0.00  0.00    -0.286 N 
ATOM      4  C   UNL d   1      44.836 -14.457  44.753  0.00  0.00     0.083 A 
ATOM      5  C   UNL d   1      44.332 -15.122  44.799  0.00  0.00     0.099 A 
ATOM      6  C   UNL d   1      44.514 -13.700  44.809  0.00  0.00     0.019 A 
ATOM      7  C   UNL d   1      43.516 -15.015  44.899  0.00  0.00     0.021 A 
ATOM      8  C   UNL d   1      43.702 -13.597  44.909  0.00  0.00     0.002 A 
ATOM      9  C   UNL d   1      43.203 -14.254  44.954  0.00  0.00     0.002 A 
ENDROOT
BRANCH   1  10
ATOM     10  C   UNL d   1      46.084 -16.230  44.563  0.00  0.00     0.160 C 
BRANCH  10  11
ATOM     11  O   UNL d   1      46.117 -16.649  43.849  0.00  0.00    -0.302 OA
BRANCH  11  12
ATOM     12  C   UNL d   1      46.194 -17.470  43.851  0.00  0.00     0.100 A 
ATOM     13  C   UNL d   1      45.917 -17.902  43.208  0.00  0.00     0.027 A 
ATOM     14  C   UNL d   1      45.993 -18.724  43.209  0.00  0.00     0.026 A 
ATOM     15  C   UNL d   1      46.346 -19.109  43.852  0.00  0.00     0.094 A 
ATOM     16  C   UNL d   1      46.620 -18.671  44.490  0.00  0.00     0.026 A 
ATOM     17  C   UNL d   1      46.544 -17.850  44.489  0.00  0.00     0.027 A 
BRANCH  15  18
ATOM     18  O   UNL d   1      46.422 -19.928  43.853  0.00  0.00    -0.328 OA
ATOM     19  C   UNL d   1      46.606 -20.329  44.550  0.00  0.00     0.181 C 
ENDBRANCH  15  18
ENDBRANCH  11  12
ENDBRANCH  10  11
ENDBRANCH   1  10
BRANCH   3  20
ATOM     20  C   UNL d   1      46.294 -14.279  44.583  0.00  0.00     0.108 C 
BRANCH  20  21
ATOM     21  C   UNL d   1      46.285 -13.488  44.828  0.00  0.00     0.135 C 
BRANCH  21  22
ATOM     22  O   UNL d   1      46.344 -12.887  44.275  0.00  0.00    -0.325 OA
ATOM     23  C   UNL d   1      46.151 -12.115  44.484  0.00  0.00     0.182 C 
ENDBRANCH  21  22
ENDBRANCH  20  21
ENDBRANCH   3  20
TORSDOF 7
ENDMDL
