MODEL 1
REMARK VINA RESULT:      62.0      0.000      0.000
REMARK  4 active torsions:
REMARK  status: ('A' for Active; 'I' for Inactive)
REMARK    1  A    between atoms: C_4  and  C_1 
REMARK    2  A    between atoms: N_7  and  C_2 
REMARK       I    between atoms: N_8  and  C_4 
REMARK       I    between atoms: C_11  and  N_7 
REMARK    3  A    between atoms: C_13  and  N_8 
REMARK    4  A    between atoms: C_22  and  C_11 
ROOT
ATOM      1  C   UNL d   1      44.873 -16.205  37.054  0.00  0.00     0.175 A 
ATOM      2  C   UNL d   1      44.692 -15.477  36.859  0.00  0.00     0.114 A 
ATOM      3  O   UNL d   1      45.592 -16.203  37.335  0.00  0.00    -0.301 OA
ATOM      4  C   UNL d   1      45.298 -15.026  37.020  0.00  0.00     0.043 A 
ATOM      5  C   UNL d   1      45.857 -15.475  37.315  0.00  0.00     0.102 A 
ATOM      6  C   UNL d   1      45.416 -14.272  36.937  0.00  0.00     0.004 A 
ATOM      7  C   UNL d   1      46.528 -15.169  37.525  0.00  0.00     0.025 A 
ATOM      8  C   UNL d   1      46.094 -13.962  37.150  0.00  0.00     0.000 A 
ATOM      9  C   UNL d   1      46.646 -14.411  37.443  0.00  0.00     0.002 A 
ENDROOT
BRANCH   1  10
ATOM     10  C   UNL d   1      44.422 -16.817  36.982  0.00  0.00     0.303 C 
ATOM     11  N   UNL d   1      44.536 -17.825  38.083  0.00  0.00    -0.206 NA
ATOM     12  O   UNL d   1      43.924 -16.970  36.416  0.00  0.00    -0.263 OA
BRANCH  11  13
ATOM     13  C   UNL d   1      45.064 -17.693  38.710  0.00  0.00     0.087 A 
ATOM     14  C   UNL d   1      44.949 -18.079  39.437  0.00  0.00     0.046 A 
ATOM     15  C   UNL d   1      45.474 -17.948  40.061  0.00  0.00     0.124 A 
ATOM     16  O   UNL d   1      45.365 -18.332  40.792  0.00  0.00    -0.301 OA
ATOM     17  C   UNL d   1      46.126 -17.427  39.974  0.00  0.00     0.123 A 
ATOM     18  C   UNL d   1      45.890 -18.200  41.417  0.00  0.00     0.149 A 
ATOM     19  C   UNL d   1      46.531 -17.685  41.324  0.00  0.00     0.149 A 
ATOM     20  O   UNL d   1      46.647 -17.293  40.585  0.00  0.00    -0.301 OA
ATOM     21  C   UNL d   1      46.235 -17.043  39.242  0.00  0.00     0.028 A 
ATOM     22  C   UNL d   1      45.700 -17.177  38.605  0.00  0.00     0.021 A 
ENDBRANCH  11  13
ENDBRANCH   1  10
BRANCH   2  23
ATOM     23  N   UNL d   1      44.019 -15.248  36.557  0.00  0.00    -0.206 NA
ATOM     24  C   UNL d   1      43.370 -15.094  37.052  0.00  0.00     0.279 C 
ATOM     25  O   UNL d   1      43.443 -15.186  37.880  0.00  0.00    -0.265 OA
BRANCH  24  26
ATOM     26  C   UNL d   1      42.644 -14.845  36.720  0.00  0.00     0.062 C 
ATOM     27  C   UNL d   1      41.934 -15.160  37.001  0.00  0.00     0.005 C 
ENDBRANCH  24  26
ENDBRANCH   2  23
TORSDOF 4
ENDMDL
