MODEL 1
REMARK VINA RESULT:       2.2      0.000      0.000
REMARK  1 active torsions:
REMARK  status: ('A' for Active; 'I' for Inactive)
REMARK    1  A    between atoms: C_14  and  C_5 
ROOT
ATOM      1  C   UNL d   1     -41.527-121.385 -52.693  0.00  0.00     0.111 A 
ATOM      2  C   UNL d   1     -41.622-122.468 -51.746  0.00  0.00     0.062 A 
ATOM      3  C   UNL d   1     -41.403-120.850 -52.001  0.00  0.00     0.213 A 
ATOM      4  C   UNL d   1     -41.508-121.969 -51.132  0.00  0.00     0.101 A 
ATOM      5  C   UNL d   1     -41.632-122.174 -52.529  0.00  0.00     0.018 A 
ATOM      6  O   UNL d   1     -41.399-121.162 -51.260  0.00  0.00    -0.288 OA
ATOM      7  C   UNL d   1     -41.733-123.284 -51.622  0.00  0.00     0.194 A 
ATOM      8  C   UNL d   1     -41.537-121.095 -53.465  0.00  0.00     0.105 C 
ATOM      9  N   UNL d   1     -41.549-120.824 -54.251  0.00  0.00    -0.191 NA
ATOM     10  C   UNL d   1     -41.499-122.258 -50.360  0.00  0.00     0.002 A 
ATOM     11  C   UNL d   1     -41.603-123.049 -50.196  0.00  0.00     0.042 A 
ATOM     12  C   UNL d   1     -41.728-123.586 -50.878  0.00  0.00     0.019 A 
ATOM     13  O   UNL d   1     -41.856-123.817 -52.284  0.00  0.00    -0.287 OA
ATOM     14  N   UNL d   1     -41.285-120.006 -52.090  0.00  0.00    -0.120 N 
ATOM     15  C   UNL d   1     -41.528-122.909 -49.376  0.00  0.00     0.009 C 
ATOM     16  C   UNL d   1     -41.692-123.795 -49.880  0.00  0.00     0.009 C 
ENDROOT
BRANCH   5  17
ATOM     17  C   UNL d   1     -41.747-122.678 -53.145  0.00  0.00     0.001 A 
ATOM     18  C   UNL d   1     -41.123-123.106 -53.414  0.00  0.00     0.000 A 
ATOM     19  C   UNL d   1     -41.224-123.636 -54.056  0.00  0.00     0.000 A 
ATOM     20  C   UNL d   1     -41.945-123.715 -54.399  0.00  0.00     0.000 A 
ATOM     21  C   UNL d   1     -42.589-123.268 -54.116  0.00  0.00     0.000 A 
ATOM     22  C   UNL d   1     -42.484-122.746 -53.482  0.00  0.00     0.000 A 
ENDBRANCH   5  17
TORSDOF 1
ENDMDL
MODEL 2
REMARK VINA RESULT:       3.1      0.916      3.029
REMARK  1 active torsions:
REMARK  status: ('A' for Active; 'I' for Inactive)
REMARK    1  A    between atoms: C_14  and  C_5 
ROOT
ATOM      1  C   UNL d   1     -41.480-121.334 -52.195  0.00  0.00     0.111 A 
ATOM      2  C   UNL d   1     -41.689-122.433 -53.103  0.00  0.00     0.062 A 
ATOM      3  C   UNL d   1     -41.400-120.818 -52.908  0.00  0.00     0.213 A 
ATOM      4  C   UNL d   1     -41.614-121.952 -53.737  0.00  0.00     0.101 A 
ATOM      5  C   UNL d   1     -41.622-122.123 -52.330  0.00  0.00     0.018 A 
ATOM      6  O   UNL d   1     -41.470-121.146 -53.638  0.00  0.00    -0.288 OA
ATOM      7  C   UNL d   1     -41.835-123.248 -53.198  0.00  0.00     0.194 A 
ATOM      8  C   UNL d   1     -41.413-121.028 -51.432  0.00  0.00     0.105 C 
ATOM      9  N   UNL d   1     -41.350-120.739 -50.655  0.00  0.00    -0.191 NA
ATOM     10  C   UNL d   1     -41.681-122.258 -54.499  0.00  0.00     0.002 A 
ATOM     11  C   UNL d   1     -41.823-123.048 -54.635  0.00  0.00     0.042 A 
ATOM     12  C   UNL d   1     -41.903-123.566 -53.932  0.00  0.00     0.019 A 
ATOM     13  O   UNL d   1     -41.915-123.763 -52.515  0.00  0.00    -0.287 OA
ATOM     14  N   UNL d   1     -41.250-119.976 -52.849  0.00  0.00    -0.120 N 
ATOM     15  C   UNL d   1     -41.815-122.928 -55.461  0.00  0.00     0.009 C 
ATOM     16  C   UNL d   1     -41.960-123.798 -54.924  0.00  0.00     0.009 C 
ENDROOT
BRANCH   5  17
ATOM     17  C   UNL d   1     -41.697-122.609 -51.695  0.00  0.00     0.001 A 
ATOM     18  C   UNL d   1     -42.345-122.532 -51.225  0.00  0.00     0.000 A 
ATOM     19  C   UNL d   1     -42.440-123.031 -50.558  0.00  0.00     0.000 A 
ATOM     20  C   UNL d   1     -41.884-123.585 -50.390  0.00  0.00     0.000 A 
ATOM     21  C   UNL d   1     -41.215-123.661 -50.880  0.00  0.00     0.000 A 
ATOM     22  C   UNL d   1     -41.124-123.166 -51.538  0.00  0.00     0.000 A 
ENDBRANCH   5  17
TORSDOF 1
ENDMDL
