MODEL 1
REMARK VINA RESULT:      -3.5      0.000      0.000
REMARK  4 active torsions:
REMARK  status: ('A' for Active; 'I' for Inactive)
REMARK    1  A    between atoms: N_10  and  C_3 
REMARK    2  A    between atoms: C_11  and  C_4 
REMARK    3  A    between atoms: C_15  and  N_10 
REMARK       I    between atoms: C_12  and  N_13 
REMARK    4  A    between atoms: N_13  and  C_16 
ROOT
ATOM      1  C   UNL d   1      59.551  -1.024  29.595  0.00  0.00     0.167 A 
ATOM      2  N   UNL d   1      58.864  -0.590  29.699  0.00  0.00    -0.195 N 
ATOM      3  C   UNL d   1      58.901   0.190  29.969  0.00  0.00     0.167 A 
ATOM      4  C   UNL d   1      59.344  -1.770  29.325  0.00  0.00     0.057 A 
ATOM      5  N   UNL d   1      58.228  -1.065  29.495  0.00  0.00    -0.161 NA
ATOM      6  N   UNL d   1      60.286  -0.686  29.759  0.00  0.00    -0.227 NA
ATOM      7  C   UNL d   1      59.638   0.530  30.134  0.00  0.00     0.058 A 
ATOM      8  C   UNL d   1      58.521  -1.789  29.265  0.00  0.00     0.124 A 
ATOM      9  C   UNL d   1      60.325   0.096  30.030  0.00  0.00     0.086 A 
ATOM     10  C   UNL d   1      61.052   0.453  30.200  0.00  0.00     0.021 C 
ENDROOT
BRANCH   3  11
ATOM     11  N   UNL d   1      58.213   0.624  30.073  0.00  0.00    -0.227 NA
BRANCH  11  12
ATOM     12  C   UNL d   1      57.837   0.639  30.808  0.00  0.00     0.083 A 
ATOM     13  C   UNL d   1      58.293   0.653  31.496  0.00  0.00     0.021 A 
ATOM     14  C   UNL d   1      57.917   0.667  32.239  0.00  0.00     0.021 A 
ATOM     15  C   UNL d   1      57.099   0.667  32.285  0.00  0.00     0.085 A 
ATOM     16  C   UNL d   1      56.643   0.653  31.588  0.00  0.00     0.021 A 
ATOM     17  C   UNL d   1      57.015   0.638  30.854  0.00  0.00     0.021 A 
BRANCH  15  18
ATOM     18  N   UNL d   1      56.724   0.682  33.033  0.00  0.00    -0.208 NA
ATOM     19  C   UNL d   1      56.290   0.033  33.299  0.00  0.00     0.279 C 
ATOM     20  O   UNL d   1      55.917   0.051  34.046  0.00  0.00    -0.265 OA
ATOM     21  C   UNL d   1      56.226  -0.634  32.825  0.00  0.00     0.068 C 
ENDBRANCH  15  18
ENDBRANCH  11  12
ENDBRANCH   3  11
BRANCH   4  22
ATOM     22  C   UNL d   1      59.920  -2.342  29.167  0.00  0.00     0.004 A 
ATOM     23  C   UNL d   1      59.899  -3.056  29.578  0.00  0.00     0.000 A 
ATOM     24  C   UNL d   1      60.470  -3.632  29.426  0.00  0.00     0.000 A 
ATOM     25  C   UNL d   1      61.065  -3.491  28.859  0.00  0.00     0.000 A 
ATOM     26  C   UNL d   1      61.077  -2.777  28.455  0.00  0.00     0.000 A 
ATOM     27  C   UNL d   1      60.504  -2.203  28.610  0.00  0.00     0.000 A 
ENDBRANCH   4  22
TORSDOF 4
ENDMDL
MODEL 2
REMARK VINA RESULT:      -2.0      1.941      5.565
REMARK  4 active torsions:
REMARK  status: ('A' for Active; 'I' for Inactive)
REMARK    1  A    between atoms: N_10  and  C_3 
REMARK    2  A    between atoms: C_11  and  C_4 
REMARK    3  A    between atoms: C_15  and  N_10 
REMARK       I    between atoms: C_12  and  N_13 
REMARK    4  A    between atoms: N_13  and  C_16 
ROOT
ATOM      1  C   UNL d   1      56.419   0.676  33.288  0.00  0.00     0.167 A 
ATOM      2  N   UNL d   1      56.353   0.674  32.471  0.00  0.00    -0.195 N 
ATOM      3  C   UNL d   1      57.031   0.675  31.999  0.00  0.00     0.167 A 
ATOM      4  C   UNL d   1      55.663   0.674  33.605  0.00  0.00     0.057 A 
ATOM      5  N   UNL d   1      55.556   0.672  32.278  0.00  0.00    -0.161 NA
ATOM      6  N   UNL d   1      57.163   0.678  33.647  0.00  0.00    -0.227 NA
ATOM      7  C   UNL d   1      57.778   0.678  32.357  0.00  0.00     0.058 A 
ATOM      8  C   UNL d   1      55.131   0.672  32.974  0.00  0.00     0.124 A 
ATOM      9  C   UNL d   1      57.843   0.679  33.174  0.00  0.00     0.086 A 
ATOM     10  C   UNL d   1      58.599   0.682  33.513  0.00  0.00     0.021 C 
ENDROOT
BRANCH   3  11
ATOM     11  N   UNL d   1      56.965   0.674  31.181  0.00  0.00    -0.227 NA
BRANCH  11  12
ATOM     12  C   UNL d   1      57.471   0.208  30.724  0.00  0.00     0.083 A 
ATOM     13  C   UNL d   1      57.827   0.533  30.056  0.00  0.00     0.021 A 
ATOM     14  C   UNL d   1      58.338   0.067  29.592  0.00  0.00     0.021 A 
ATOM     15  C   UNL d   1      58.485  -0.712  29.802  0.00  0.00     0.085 A 
ATOM     16  C   UNL d   1      58.123  -1.036  30.478  0.00  0.00     0.021 A 
ATOM     17  C   UNL d   1      57.619  -0.575  30.935  0.00  0.00     0.021 A 
BRANCH  15  18
ATOM     18  N   UNL d   1      58.999  -1.179  29.335  0.00  0.00    -0.208 NA
ATOM     19  C   UNL d   1      59.799  -0.988  29.269  0.00  0.00     0.279 C 
ATOM     20  O   UNL d   1      60.309  -1.456  28.802  0.00  0.00    -0.265 OA
ATOM     21  C   UNL d   1      60.093  -0.334  29.667  0.00  0.00     0.068 C 
ENDBRANCH  15  18
ENDBRANCH  11  12
ENDBRANCH   3  11
BRANCH   4  22
ATOM     22  C   UNL d   1      55.544   0.675  34.423  0.00  0.00     0.004 A 
ATOM     23  C   UNL d   1      56.200   0.670  34.924  0.00  0.00     0.000 A 
ATOM     24  C   UNL d   1      56.090   0.671  35.741  0.00  0.00     0.000 A 
ATOM     25  C   UNL d   1      55.320   0.677  36.059  0.00  0.00     0.000 A 
ATOM     26  C   UNL d   1      54.673   0.682  35.553  0.00  0.00     0.000 A 
ATOM     27  C   UNL d   1      54.787   0.681  34.736  0.00  0.00     0.000 A 
ENDBRANCH   4  22
TORSDOF 4
ENDMDL
MODEL 3
REMARK VINA RESULT:      -0.9      1.256      2.390
REMARK  4 active torsions:
REMARK  status: ('A' for Active; 'I' for Inactive)
REMARK    1  A    between atoms: N_10  and  C_3 
REMARK    2  A    between atoms: C_11  and  C_4 
REMARK    3  A    between atoms: C_15  and  N_10 
REMARK       I    between atoms: C_12  and  N_13 
REMARK    4  A    between atoms: N_13  and  C_16 
ROOT
ATOM      1  C   UNL d   1      59.776  -2.953  29.095  0.00  0.00     0.167 A 
ATOM      2  N   UNL d   1      59.767  -2.134  29.118  0.00  0.00    -0.195 N 
ATOM      3  C   UNL d   1      59.052  -1.723  29.064  0.00  0.00     0.167 A 
ATOM      4  C   UNL d   1      60.555  -3.202  29.160  0.00  0.00     0.057 A 
ATOM      5  N   UNL d   1      60.539  -1.871  29.198  0.00  0.00    -0.161 NA
ATOM      6  N   UNL d   1      59.071  -3.376  29.017  0.00  0.00    -0.227 NA
ATOM      7  C   UNL d   1      58.344  -2.147  28.985  0.00  0.00     0.058 A 
ATOM      8  C   UNL d   1      61.024  -2.526  29.224  0.00  0.00     0.124 A 
ATOM      9  C   UNL d   1      58.353  -2.965  28.963  0.00  0.00     0.086 A 
ATOM     10  C   UNL d   1      57.635  -3.370  28.884  0.00  0.00     0.021 C 
ENDROOT
BRANCH   3  11
ATOM     11  N   UNL d   1      59.043  -0.904  29.086  0.00  0.00    -0.227 NA
BRANCH  11  12
ATOM     12  C   UNL d   1      58.605  -0.509  29.664  0.00  0.00     0.083 A 
ATOM     13  C   UNL d   1      57.819  -0.312  29.513  0.00  0.00     0.021 A 
ATOM     14  C   UNL d   1      57.374   0.087  30.093  0.00  0.00     0.021 A 
ATOM     15  C   UNL d   1      57.718   0.281  30.811  0.00  0.00     0.085 A 
ATOM     16  C   UNL d   1      58.512   0.080  30.960  0.00  0.00     0.021 A 
ATOM     17  C   UNL d   1      58.951  -0.313  30.386  0.00  0.00     0.021 A 
BRANCH  15  18
ATOM     18  N   UNL d   1      57.269   0.682  31.393  0.00  0.00    -0.208 NA
ATOM     19  C   UNL d   1      56.773   0.265  31.903  0.00  0.00     0.279 C 
ATOM     20  O   UNL d   1      56.326   0.667  32.482  0.00  0.00    -0.265 OA
ATOM     21  C   UNL d   1      56.719  -0.551  31.838  0.00  0.00     0.068 C 
ENDBRANCH  15  18
ENDBRANCH  11  12
ENDBRANCH   3  11
BRANCH   4  22
ATOM     22  C   UNL d   1      60.747  -4.006  29.155  0.00  0.00     0.004 A 
ATOM     23  C   UNL d   1      60.940  -4.376  29.866  0.00  0.00     0.000 A 
ATOM     24  C   UNL d   1      61.133  -5.178  29.870  0.00  0.00     0.000 A 
ATOM     25  C   UNL d   1      61.133  -5.611  29.158  0.00  0.00     0.000 A 
ATOM     26  C   UNL d   1      60.940  -5.233  28.455  0.00  0.00     0.000 A 
ATOM     27  C   UNL d   1      60.747  -4.431  28.456  0.00  0.00     0.000 A 
ENDBRANCH   4  22
TORSDOF 4
ENDMDL
