MODEL 1
REMARK VINA RESULT:      92.1      0.000      0.000
REMARK  7 active torsions:
REMARK  status: ('A' for Active; 'I' for Inactive)
REMARK    1  A    between atoms: C_3  and  C_1 
REMARK    2  A    between atoms: C_9  and  N_2 
REMARK    3  A    between atoms: C_6  and  C_3 
REMARK    4  A    between atoms: C_8  and  C_3 
REMARK       I    between atoms: N_11  and  C_6 
REMARK    5  A    between atoms: C_26  and  C_7 
REMARK    6  A    between atoms: C_21  and  N_11 
REMARK    7  A    between atoms: C_12  and  C_21 
ROOT
ATOM      1  C   UNL d   1      60.717  48.450  50.736  0.00  0.00     0.103 A 
ATOM      2  N   UNL d   1      60.853  47.643  50.818  0.00  0.00    -0.269 N 
ATOM      3  S   UNL d   1      61.293  48.756  50.230  0.00  0.00    -0.064 SA
ATOM      4  C   UNL d   1      61.514  47.442  50.366  0.00  0.00     0.271 A 
ATOM      5  C   UNL d   1      61.784  48.134  50.003  0.00  0.00     0.087 A 
ATOM      6  O   UNL d   1      61.841  46.692  50.292  0.00  0.00    -0.266 OA
ENDROOT
BRANCH   1   7
ATOM      7  C   UNL d   1      60.109  48.883  51.095  0.00  0.00     0.101 C 
BRANCH   7   8
ATOM      8  C   UNL d   1      59.511  49.223  50.635  0.00  0.00     0.283 C 
ATOM      9  N   UNL d   1      58.751  49.295  50.933  0.00  0.00    -0.204 NA
ATOM     10  O   UNL d   1      59.686  49.491  49.871  0.00  0.00    -0.265 OA
BRANCH   9  11
ATOM     11  C   UNL d   1      58.155  49.634  50.473  0.00  0.00     0.127 C 
BRANCH  11  12
ATOM     12  C   UNL d   1      57.363  49.454  50.611  0.00  0.00     0.119 A 
ATOM     13  O   UNL d   1      56.972  49.471  51.334  0.00  0.00    -0.304 OA
ATOM     14  C   UNL d   1      56.187  49.249  51.210  0.00  0.00     0.123 A 
ATOM     15  C   UNL d   1      56.092  49.095  50.408  0.00  0.00     0.029 A 
ATOM     16  C   UNL d   1      56.815  49.220  50.034  0.00  0.00     0.028 A 
ENDBRANCH  11  12
ENDBRANCH   9  11
ENDBRANCH   7   8
BRANCH   7  17
ATOM     17  C   UNL d   1      60.099  48.977  51.921  0.00  0.00     0.129 C 
ATOM     18  N   UNL d   1      60.313  49.701  52.248  0.00  0.00    -0.146 N 
ENDBRANCH   7  17
ENDBRANCH   1   7
BRANCH   2  19
ATOM     19  C   UNL d   1      60.767  46.858  51.064  0.00  0.00     0.068 A 
ATOM     20  C   UNL d   1      60.114  46.631  51.498  0.00  0.00     0.020 A 
ATOM     21  C   UNL d   1      60.030  45.852  51.741  0.00  0.00     0.031 A 
ATOM     22  C   UNL d   1      60.611  45.295  51.543  0.00  0.00     0.140 A 
ATOM     23  C   UNL d   1      61.269  45.528  51.104  0.00  0.00     0.031 A 
ATOM     24  F   UNL d   1      60.533  44.512  51.783  0.00  0.00    -0.204 F 
ATOM     25  C   UNL d   1      61.349  46.307  50.864  0.00  0.00     0.020 A 
ENDBRANCH   2  19
BRANCH   5  26
ATOM     26  C   UNL d   1      62.437  48.185  49.499  0.00  0.00     0.011 C 
ATOM     27  C   UNL d   1      62.640  48.903  49.160  0.00  0.00     0.001 C 
ENDBRANCH   5  26
TORSDOF 7
ENDMDL
MODEL 2
REMARK VINA RESULT:      93.7      1.332      2.194
REMARK  7 active torsions:
REMARK  status: ('A' for Active; 'I' for Inactive)
REMARK    1  A    between atoms: C_3  and  C_1 
REMARK    2  A    between atoms: C_9  and  N_2 
REMARK    3  A    between atoms: C_6  and  C_3 
REMARK    4  A    between atoms: C_8  and  C_3 
REMARK       I    between atoms: N_11  and  C_6 
REMARK    5  A    between atoms: C_26  and  C_7 
REMARK    6  A    between atoms: C_21  and  N_11 
REMARK    7  A    between atoms: C_12  and  C_21 
ROOT
ATOM      1  C   UNL d   1      59.998  47.905  50.962  0.00  0.00     0.103 A 
ATOM      2  N   UNL d   1      60.509  47.345  50.642  0.00  0.00    -0.269 N 
ATOM      3  S   UNL d   1      59.375  47.504  51.326  0.00  0.00    -0.064 SA
ATOM      4  C   UNL d   1      60.207  46.594  50.805  0.00  0.00     0.271 A 
ATOM      5  C   UNL d   1      59.505  46.696  51.229  0.00  0.00     0.087 A 
ATOM      6  O   UNL d   1      60.545  45.877  50.584  0.00  0.00    -0.266 OA
ENDROOT
BRANCH   1   7
ATOM      7  C   UNL d   1      60.090  48.727  50.927  0.00  0.00     0.101 C 
BRANCH   7   8
ATOM      8  C   UNL d   1      59.615  49.179  50.423  0.00  0.00     0.283 C 
ATOM      9  N   UNL d   1      58.813  49.255  50.571  0.00  0.00    -0.204 NA
ATOM     10  O   UNL d   1      59.955  49.553  49.767  0.00  0.00    -0.265 OA
BRANCH   9  11
ATOM     11  C   UNL d   1      58.338  49.707  50.066  0.00  0.00     0.127 C 
BRANCH  11  12
ATOM     12  C   UNL d   1      57.518  49.646  50.095  0.00  0.00     0.119 A 
ATOM     13  O   UNL d   1      57.002  49.622  49.455  0.00  0.00    -0.304 OA
ATOM     14  C   UNL d   1      56.231  49.560  49.744  0.00  0.00     0.123 A 
ATOM     15  C   UNL d   1      56.271  49.546  50.566  0.00  0.00     0.029 A 
ATOM     16  C   UNL d   1      57.062  49.599  50.786  0.00  0.00     0.028 A 
ENDBRANCH  11  12
ENDBRANCH   9  11
ENDBRANCH   7   8
BRANCH   7  17
ATOM     17  C   UNL d   1      60.662  49.101  51.400  0.00  0.00     0.129 C 
ATOM     18  N   UNL d   1      61.117  49.708  51.080  0.00  0.00    -0.146 N 
ENDBRANCH   7  17
ENDBRANCH   1   7
BRANCH   2  19
ATOM     19  C   UNL d   1      61.154  47.013  50.246  0.00  0.00     0.068 A 
ATOM     20  C   UNL d   1      61.890  47.365  50.290  0.00  0.00     0.020 A 
ATOM     21  C   UNL d   1      62.530  47.036  49.897  0.00  0.00     0.031 A 
ATOM     22  C   UNL d   1      62.428  46.342  49.455  0.00  0.00     0.140 A 
ATOM     23  C   UNL d   1      61.684  45.989  49.413  0.00  0.00     0.031 A 
ATOM     24  F   UNL d   1      63.065  46.005  49.058  0.00  0.00    -0.204 F 
ATOM     25  C   UNL d   1      61.047  46.322  49.807  0.00  0.00     0.020 A 
ENDBRANCH   2  19
BRANCH   5  26
ATOM     26  C   UNL d   1      59.020  46.086  51.504  0.00  0.00     0.011 C 
ATOM     27  C   UNL d   1      58.250  46.017  51.233  0.00  0.00     0.001 C 
ENDBRANCH   5  26
TORSDOF 7
ENDMDL
