MODEL 1
REMARK VINA RESULT:      -3.0      0.000      0.000
REMARK  3 active torsions:
REMARK  status: ('A' for Active; 'I' for Inactive)
REMARK    1  A    between atoms: N_5  and  C_1 
REMARK    2  A    between atoms: C_8  and  C_2 
REMARK       I    between atoms: C_7  and  N_5 
REMARK       I    between atoms: N_9  and  C_7 
REMARK    3  A    between atoms: C_13  and  N_9 
ROOT
ATOM      1  C   UNL d   1      33.070  21.462 -22.127  0.00  0.00     0.120 A 
ATOM      2  C   UNL d   1      32.854  21.983 -21.524  0.00  0.00     0.084 A 
ATOM      3  S   UNL d   1      33.240  21.928 -22.771  0.00  0.00    -0.068 SA
ATOM      4  C   UNL d   1      32.899  22.726 -21.813  0.00  0.00     0.013 A 
ATOM      5  C   UNL d   1      33.132  22.698 -22.565  0.00  0.00     0.031 A 
ATOM      6  C   UNL d   1      32.726  23.437 -21.386  0.00  0.00     0.001 C 
ATOM      7  C   UNL d   1      33.240  23.372 -23.049  0.00  0.00     0.007 C 
ENDROOT
BRANCH   1   8
ATOM      8  N   UNL d   1      33.123  20.070 -22.034  0.00  0.00    -0.184 NA
ATOM      9  C   UNL d   1      32.934  19.603 -22.668  0.00  0.00     0.369 C 
ATOM     10  N   UNL d   1      32.961  18.775 -22.628  0.00  0.00    -0.191 NA
ATOM     11  O   UNL d   1      32.708  19.964 -23.375  0.00  0.00    -0.242 OA
BRANCH  10  12
ATOM     12  C   UNL d   1      32.769  18.320 -23.272  0.00  0.00     0.086 A 
ATOM     13  C   UNL d   1      32.080  17.856 -23.265  0.00  0.00     0.019 A 
ATOM     14  C   UNL d   1      31.879  17.401 -23.898  0.00  0.00     0.002 A 
ATOM     15  C   UNL d   1      32.362  17.392 -24.569  0.00  0.00     0.000 A 
ATOM     16  C   UNL d   1      33.058  17.855 -24.588  0.00  0.00     0.002 A 
ATOM     17  C   UNL d   1      33.241  18.313 -23.925  0.00  0.00     0.019 A 
ENDBRANCH  10  12
ENDBRANCH   1   8
BRANCH   2  18
ATOM     18  C   UNL d   1      32.631  21.764 -20.754  0.00  0.00     0.299 C 
ATOM     19  O   UNL d   1      31.846  21.547 -20.589  0.00  0.00    -0.264 OA
ATOM     20  N   UNL d   1      33.187  21.757 -20.135  0.00  0.00    -0.102 N 
ENDBRANCH   2  18
TORSDOF 3
ENDMDL
MODEL 2
REMARK VINA RESULT:      -2.5      2.292      5.308
REMARK  3 active torsions:
REMARK  status: ('A' for Active; 'I' for Inactive)
REMARK    1  A    between atoms: N_5  and  C_1 
REMARK    2  A    between atoms: C_8  and  C_2 
REMARK       I    between atoms: C_7  and  N_5 
REMARK       I    between atoms: N_9  and  C_7 
REMARK    3  A    between atoms: C_13  and  N_9 
ROOT
ATOM      1  C   UNL d   1      31.250  17.240 -24.278  0.00  0.00     0.120 A 
ATOM      2  C   UNL d   1      31.071  16.440 -24.373  0.00  0.00     0.084 A 
ATOM      3  S   UNL d   1      30.577  17.644 -24.491  0.00  0.00    -0.068 SA
ATOM      4  C   UNL d   1      30.317  16.386 -24.633  0.00  0.00     0.013 A 
ATOM      5  C   UNL d   1      30.016  17.110 -24.705  0.00  0.00     0.031 A 
ATOM      6  C   UNL d   1      29.901  15.669 -24.806  0.00  0.00     0.001 C 
ATOM      7  C   UNL d   1      29.236  17.270 -24.964  0.00  0.00     0.007 C 
ENDROOT
BRANCH   1   8
ATOM      8  N   UNL d   1      32.468  17.766 -23.840  0.00  0.00    -0.184 NA
ATOM      9  C   UNL d   1      32.494  18.449 -23.406  0.00  0.00     0.369 C 
ATOM     10  N   UNL d   1      33.209  18.774 -23.139  0.00  0.00    -0.191 NA
ATOM     11  O   UNL d   1      31.786  18.833 -23.224  0.00  0.00    -0.242 OA
BRANCH  10  12
ATOM     12  C   UNL d   1      33.219  19.459 -22.704  0.00  0.00     0.086 A 
ATOM     13  C   UNL d   1      33.230  19.427 -21.875  0.00  0.00     0.019 A 
ATOM     14  C   UNL d   1      33.240  20.100 -21.433  0.00  0.00     0.002 A 
ATOM     15  C   UNL d   1      33.239  20.838 -21.807  0.00  0.00     0.000 A 
ATOM     16  C   UNL d   1      33.228  20.882 -22.642  0.00  0.00     0.002 A 
ATOM     17  C   UNL d   1      33.218  20.177 -23.070  0.00  0.00     0.019 A 
ENDBRANCH  10  12
ENDBRANCH   1   8
BRANCH   2  18
ATOM     18  C   UNL d   1      31.590  15.808 -24.224  0.00  0.00     0.299 C 
ATOM     19  O   UNL d   1      31.639  15.475 -23.464  0.00  0.00    -0.264 OA
ATOM     20  N   UNL d   1      32.069  15.497 -24.829  0.00  0.00    -0.102 N 
ENDBRANCH   2  18
TORSDOF 3
ENDMDL
MODEL 3
REMARK VINA RESULT:      -2.1      2.521      5.451
REMARK  3 active torsions:
REMARK  status: ('A' for Active; 'I' for Inactive)
REMARK    1  A    between atoms: N_5  and  C_1 
REMARK    2  A    between atoms: C_8  and  C_2 
REMARK       I    between atoms: C_7  and  N_5 
REMARK       I    between atoms: N_9  and  C_7 
REMARK    3  A    between atoms: C_13  and  N_9 
ROOT
ATOM      1  C   UNL d   1      32.711  22.217 -21.247  0.00  0.00     0.120 A 
ATOM      2  C   UNL d   1      32.689  22.300 -22.068  0.00  0.00     0.084 A 
ATOM      3  S   UNL d   1      32.794  21.420 -21.108  0.00  0.00    -0.068 SA
ATOM      4  C   UNL d   1      32.757  21.572 -22.391  0.00  0.00     0.013 A 
ATOM      5  C   UNL d   1      32.821  21.038 -21.814  0.00  0.00     0.031 A 
ATOM      6  C   UNL d   1      32.760  21.393 -23.218  0.00  0.00     0.001 C 
ATOM      7  C   UNL d   1      32.901  20.215 -21.943  0.00  0.00     0.007 C 
ENDROOT
BRANCH   1   8
ATOM      8  N   UNL d   1      32.623  23.250 -20.311  0.00  0.00    -0.184 NA
ATOM      9  C   UNL d   1      32.619  23.093 -19.517  0.00  0.00     0.369 C 
ATOM     10  N   UNL d   1      32.568  23.696 -18.950  0.00  0.00    -0.191 NA
ATOM     11  O   UNL d   1      32.668  22.308 -19.266  0.00  0.00    -0.242 OA
BRANCH  10  12
ATOM     12  C   UNL d   1      32.565  23.523 -18.157  0.00  0.00     0.086 A 
ATOM     13  C   UNL d   1      31.876  23.636 -17.707  0.00  0.00     0.019 A 
ATOM     14  C   UNL d   1      31.861  23.468 -16.920  0.00  0.00     0.002 A 
ATOM     15  C   UNL d   1      32.540  23.177 -16.548  0.00  0.00     0.000 A 
ATOM     16  C   UNL d   1      33.240  23.058 -16.991  0.00  0.00     0.002 A 
ATOM     17  C   UNL d   1      33.227  23.239 -17.796  0.00  0.00     0.019 A 
ENDBRANCH  10  12
ENDBRANCH   1   8
BRANCH   2  18
ATOM     18  C   UNL d   1      32.609  23.018 -22.479  0.00  0.00     0.299 C 
ATOM     19  O   UNL d   1      31.898  23.446 -22.445  0.00  0.00    -0.264 OA
ATOM     20  N   UNL d   1      33.239  23.322 -22.931  0.00  0.00    -0.102 N 
ENDBRANCH   2  18
TORSDOF 3
ENDMDL
MODEL 4
REMARK VINA RESULT:      -2.1      1.417      4.787
REMARK  3 active torsions:
REMARK  status: ('A' for Active; 'I' for Inactive)
REMARK    1  A    between atoms: N_5  and  C_1 
REMARK    2  A    between atoms: C_8  and  C_2 
REMARK       I    between atoms: C_7  and  N_5 
REMARK       I    between atoms: N_9  and  C_7 
REMARK    3  A    between atoms: C_13  and  N_9 
ROOT
ATOM      1  C   UNL d   1      33.070  18.880 -23.216  0.00  0.00     0.120 A 
ATOM      2  C   UNL d   1      32.771  18.492 -23.879  0.00  0.00     0.084 A 
ATOM      3  S   UNL d   1      33.239  18.297 -22.675  0.00  0.00    -0.068 SA
ATOM      4  C   UNL d   1      32.768  17.708 -23.725  0.00  0.00     0.013 A 
ATOM      5  C   UNL d   1      33.050  17.586 -22.999  0.00  0.00     0.031 A 
ATOM      6  C   UNL d   1      32.506  17.098 -24.251  0.00  0.00     0.001 C 
ATOM      7  C   UNL d   1      33.128  16.831 -22.646  0.00  0.00     0.007 C 
ENDROOT
BRANCH   1   8
ATOM      8  N   UNL d   1      33.241  20.260 -23.075  0.00  0.00    -0.184 NA
ATOM      9  C   UNL d   1      33.017  20.640 -22.396  0.00  0.00     0.369 C 
ATOM     10  N   UNL d   1      33.112  21.458 -22.298  0.00  0.00    -0.191 NA
ATOM     11  O   UNL d   1      32.685  20.197 -21.783  0.00  0.00    -0.242 OA
BRANCH  10  12
ATOM     12  C   UNL d   1      32.884  21.824 -21.611  0.00  0.00     0.086 A 
ATOM     13  C   UNL d   1      32.279  22.393 -21.623  0.00  0.00     0.019 A 
ATOM     14  C   UNL d   1      32.043  22.763 -20.948  0.00  0.00     0.002 A 
ATOM     15  C   UNL d   1      32.407  22.578 -20.228  0.00  0.00     0.000 A 
ATOM     16  C   UNL d   1      33.017  22.007 -20.204  0.00  0.00     0.002 A 
ATOM     17  C   UNL d   1      33.239  21.643 -20.911  0.00  0.00     0.019 A 
ENDBRANCH  10  12
ENDBRANCH   1   8
BRANCH   2  18
ATOM     18  C   UNL d   1      32.520  18.859 -24.581  0.00  0.00     0.299 C 
ATOM     19  O   UNL d   1      33.065  19.249 -25.071  0.00  0.00    -0.264 OA
ATOM     20  N   UNL d   1      31.719  18.842 -24.807  0.00  0.00    -0.102 N 
ENDBRANCH   2  18
TORSDOF 3
ENDMDL
MODEL 5
REMARK VINA RESULT:      -0.6      1.415      4.564
REMARK  3 active torsions:
REMARK  status: ('A' for Active; 'I' for Inactive)
REMARK    1  A    between atoms: N_5  and  C_1 
REMARK    2  A    between atoms: C_8  and  C_2 
REMARK       I    between atoms: C_7  and  N_5 
REMARK       I    between atoms: N_9  and  C_7 
REMARK    3  A    between atoms: C_13  and  N_9 
ROOT
ATOM      1  C   UNL d   1      33.092  18.940 -22.976  0.00  0.00     0.120 A 
ATOM      2  C   UNL d   1      32.857  18.193 -23.236  0.00  0.00     0.084 A 
ATOM      3  S   UNL d   1      33.241  19.372 -23.648  0.00  0.00    -0.068 SA
ATOM      4  C   UNL d   1      32.869  18.196 -24.035  0.00  0.00     0.013 A 
ATOM      5  C   UNL d   1      33.101  18.906 -24.288  0.00  0.00     0.031 A 
ATOM      6  C   UNL d   1      32.668  17.546 -24.539  0.00  0.00     0.001 C 
ATOM      7  C   UNL d   1      33.180  19.114 -25.094  0.00  0.00     0.007 C 
ENDROOT
BRANCH   1   8
ATOM      8  N   UNL d   1      33.204  19.351 -21.645  0.00  0.00    -0.184 NA
ATOM      9  C   UNL d   1      33.019  20.109 -21.427  0.00  0.00     0.369 C 
ATOM     10  N   UNL d   1      33.081  20.368 -20.642  0.00  0.00    -0.191 NA
ATOM     11  O   UNL d   1      32.762  20.639 -22.006  0.00  0.00    -0.242 OA
BRANCH  10  12
ATOM     12  C   UNL d   1      32.892  21.130 -20.439  0.00  0.00     0.086 A 
ATOM     13  C   UNL d   1      32.337  21.557 -20.886  0.00  0.00     0.019 A 
ATOM     14  C   UNL d   1      32.141  22.314 -20.694  0.00  0.00     0.002 A 
ATOM     15  C   UNL d   1      32.496  22.678 -20.041  0.00  0.00     0.000 A 
ATOM     16  C   UNL d   1      33.056  22.258 -19.583  0.00  0.00     0.002 A 
ATOM     17  C   UNL d   1      33.238  21.484 -19.802  0.00  0.00     0.019 A 
ENDBRANCH  10  12
ENDBRANCH   1   8
BRANCH   2  18
ATOM     18  C   UNL d   1      32.645  17.556 -22.747  0.00  0.00     0.299 C 
ATOM     19  O   UNL d   1      33.184  17.254 -22.192  0.00  0.00    -0.264 OA
ATOM     20  N   UNL d   1      31.891  17.208 -22.803  0.00  0.00    -0.102 N 
ENDBRANCH   2  18
TORSDOF 3
ENDMDL
MODEL 6
REMARK VINA RESULT:      -0.2      1.483      2.130
REMARK  3 active torsions:
REMARK  status: ('A' for Active; 'I' for Inactive)
REMARK    1  A    between atoms: N_5  and  C_1 
REMARK    2  A    between atoms: C_8  and  C_2 
REMARK       I    between atoms: C_7  and  N_5 
REMARK       I    between atoms: N_9  and  C_7 
REMARK    3  A    between atoms: C_13  and  N_9 
ROOT
ATOM      1  C   UNL d   1      33.188  20.053 -22.250  0.00  0.00     0.120 A 
ATOM      2  C   UNL d   1      33.158  20.875 -22.189  0.00  0.00     0.084 A 
ATOM      3  S   UNL d   1      33.222  19.776 -21.486  0.00  0.00    -0.068 SA
ATOM      4  C   UNL d   1      33.175  21.066 -21.413  0.00  0.00     0.013 A 
ATOM      5  C   UNL d   1      33.214  20.405 -20.985  0.00  0.00     0.031 A 
ATOM      6  C   UNL d   1      33.156  21.849 -21.093  0.00  0.00     0.001 C 
ATOM      7  C   UNL d   1      33.241  20.388 -20.149  0.00  0.00     0.007 C 
ENDROOT
BRANCH   1   8
ATOM      8  N   UNL d   1      33.178  19.313 -23.434  0.00  0.00    -0.184 NA
ATOM      9  C   UNL d   1      32.718  18.650 -23.507  0.00  0.00     0.369 C 
ATOM     10  N   UNL d   1      32.702  18.201 -24.204  0.00  0.00    -0.191 NA
ATOM     11  O   UNL d   1      32.251  18.417 -22.868  0.00  0.00    -0.242 OA
BRANCH  10  12
ATOM     12  C   UNL d   1      32.236  17.539 -24.262  0.00  0.00     0.086 A 
ATOM     13  C   UNL d   1      32.528  16.800 -24.024  0.00  0.00     0.019 A 
ATOM     14  C   UNL d   1      32.075  16.136 -24.077  0.00  0.00     0.002 A 
ATOM     15  C   UNL d   1      31.304  16.187 -24.373  0.00  0.00     0.000 A 
ATOM     16  C   UNL d   1      30.999  16.927 -24.617  0.00  0.00     0.002 A 
ATOM     17  C   UNL d   1      31.485  17.590 -24.551  0.00  0.00     0.019 A 
ENDBRANCH  10  12
ENDBRANCH   1   8
BRANCH   2  18
ATOM     18  C   UNL d   1      33.118  21.405 -22.828  0.00  0.00     0.299 C 
ATOM     19  O   UNL d   1      33.240  21.138 -23.605  0.00  0.00    -0.264 OA
ATOM     20  N   UNL d   1      32.955  22.212 -22.703  0.00  0.00    -0.102 N 
ENDBRANCH   2  18
TORSDOF 3
ENDMDL
