MODEL 1
REMARK VINA RESULT:      -7.6      0.000      0.000
REMARK  2 active torsions:
REMARK  status: ('A' for Active; 'I' for Inactive)
REMARK    1  A    between atoms: C_4  and  C_2 
REMARK    2  A    between atoms: C_8  and  C_3 
ROOT
ATOM      1  S   UNL d   1     -47.192  13.004  22.410  0.00  0.00    -0.081 SA
ATOM      2  C   UNL d   1     -47.843  13.508  22.471  0.00  0.00     0.031 A 
ATOM      3  C   UNL d   1     -46.520  13.412  22.701  0.00  0.00     0.094 A 
ATOM      4  C   UNL d   1     -47.581  14.233  22.799  0.00  0.00     0.007 A 
ATOM      5  C   UNL d   1     -46.764  14.165  22.938  0.00  0.00     0.013 A 
ENDROOT
BRANCH   2   6
ATOM      6  C   UNL d   1     -48.612  13.336  22.250  0.00  0.00     0.025 A 
ATOM      7  C   UNL d   1     -49.079  12.841  22.718  0.00  0.00     0.005 A 
ATOM      8  C   UNL d   1     -49.848  12.668  22.498  0.00  0.00     0.038 A 
ATOM      9  C   UNL d   1     -50.310  12.177  22.963  0.00  0.00     0.003 C 
ATOM     10  C   UNL d   1     -50.158  12.992  21.802  0.00  0.00     0.184 A 
ATOM     11  N   UNL d   1     -49.688  13.490  21.332  0.00  0.00    -0.224 NA
ATOM     12  N   UNL d   1     -50.931  12.820  21.578  0.00  0.00    -0.127 N 
ATOM     13  C   UNL d   1     -48.918  13.654  21.566  0.00  0.00     0.101 A 
ENDBRANCH   2   6
BRANCH   3  14
ATOM     14  C   UNL d   1     -45.757  13.105  22.738  0.00  0.00     0.217 C 
ATOM     15  O   UNL d   1     -45.169  13.417  22.239  0.00  0.00    -0.643 OA
ATOM     16  O   UNL d   1     -45.570  12.506  23.249  0.00  0.00    -0.643 OA
ENDBRANCH   3  14
TORSDOF 2
ENDMDL
MODEL 2
REMARK VINA RESULT:      -7.5      2.852      3.384
REMARK  2 active torsions:
REMARK  status: ('A' for Active; 'I' for Inactive)
REMARK    1  A    between atoms: C_4  and  C_2 
REMARK    2  A    between atoms: C_8  and  C_3 
ROOT
ATOM      1  S   UNL d   1     -48.759  14.346  23.187  0.00  0.00    -0.081 SA
ATOM      2  C   UNL d   1     -48.010  14.146  22.903  0.00  0.00     0.031 A 
ATOM      3  C   UNL d   1     -48.983  15.074  22.838  0.00  0.00     0.094 A 
ATOM      4  C   UNL d   1     -47.762  14.749  22.376  0.00  0.00     0.007 A 
ATOM      5  C   UNL d   1     -48.368  15.317  22.341  0.00  0.00     0.013 A 
ENDROOT
BRANCH   2   6
ATOM      6  C   UNL d   1     -47.579  13.478  23.099  0.00  0.00     0.025 A 
ATOM      7  C   UNL d   1     -47.955  12.747  23.172  0.00  0.00     0.005 A 
ATOM      8  C   UNL d   1     -47.525  12.079  23.368  0.00  0.00     0.038 A 
ATOM      9  C   UNL d   1     -47.899  11.353  23.441  0.00  0.00     0.003 C 
ATOM     10  C   UNL d   1     -46.709  12.138  23.493  0.00  0.00     0.184 A 
ATOM     11  N   UNL d   1     -46.332  12.874  23.419  0.00  0.00    -0.224 NA
ATOM     12  N   UNL d   1     -46.274  11.468  23.690  0.00  0.00    -0.127 N 
ATOM     13  C   UNL d   1     -46.776  13.535  23.222  0.00  0.00     0.101 A 
ENDBRANCH   2   6
BRANCH   3  14
ATOM     14  C   UNL d   1     -49.693  15.468  22.974  0.00  0.00     0.217 C 
ATOM     15  O   UNL d   1     -50.256  15.512  22.363  0.00  0.00    -0.643 OA
ATOM     16  O   UNL d   1     -49.852  15.811  23.690  0.00  0.00    -0.643 OA
ENDBRANCH   3  14
TORSDOF 2
ENDMDL
MODEL 3
REMARK VINA RESULT:      -7.1      2.366      3.641
REMARK  2 active torsions:
REMARK  status: ('A' for Active; 'I' for Inactive)
REMARK    1  A    between atoms: C_4  and  C_2 
REMARK    2  A    between atoms: C_8  and  C_3 
ROOT
ATOM      1  S   UNL d   1     -49.118  12.582  23.284  0.00  0.00    -0.081 SA
ATOM      2  C   UNL d   1     -48.757  12.965  22.647  0.00  0.00     0.031 A 
ATOM      3  C   UNL d   1     -49.817  12.214  23.004  0.00  0.00     0.094 A 
ATOM      4  C   UNL d   1     -49.228  12.837  21.966  0.00  0.00     0.007 A 
ATOM      5  C   UNL d   1     -49.880  12.373  22.194  0.00  0.00     0.013 A 
ENDROOT
BRANCH   2   6
ATOM      6  C   UNL d   1     -48.061  13.394  22.671  0.00  0.00     0.025 A 
ATOM      7  C   UNL d   1     -47.332  13.007  22.653  0.00  0.00     0.005 A 
ATOM      8  C   UNL d   1     -46.636  13.437  22.677  0.00  0.00     0.038 A 
ATOM      9  C   UNL d   1     -45.912  13.053  22.660  0.00  0.00     0.003 C 
ATOM     10  C   UNL d   1     -46.664  14.263  22.719  0.00  0.00     0.184 A 
ATOM     11  N   UNL d   1     -47.398  14.651  22.737  0.00  0.00    -0.224 NA
ATOM     12  N   UNL d   1     -45.966  14.698  22.743  0.00  0.00    -0.127 N 
ATOM     13  C   UNL d   1     -48.088  14.207  22.713  0.00  0.00     0.101 A 
ENDBRANCH   2   6
BRANCH   3  14
ATOM     14  C   UNL d   1     -50.339  11.774  23.463  0.00  0.00     0.217 C 
ATOM     15  O   UNL d   1     -51.064  12.114  23.690  0.00  0.00    -0.643 OA
ATOM     16  O   UNL d   1     -50.161  11.020  23.697  0.00  0.00    -0.643 OA
ENDBRANCH   3  14
TORSDOF 2
ENDMDL
MODEL 4
REMARK VINA RESULT:      -5.6      8.417      9.338
REMARK  2 active torsions:
REMARK  status: ('A' for Active; 'I' for Inactive)
REMARK    1  A    between atoms: C_4  and  C_2 
REMARK    2  A    between atoms: C_8  and  C_3 
ROOT
ATOM      1  S   UNL d   1     -40.521  15.668  18.199  0.00  0.00    -0.081 SA
ATOM      2  C   UNL d   1     -40.247  15.149  18.780  0.00  0.00     0.031 A 
ATOM      3  C   UNL d   1     -40.643  15.230  17.495  0.00  0.00     0.094 A 
ATOM      4  C   UNL d   1     -40.195  14.384  18.441  0.00  0.00     0.007 A 
ATOM      5  C   UNL d   1     -40.441  14.443  17.648  0.00  0.00     0.013 A 
ENDROOT
BRANCH   2   6
ATOM      6  C   UNL d   1     -40.057  15.342  19.552  0.00  0.00     0.025 A 
ATOM      7  C   UNL d   1     -40.652  15.515  20.097  0.00  0.00     0.005 A 
ATOM      8  C   UNL d   1     -40.462  15.708  20.869  0.00  0.00     0.038 A 
ATOM      9  C   UNL d   1     -41.054  15.880  21.409  0.00  0.00     0.003 C 
ATOM     10  C   UNL d   1     -39.669  15.729  21.104  0.00  0.00     0.184 A 
ATOM     11  N   UNL d   1     -39.071  15.554  20.555  0.00  0.00    -0.224 NA
ATOM     12  N   UNL d   1     -39.475  15.922  21.879  0.00  0.00    -0.127 N 
ATOM     13  C   UNL d   1     -39.276  15.362  19.784  0.00  0.00     0.101 A 
ENDBRANCH   2   6
BRANCH   3  14
ATOM     14  C   UNL d   1     -40.915  15.541  16.783  0.00  0.00     0.217 C 
ATOM     15  O   UNL d   1     -40.377  15.921  16.274  0.00  0.00    -0.643 OA
ATOM     16  O   UNL d   1     -41.694  15.484  16.570  0.00  0.00    -0.643 OA
ENDBRANCH   3  14
TORSDOF 2
ENDMDL
