MODEL 1
REMARK VINA RESULT:      42.6      0.000      0.000
REMARK  1 active torsions:
REMARK  status: ('A' for Active; 'I' for Inactive)
REMARK    1  A    between atoms: C_11  and  C_2 
ROOT
ATOM      1  C   UNL d   1      46.004 -17.614  43.117  0.00  0.00     0.026 A 
ATOM      2  C   UNL d   1      46.120 -18.383  42.888  0.00  0.00     0.007 A 
ATOM      3  C   UNL d   1      46.015 -17.013  42.564  0.00  0.00     0.103 A 
ATOM      4  C   UNL d   1      46.250 -18.567  42.101  0.00  0.00     0.026 A 
ATOM      5  C   UNL d   1      45.873 -17.436  43.913  0.00  0.00     0.047 A 
ATOM      6  C   UNL d   1      46.262 -17.964  41.546  0.00  0.00     0.103 A 
ATOM      7  O   UNL d   1      46.143 -17.176  41.778  0.00  0.00    -0.307 OA
ATOM      8  C   UNL d   1      45.897 -16.234  42.793  0.00  0.00     0.070 A 
ATOM      9  C   UNL d   1      45.754 -16.664  44.160  0.00  0.00     0.234 A 
ATOM     10  C   UNL d   1      45.765 -16.054  43.603  0.00  0.00     0.236 A 
ATOM     11  C   UNL d   1      46.370 -19.341  41.851  0.00  0.00     0.047 A 
ATOM     12  C   UNL d   1      46.393 -18.134  40.736  0.00  0.00     0.070 A 
ATOM     13  C   UNL d   1      46.503 -19.527  41.046  0.00  0.00     0.234 A 
ATOM     14  C   UNL d   1      46.512 -18.911  40.494  0.00  0.00     0.236 A 
ATOM     15  O   UNL d   1      45.645 -15.285  43.858  0.00  0.00    -0.283 OA
ATOM     16  O   UNL d   1      45.626 -16.509  44.954  0.00  0.00    -0.283 OA
ATOM     17  O   UNL d   1      46.621 -20.299  40.804  0.00  0.00    -0.283 OA
ATOM     18  O   UNL d   1      46.641 -19.071  39.696  0.00  0.00    -0.283 OA
ENDROOT
BRANCH   2  19
ATOM     19  C   UNL d   1      46.109 -18.987  43.443  0.00  0.00     0.039 A 
ATOM     20  C   UNL d   1      45.599 -19.640  43.334  0.00  0.00     0.196 A 
ATOM     21  O   UNL d   1      45.113 -19.687  42.687  0.00  0.00    -0.287 OA
ATOM     22  C   UNL d   1      45.588 -20.249  43.893  0.00  0.00     0.042 A 
ATOM     23  C   UNL d   1      46.086 -20.210  44.567  0.00  0.00     0.003 A 
ATOM     24  C   UNL d   1      46.586 -19.559  44.663  0.00  0.00     0.000 A 
ATOM     25  C   UNL d   1      46.590 -18.956  44.098  0.00  0.00     0.003 A 
ENDBRANCH   2  19
TORSDOF 1
ENDMDL
MODEL 2
REMARK VINA RESULT:      44.9      1.320      2.786
REMARK  1 active torsions:
REMARK  status: ('A' for Active; 'I' for Inactive)
REMARK    1  A    between atoms: C_11  and  C_2 
ROOT
ATOM      1  C   UNL d   1      45.781 -16.859  43.696  0.00  0.00     0.026 A 
ATOM      2  C   UNL d   1      45.955 -17.538  43.287  0.00  0.00     0.007 A 
ATOM      3  C   UNL d   1      45.771 -16.860  44.511  0.00  0.00     0.103 A 
ATOM      4  C   UNL d   1      46.122 -18.233  43.688  0.00  0.00     0.026 A 
ATOM      5  C   UNL d   1      45.614 -16.162  43.284  0.00  0.00     0.047 A 
ATOM      6  C   UNL d   1      46.111 -18.233  44.508  0.00  0.00     0.103 A 
ATOM      7  O   UNL d   1      45.934 -17.540  44.927  0.00  0.00    -0.307 OA
ATOM      8  C   UNL d   1      45.595 -16.174  44.927  0.00  0.00     0.070 A 
ATOM      9  C   UNL d   1      45.436 -15.468  43.681  0.00  0.00     0.234 A 
ATOM     10  C   UNL d   1      45.425 -15.466  44.508  0.00  0.00     0.236 A 
ATOM     11  C   UNL d   1      46.300 -18.929  43.291  0.00  0.00     0.047 A 
ATOM     12  C   UNL d   1      46.279 -18.934  44.933  0.00  0.00     0.070 A 
ATOM     13  C   UNL d   1      46.470 -19.638  43.702  0.00  0.00     0.234 A 
ATOM     14  C   UNL d   1      46.457 -19.628  44.529  0.00  0.00     0.236 A 
ATOM     15  O   UNL d   1      45.247 -14.768  44.898  0.00  0.00    -0.283 OA
ATOM     16  O   UNL d   1      45.273 -14.789  43.256  0.00  0.00    -0.283 OA
ATOM     17  O   UNL d   1      46.646 -20.328  43.301  0.00  0.00    -0.283 OA
ATOM     18  O   UNL d   1      46.621 -20.315  44.955  0.00  0.00    -0.283 OA
ENDROOT
BRANCH   2  19
ATOM     19  C   UNL d   1      45.966 -17.538  42.467  0.00  0.00     0.039 A 
ATOM     20  C   UNL d   1      45.296 -17.804  42.044  0.00  0.00     0.196 A 
ATOM     21  O   UNL d   1      44.633 -18.064  42.432  0.00  0.00    -0.287 OA
ATOM     22  C   UNL d   1      45.306 -17.803  41.217  0.00  0.00     0.042 A 
ATOM     23  C   UNL d   1      45.987 -17.536  40.805  0.00  0.00     0.003 A 
ATOM     24  C   UNL d   1      46.643 -17.275  41.235  0.00  0.00     0.000 A 
ATOM     25  C   UNL d   1      46.622 -17.280  42.062  0.00  0.00     0.003 A 
ENDBRANCH   2  19
TORSDOF 1
ENDMDL
