MODEL 1
REMARK VINA RESULT:      56.8      0.000      0.000
REMARK  3 active torsions:
REMARK  status: ('A' for Active; 'I' for Inactive)
REMARK    1  A    between atoms: C_2  and  C_1 
REMARK    2  A    between atoms: C_13  and  N_4 
REMARK    3  A    between atoms: C_12  and  C_15 
ROOT
ATOM      1  C   UNL d   1      13.707  13.093  -3.458  0.00  0.00     0.106 A 
ATOM      2  C   UNL d   1      13.381  13.226  -4.749  0.00  0.00     0.206 A 
ATOM      3  N   UNL d   1      13.562  13.976  -4.457  0.00  0.00    -0.281 N 
ATOM      4  N   UNL d   1      13.469  12.674  -4.137  0.00  0.00    -0.217 NA
ATOM      5  C   UNL d   1      13.763  13.895  -3.661  0.00  0.00     0.102 A 
ATOM      6  S   UNL d   1      13.151  13.051  -5.522  0.00  0.00    -0.038 SA
ENDROOT
BRANCH   1   7
ATOM      7  C   UNL d   1      13.859  12.768  -2.721  0.00  0.00     0.083 A 
ATOM      8  C   UNL d   1      13.414  12.120  -2.455  0.00  0.00     0.302 A 
ATOM      9  O   UNL d   1      13.570  11.792  -1.706  0.00  0.00    -0.273 OA
ATOM     10  O   UNL d   1      12.818  11.801  -2.927  0.00  0.00    -0.259 OA
ATOM     11  C   UNL d   1      14.165  12.107  -1.228  0.00  0.00     0.103 A 
ATOM     12  C   UNL d   1      14.611  12.755  -1.494  0.00  0.00     0.023 A 
ATOM     13  C   UNL d   1      14.315  11.779  -0.490  0.00  0.00     0.025 A 
ATOM     14  C   UNL d   1      14.459  13.089  -2.245  0.00  0.00     0.009 A 
ATOM     15  C   UNL d   1      15.203  13.070  -1.020  0.00  0.00     0.002 A 
ATOM     16  C   UNL d   1      15.354  12.742  -0.280  0.00  0.00     0.000 A 
ATOM     17  C   UNL d   1      14.908  12.094  -0.014  0.00  0.00     0.002 A 
ENDBRANCH   1   7
BRANCH   3  18
ATOM     18  C   UNL d   1      13.544  14.673  -4.883  0.00  0.00     0.066 A 
ATOM     19  C   UNL d   1      13.412  15.397  -4.494  0.00  0.00     0.018 A 
ATOM     20  C   UNL d   1      13.393  16.100  -4.920  0.00  0.00     0.008 A 
ATOM     21  C   UNL d   1      13.506  16.090  -5.743  0.00  0.00     0.065 A 
ATOM     22  C   UNL d   1      13.636  15.374  -6.127  0.00  0.00     0.008 A 
ATOM     23  C   UNL d   1      13.655  14.667  -5.699  0.00  0.00     0.018 A 
BRANCH  21  24
ATOM     24  C   UNL d   1      13.488  16.792  -6.171  0.00  0.00     0.211 C 
ATOM     25  O   UNL d   1      14.197  17.162  -6.385  0.00  0.00    -0.644 OA
ATOM     26  O   UNL d   1      12.769  17.128  -6.389  0.00  0.00    -0.644 OA
ENDBRANCH  21  24
ENDBRANCH   3  18
TORSDOF 3
ENDMDL
