MODEL 1
REMARK VINA RESULT:      35.1      0.000      0.000
REMARK  5 active torsions:
REMARK  status: ('A' for Active; 'I' for Inactive)
REMARK    1  A    between atoms: N_5  and  S_1 
REMARK    2  A    between atoms: C_9  and  S_1 
REMARK    3  A    between atoms: C_6  and  C_2 
REMARK    4  A    between atoms: C_4  and  N_5 
REMARK    5  A    between atoms: O_20  and  C_17 
ROOT
ATOM      1  S   UNL d   1     -54.922-102.016 -42.424  0.00  0.00     0.287 S 
ATOM      2  O   UNL d   1     -55.035-101.190 -42.477  0.00  0.00    -0.198 OA
ATOM      3  O   UNL d   1     -54.808-102.853 -42.365  0.00  0.00    -0.198 OA
ENDROOT
BRANCH   1   4
ATOM      4  N   UNL d   1     -54.974-102.086 -43.262  0.00  0.00    -0.132 NA
BRANCH   4   5
ATOM      5  C   UNL d   1     -55.077-101.413 -43.740  0.00  0.00     0.206 A 
ATOM      6  N   UNL d   1     -55.506-100.683 -43.627  0.00  0.00    -0.216 NA
ATOM      7  C   UNL d   1     -55.388-100.234 -44.318  0.00  0.00     0.161 A 
ATOM      8  C   UNL d   1     -54.921-100.641 -44.832  0.00  0.00     0.061 A 
ATOM      9  S   UNL d   1     -54.719-101.360 -44.504  0.00  0.00    -0.046 SA
BRANCH   7  10
ATOM     10  C   UNL d   1     -55.691 -99.484 -44.477  0.00  0.00     0.436 C 
ATOM     11  F   UNL d   1     -56.043 -98.755 -44.653  0.00  0.00    -0.165 F 
ATOM     12  F   UNL d   1     -55.200 -98.760 -44.321  0.00  0.00    -0.165 F 
ATOM     13  F   UNL d   1     -56.417 -99.429 -44.766  0.00  0.00    -0.165 F 
ENDBRANCH   7  10
ENDBRANCH   4   5
ENDBRANCH   1   4
BRANCH   1  14
ATOM     14  C   UNL d   1     -54.869-101.957 -41.580  0.00  0.00     0.105 A 
ATOM     15  C   UNL d   1     -54.890-101.215 -41.245  0.00  0.00     0.015 A 
ATOM     16  C   UNL d   1     -54.839-101.137 -40.435  0.00  0.00     0.025 A 
ATOM     17  C   UNL d   1     -54.767-101.803 -39.949  0.00  0.00     0.094 A 
ATOM     18  C   UNL d   1     -54.746-102.552 -40.275  0.00  0.00     0.025 A 
ATOM     19  C   UNL d   1     -54.795-102.641 -41.079  0.00  0.00     0.015 A 
BRANCH  17  20
ATOM     20  O   UNL d   1     -54.714-101.749 -39.108  0.00  0.00    -0.328 OA
ATOM     21  C   UNL d   1     -55.134-102.296 -38.626  0.00  0.00     0.181 C 
ENDBRANCH  17  20
ENDBRANCH   1  14
TORSDOF 5
ENDMDL
MODEL 2
REMARK VINA RESULT:      35.5      2.847      4.498
REMARK  5 active torsions:
REMARK  status: ('A' for Active; 'I' for Inactive)
REMARK    1  A    between atoms: N_5  and  S_1 
REMARK    2  A    between atoms: C_9  and  S_1 
REMARK    3  A    between atoms: C_6  and  C_2 
REMARK    4  A    between atoms: C_4  and  N_5 
REMARK    5  A    between atoms: O_20  and  C_17 
ROOT
ATOM      1  S   UNL d   1     -54.749-101.794 -42.594  0.00  0.00     0.287 S 
ATOM      2  O   UNL d   1     -54.711-101.356 -41.884  0.00  0.00    -0.198 OA
ATOM      3  O   UNL d   1     -54.788-102.236 -43.316  0.00  0.00    -0.198 OA
ENDROOT
BRANCH   1   4
ATOM      4  N   UNL d   1     -54.714-102.516 -42.160  0.00  0.00    -0.132 NA
BRANCH   4   5
ATOM      5  C   UNL d   1     -55.071-102.580 -41.411  0.00  0.00     0.206 A 
ATOM      6  N   UNL d   1     -54.770-102.487 -40.616  0.00  0.00    -0.216 NA
ATOM      7  C   UNL d   1     -55.413-102.626 -40.106  0.00  0.00     0.161 A 
ATOM      8  C   UNL d   1     -56.072-102.793 -40.536  0.00  0.00     0.061 A 
ATOM      9  S   UNL d   1     -55.891-102.772 -41.331  0.00  0.00    -0.046 SA
BRANCH   7  10
ATOM     10  C   UNL d   1     -55.403-102.601 -39.282  0.00  0.00     0.436 C 
ATOM     11  F   UNL d   1     -55.336-102.568 -38.458  0.00  0.00    -0.165 F 
ATOM     12  F   UNL d   1     -56.157-102.690 -38.822  0.00  0.00    -0.165 F 
ATOM     13  F   UNL d   1     -54.715-102.498 -38.922  0.00  0.00    -0.165 F 
ENDBRANCH   7  10
ENDBRANCH   4   5
ENDBRANCH   1   4
BRANCH   1  14
ATOM     14  C   UNL d   1     -54.785-101.075 -43.040  0.00  0.00     0.105 A 
ATOM     15  C   UNL d   1     -54.883-101.129 -43.847  0.00  0.00     0.015 A 
ATOM     16  C   UNL d   1     -54.920-100.448 -44.294  0.00  0.00     0.025 A 
ATOM     17  C   UNL d   1     -54.858 -99.703 -43.939  0.00  0.00     0.094 A 
ATOM     18  C   UNL d   1     -54.759 -99.639 -43.131  0.00  0.00     0.025 A 
ATOM     19  C   UNL d   1     -54.721-100.309 -42.677  0.00  0.00     0.015 A 
BRANCH  17  20
ATOM     20  O   UNL d   1     -54.893 -98.984 -44.381  0.00  0.00    -0.328 OA
ATOM     21  C   UNL d   1     -55.503 -98.872 -44.948  0.00  0.00     0.181 C 
ENDBRANCH  17  20
ENDBRANCH   1  14
TORSDOF 5
ENDMDL
MODEL 3
REMARK VINA RESULT:      36.5      2.555      4.423
REMARK  5 active torsions:
REMARK  status: ('A' for Active; 'I' for Inactive)
REMARK    1  A    between atoms: N_5  and  S_1 
REMARK    2  A    between atoms: C_9  and  S_1 
REMARK    3  A    between atoms: C_6  and  C_2 
REMARK    4  A    between atoms: C_4  and  N_5 
REMARK    5  A    between atoms: O_20  and  C_17 
ROOT
ATOM      1  S   UNL d   1     -55.404-100.478 -43.957  0.00  0.00     0.287 S 
ATOM      2  O   UNL d   1     -55.886-101.136 -43.777  0.00  0.00    -0.198 OA
ATOM      3  O   UNL d   1     -54.919 -99.808 -44.140  0.00  0.00    -0.198 OA
ENDROOT
BRANCH   1   4
ATOM      4  N   UNL d   1     -54.716-100.911 -43.738  0.00  0.00    -0.132 NA
BRANCH   4   5
ATOM      5  C   UNL d   1     -54.716-101.398 -43.063  0.00  0.00     0.206 A 
ATOM      6  N   UNL d   1     -54.718-101.227 -42.226  0.00  0.00    -0.216 NA
ATOM      7  C   UNL d   1     -54.716-101.963 -41.837  0.00  0.00     0.161 A 
ATOM      8  C   UNL d   1     -54.713-102.558 -42.379  0.00  0.00     0.061 A 
ATOM      9  S   UNL d   1     -54.713-102.241 -43.131  0.00  0.00    -0.046 SA
BRANCH   7  10
ATOM     10  C   UNL d   1     -54.717-102.091 -41.023  0.00  0.00     0.436 C 
ATOM     11  F   UNL d   1     -54.719-102.274 -40.216  0.00  0.00    -0.165 F 
ATOM     12  F   UNL d   1     -54.712-101.402 -40.462  0.00  0.00    -0.165 F 
ATOM     13  F   UNL d   1     -54.723-102.830 -40.763  0.00  0.00    -0.165 F 
ENDBRANCH   7  10
ENDBRANCH   4   5
ENDBRANCH   1   4
BRANCH   1  14
ATOM     14  C   UNL d   1     -56.090-100.033 -44.180  0.00  0.00     0.105 A 
ATOM     15  C   UNL d   1     -56.802-100.424 -44.230  0.00  0.00     0.015 A 
ATOM     16  C   UNL d   1     -57.474-100.013 -44.443  0.00  0.00     0.025 A 
ATOM     17  C   UNL d   1     -57.441 -99.203 -44.609  0.00  0.00     0.094 A 
ATOM     18  C   UNL d   1     -56.731 -98.801 -44.561  0.00  0.00     0.025 A 
ATOM     19  C   UNL d   1     -56.058 -99.200 -44.351  0.00  0.00     0.015 A 
BRANCH  17  20
ATOM     20  O   UNL d   1     -58.121 -98.756 -44.831  0.00  0.00    -0.328 OA
ATOM     21  C   UNL d   1     -58.832 -98.828 -44.387  0.00  0.00     0.181 C 
ENDBRANCH  17  20
ENDBRANCH   1  14
TORSDOF 5
ENDMDL
