MODEL 1
REMARK VINA RESULT:      -3.6      0.000      0.000
REMARK  7 active torsions:
REMARK  status: ('A' for Active; 'I' for Inactive)
REMARK    1  A    between atoms: N_2  and  C_1 
REMARK    2  A    between atoms: S_4  and  C_3 
REMARK    3  A    between atoms: C_6  and  S_4 
REMARK    4  A    between atoms: C_5  and  C_8 
REMARK    5  A    between atoms: C_9  and  C_6 
REMARK    6  A    between atoms: O_14  and  C_9 
REMARK    7  A    between atoms: C_12  and  O_14 
ROOT
ATOM      1  S   UNL d   1     -41.974-123.298 -50.853  0.00  0.00     0.096 S 
ATOM      2  O   UNL d   1     -42.540-123.783 -51.190  0.00  0.00    -0.247 OA
ENDROOT
BRANCH   1   3
ATOM      3  C   UNL d   1     -41.902-123.260 -50.030  0.00  0.00     0.082 A 
ATOM      4  C   UNL d   1     -42.541-122.987 -49.560  0.00  0.00     0.135 A 
ATOM      5  C   UNL d   1     -42.457-122.953 -48.740  0.00  0.00     0.028 A 
ATOM      6  C   UNL d   1     -41.755-123.184 -48.376  0.00  0.00     0.073 A 
ATOM      7  C   UNL d   1     -41.122-123.455 -48.841  0.00  0.00     0.005 A 
ATOM      8  C   UNL d   1     -41.196-123.492 -49.667  0.00  0.00     0.011 A 
BRANCH   4   9
ATOM      9  N   UNL d   1     -43.243-122.755 -49.926  0.00  0.00    -0.113 N 
ATOM     10  O   UNL d   1     -43.392-121.945 -50.053  0.00  0.00    -0.532 OA
ATOM     11  O   UNL d   1     -43.798-123.325 -50.165  0.00  0.00    -0.532 OA
ENDBRANCH   4   9
BRANCH   6  12
ATOM     12  C   UNL d   1     -41.671-123.151 -47.556  0.00  0.00     0.419 C 
ATOM     13  F   UNL d   1     -41.812-123.782 -46.970  0.00  0.00    -0.166 F 
ATOM     14  F   UNL d   1     -41.598-123.134 -46.806  0.00  0.00    -0.166 F 
ATOM     15  F   UNL d   1     -41.423-122.494 -47.045  0.00  0.00    -0.166 F 
ENDBRANCH   6  12
ENDBRANCH   1   3
BRANCH   1  16
ATOM     16  C   UNL d   1     -41.475-122.846 -51.331  0.00  0.00     0.137 C 
BRANCH  16  17
ATOM     17  C   UNL d   1     -41.388-123.036 -52.132  0.00  0.00     0.309 C 
ATOM     18  O   UNL d   1     -41.498-123.814 -52.384  0.00  0.00    -0.258 OA
BRANCH  17  19
ATOM     19  O   UNL d   1     -41.191-122.448 -52.677  0.00  0.00    -0.273 OA
BRANCH  19  20
ATOM     20  C   UNL d   1     -41.392-122.504 -53.341  0.00  0.00     0.103 A 
ATOM     21  C   UNL d   1     -41.163-123.028 -53.740  0.00  0.00     0.025 A 
ATOM     22  C   UNL d   1     -41.364-123.088 -54.412  0.00  0.00     0.002 A 
ATOM     23  C   UNL d   1     -41.134-123.613 -54.811  0.00  0.00     0.000 C 
ATOM     24  C   UNL d   1     -41.804-122.610 -54.678  0.00  0.00     0.000 A 
ATOM     25  C   UNL d   1     -42.041-122.073 -54.273  0.00  0.00     0.002 A 
ATOM     26  C   UNL d   1     -41.832-122.026 -53.608  0.00  0.00     0.025 A 
ATOM     27  C   UNL d   1     -42.488-121.586 -54.544  0.00  0.00     0.000 C 
ENDBRANCH  19  20
ENDBRANCH  17  19
ENDBRANCH  16  17
ENDBRANCH   1  16
TORSDOF 7
ENDMDL
MODEL 2
REMARK VINA RESULT:      -3.5      3.067      5.273
REMARK  7 active torsions:
REMARK  status: ('A' for Active; 'I' for Inactive)
REMARK    1  A    between atoms: N_2  and  C_1 
REMARK    2  A    between atoms: S_4  and  C_3 
REMARK    3  A    between atoms: C_6  and  S_4 
REMARK    4  A    between atoms: C_5  and  C_8 
REMARK    5  A    between atoms: C_9  and  C_6 
REMARK    6  A    between atoms: O_14  and  C_9 
REMARK    7  A    between atoms: C_12  and  O_14 
ROOT
ATOM      1  S   UNL d   1     -41.380-122.534 -51.549  0.00  0.00     0.096 S 
ATOM      2  O   UNL d   1     -41.222-121.787 -51.253  0.00  0.00    -0.247 OA
ENDROOT
BRANCH   1   3
ATOM      3  C   UNL d   1     -41.365-122.663 -52.367  0.00  0.00     0.082 A 
ATOM      4  C   UNL d   1     -41.561-122.045 -52.897  0.00  0.00     0.135 A 
ATOM      5  C   UNL d   1     -41.542-122.186 -53.710  0.00  0.00     0.028 A 
ATOM      6  C   UNL d   1     -41.335-122.926 -54.007  0.00  0.00     0.073 A 
ATOM      7  C   UNL d   1     -41.141-123.538 -53.482  0.00  0.00     0.005 A 
ATOM      8  C   UNL d   1     -41.156-123.407 -52.662  0.00  0.00     0.011 A 
BRANCH   4   9
ATOM      9  N   UNL d   1     -41.768-121.304 -52.599  0.00  0.00    -0.113 N 
ATOM     10  O   UNL d   1     -42.567-121.141 -52.424  0.00  0.00    -0.532 OA
ATOM     11  O   UNL d   1     -41.187-120.724 -52.474  0.00  0.00    -0.532 OA
ENDBRANCH   4   9
BRANCH   6  12
ATOM     12  C   UNL d   1     -41.316-123.067 -54.820  0.00  0.00     0.419 C 
ATOM     13  F   UNL d   1     -41.315-122.487 -55.472  0.00  0.00    -0.166 F 
ATOM     14  F   UNL d   1     -41.300-123.183 -55.565  0.00  0.00    -0.166 F 
ATOM     15  F   UNL d   1     -41.293-123.817 -55.257  0.00  0.00    -0.166 F 
ENDBRANCH   6  12
ENDBRANCH   1   3
BRANCH   1  16
ATOM     16  C   UNL d   1     -41.553-123.158 -51.038  0.00  0.00     0.137 C 
BRANCH  16  17
ATOM     17  C   UNL d   1     -41.348-123.103 -50.237  0.00  0.00     0.309 C 
ATOM     18  O   UNL d   1     -41.125-122.376 -49.919  0.00  0.00    -0.258 OA
BRANCH  17  19
ATOM     19  O   UNL d   1     -41.367-123.776 -49.760  0.00  0.00    -0.273 OA
BRANCH  19  20
ATOM     20  C   UNL d   1     -41.689-123.758 -49.142  0.00  0.00     0.103 A 
ATOM     21  C   UNL d   1     -42.385-123.796 -49.101  0.00  0.00     0.025 A 
ATOM     22  C   UNL d   1     -42.713-123.778 -48.479  0.00  0.00     0.002 A 
ATOM     23  C   UNL d   1     -43.409-123.817 -48.439  0.00  0.00     0.000 C 
ATOM     24  C   UNL d   1     -42.330-123.721 -47.894  0.00  0.00     0.000 A 
ATOM     25  C   UNL d   1     -41.618-123.682 -47.931  0.00  0.00     0.002 A 
ATOM     26  C   UNL d   1     -41.305-123.701 -48.556  0.00  0.00     0.025 A 
ATOM     27  C   UNL d   1     -41.228-123.624 -47.336  0.00  0.00     0.000 C 
ENDBRANCH  19  20
ENDBRANCH  17  19
ENDBRANCH  16  17
ENDBRANCH   1  16
TORSDOF 7
ENDMDL
MODEL 3
REMARK VINA RESULT:      -3.4      0.880      1.194
REMARK  7 active torsions:
REMARK  status: ('A' for Active; 'I' for Inactive)
REMARK    1  A    between atoms: N_2  and  C_1 
REMARK    2  A    between atoms: S_4  and  C_3 
REMARK    3  A    between atoms: C_6  and  S_4 
REMARK    4  A    between atoms: C_5  and  C_8 
REMARK    5  A    between atoms: C_9  and  C_6 
REMARK    6  A    between atoms: O_14  and  C_9 
REMARK    7  A    between atoms: C_12  and  O_14 
ROOT
ATOM      1  S   UNL d   1     -41.713-122.349 -51.408  0.00  0.00     0.096 S 
ATOM      2  O   UNL d   1     -41.650-121.544 -51.543  0.00  0.00    -0.247 OA
ENDROOT
BRANCH   1   3
ATOM      3  C   UNL d   1     -41.803-122.630 -50.634  0.00  0.00     0.082 A 
ATOM      4  C   UNL d   1     -42.508-122.479 -50.208  0.00  0.00     0.135 A 
ATOM      5  C   UNL d   1     -42.586-122.764 -49.438  0.00  0.00     0.028 A 
ATOM      6  C   UNL d   1     -41.980-123.195 -49.082  0.00  0.00     0.073 A 
ATOM      7  C   UNL d   1     -41.282-123.344 -49.504  0.00  0.00     0.005 A 
ATOM      8  C   UNL d   1     -41.193-123.062 -50.280  0.00  0.00     0.011 A 
BRANCH   4   9
ATOM      9  N   UNL d   1     -43.114-122.048 -50.564  0.00  0.00    -0.113 N 
ATOM     10  O   UNL d   1     -43.866-122.396 -50.656  0.00  0.00    -0.532 OA
ATOM     11  O   UNL d   1     -42.977-121.273 -50.830  0.00  0.00    -0.532 OA
ENDBRANCH   4   9
BRANCH   6  12
ATOM     12  C   UNL d   1     -42.058-123.480 -48.311  0.00  0.00     0.419 C 
ATOM     13  F   UNL d   1     -41.430-123.730 -47.760  0.00  0.00    -0.166 F 
ATOM     14  F   UNL d   1     -42.115-123.742 -47.606  0.00  0.00    -0.166 F 
ATOM     15  F   UNL d   1     -42.771-123.612 -47.833  0.00  0.00    -0.166 F 
ENDBRANCH   6  12
ENDBRANCH   1   3
BRANCH   1  16
ATOM     16  C   UNL d   1     -41.687-122.882 -52.037  0.00  0.00     0.137 C 
BRANCH  16  17
ATOM     17  C   UNL d   1     -41.568-122.603 -52.808  0.00  0.00     0.309 C 
ATOM     18  O   UNL d   1     -41.126-121.918 -52.934  0.00  0.00    -0.258 OA
BRANCH  17  19
ATOM     19  O   UNL d   1     -41.892-123.010 -53.449  0.00  0.00    -0.273 OA
BRANCH  19  20
ATOM     20  C   UNL d   1     -41.967-122.692 -54.065  0.00  0.00     0.103 A 
ATOM     21  C   UNL d   1     -41.509-122.803 -54.580  0.00  0.00     0.025 A 
ATOM     22  C   UNL d   1     -41.580-122.484 -55.203  0.00  0.00     0.002 A 
ATOM     23  C   UNL d   1     -41.123-122.594 -55.718  0.00  0.00     0.000 C 
ATOM     24  C   UNL d   1     -42.123-122.049 -55.302  0.00  0.00     0.000 A 
ATOM     25  C   UNL d   1     -42.593-121.934 -54.777  0.00  0.00     0.002 A 
ATOM     26  C   UNL d   1     -42.509-122.258 -54.164  0.00  0.00     0.025 A 
ATOM     27  C   UNL d   1     -43.144-121.492 -54.878  0.00  0.00     0.000 C 
ENDBRANCH  19  20
ENDBRANCH  17  19
ENDBRANCH  16  17
ENDBRANCH   1  16
TORSDOF 7
ENDMDL
