MODEL 1
REMARK VINA RESULT:      40.5      0.000      0.000
REMARK  7 active torsions:
REMARK  status: ('A' for Active; 'I' for Inactive)
REMARK    1  A    between atoms: C_3  and  C_1 
REMARK    2  A    between atoms: C_4  and  C_1 
REMARK    3  A    between atoms: C_2  and  C_5 
REMARK    4  A    between atoms: O_14  and  C_2 
REMARK    5  A    between atoms: C_6  and  C_3 
REMARK    6  A    between atoms: C_13  and  C_4 
REMARK    7  A    between atoms: O_20  and  C_15 
ROOT
ATOM      1  C   UNL d   1     -54.714-100.528 -42.681  0.00  0.00     0.042 C 
ENDROOT
BRANCH   1   2
ATOM      2  C   UNL d   1     -54.748-101.350 -42.615  0.00  0.00     0.196 C 
ATOM      3  O   UNL d   1     -54.787-101.823 -43.288  0.00  0.00    -0.287 OA
BRANCH   2   4
ATOM      4  C   UNL d   1     -54.743-101.696 -41.868  0.00  0.00     0.039 A 
ATOM      5  C   UNL d   1     -54.722-101.218 -41.188  0.00  0.00     0.005 A 
ATOM      6  C   UNL d   1     -54.717-101.567 -40.439  0.00  0.00     0.024 A 
ATOM      7  C   UNL d   1     -54.733-102.390 -40.373  0.00  0.00     0.094 A 
ATOM      8  C   UNL d   1     -54.755-102.864 -41.047  0.00  0.00     0.024 A 
ATOM      9  C   UNL d   1     -54.760-102.518 -41.794  0.00  0.00     0.005 A 
BRANCH   7  10
ATOM     10  O   UNL d   1     -54.728-102.735 -39.627  0.00  0.00    -0.328 OA
ATOM     11  C   UNL d   1     -55.391-102.667 -39.133  0.00  0.00     0.181 C 
ENDBRANCH   7  10
ENDBRANCH   2   4
ENDBRANCH   1   2
BRANCH   1  12
ATOM     12  C   UNL d   1     -54.776-100.173 -43.428  0.00  0.00     0.003 C 
BRANCH  12  13
ATOM     13  C   UNL d   1     -55.502 -99.888 -43.691  0.00  0.00     0.000 A 
ATOM     14  C   UNL d   1     -55.839-100.207 -44.362  0.00  0.00     0.000 A 
ATOM     15  C   UNL d   1     -56.567 -99.926 -44.632  0.00  0.00     0.005 A 
ATOM     16  C   UNL d   1     -56.955 -99.316 -44.217  0.00  0.00     0.063 A 
ATOM     17  C   UNL d   1     -56.607 -98.999 -43.541  0.00  0.00     0.005 A 
ATOM     18  C   UNL d   1     -55.883 -99.283 -43.277  0.00  0.00     0.000 A 
BRANCH  16  19
ATOM     19  C   UNL d   1     -57.680 -99.031 -44.480  0.00  0.00     0.296 C 
ATOM     20  O   UNL d   1     -57.761 -98.759 -45.254  0.00  0.00    -0.259 OA
BRANCH  19  21
ATOM     21  O   UNL d   1     -58.325 -99.018 -43.970  0.00  0.00    -0.296 OA
ATOM     22  C   UNL d   1     -59.074 -98.812 -44.245  0.00  0.00     0.185 C 
ENDBRANCH  19  21
ENDBRANCH  16  19
ENDBRANCH  12  13
ENDBRANCH   1  12
TORSDOF 7
ENDMDL
