MODEL 1
REMARK VINA RESULT:      -0.9      0.000      0.000
REMARK  5 active torsions:
REMARK  status: ('A' for Active; 'I' for Inactive)
REMARK    1  A    between atoms: N_6  and  S_1 
REMARK    2  A    between atoms: C_8  and  S_1 
REMARK    3  A    between atoms: C_12  and  C_3 
REMARK    4  A    between atoms: C_4  and  C_11 
REMARK    5  A    between atoms: C_15  and  N_6 
ROOT
ATOM      1  C   UNL d   1     -41.492-122.813 -51.691  0.00  0.00     0.018 A 
ATOM      2  C   UNL d   1     -41.246-122.810 -50.062  0.00  0.00     0.094 A 
ATOM      3  C   UNL d   1     -41.282-123.511 -51.299  0.00  0.00     0.003 A 
ATOM      4  C   UNL d   1     -41.577-122.114 -51.261  0.00  0.00     0.003 A 
ATOM      5  C   UNL d   1     -41.159-123.509 -50.485  0.00  0.00     0.020 A 
ATOM      6  C   UNL d   1     -41.455-122.112 -50.453  0.00  0.00     0.020 A 
ENDROOT
BRANCH   1   7
ATOM      7  C   UNL d   1     -41.614-122.815 -52.504  0.00  0.00     0.088 A 
ATOM      8  N   UNL d   1     -42.147-121.897 -53.432  0.00  0.00    -0.239 NA
ATOM      9  C   UNL d   1     -42.012-122.430 -54.039  0.00  0.00     0.111 A 
ATOM     10  S   UNL d   1     -41.678-123.155 -53.879  0.00  0.00    -0.066 SA
ATOM     11  C   UNL d   1     -41.476-123.354 -53.106  0.00  0.00     0.056 A 
BRANCH   9  12
ATOM     12  C   UNL d   1     -42.212-122.235 -54.811  0.00  0.00     0.024 A 
ATOM     13  C   UNL d   1     -42.988-122.339 -55.066  0.00  0.00     0.002 A 
ATOM     14  C   UNL d   1     -43.183-122.142 -55.840  0.00  0.00     0.000 A 
ATOM     15  C   UNL d   1     -42.617-121.844 -56.355  0.00  0.00     0.000 A 
ATOM     16  C   UNL d   1     -41.839-121.741 -56.091  0.00  0.00     0.000 A 
ATOM     17  C   UNL d   1     -41.636-121.939 -55.311  0.00  0.00     0.002 A 
ENDBRANCH   9  12
ENDBRANCH   1   7
BRANCH   2  18
ATOM     18  N   UNL d   1     -41.123-122.802 -49.242  0.00  0.00    -0.158 NA
BRANCH  18  19
ATOM     19  S   UNL d   1     -41.732-123.004 -48.735  0.00  0.00     0.285 S 
ATOM     20  O   UNL d   1     -42.430-122.561 -48.735  0.00  0.00    -0.198 OA
ATOM     21  O   UNL d   1     -41.655-123.649 -48.222  0.00  0.00    -0.198 OA
BRANCH  19  22
ATOM     22  C   UNL d   1     -42.349-123.207 -48.224  0.00  0.00     0.105 A 
ATOM     23  C   UNL d   1     -42.195-123.361 -47.425  0.00  0.00     0.013 A 
ATOM     24  C   UNL d   1     -42.802-123.563 -46.910  0.00  0.00     0.001 A 
ATOM     25  C   UNL d   1     -43.582-123.612 -47.202  0.00  0.00     0.000 A 
ATOM     26  C   UNL d   1     -43.743-123.460 -47.998  0.00  0.00     0.001 A 
ATOM     27  C   UNL d   1     -44.206-123.817 -46.687  0.00  0.00     0.000 C 
ATOM     28  C   UNL d   1     -43.122-123.256 -48.511  0.00  0.00     0.013 A 
ENDBRANCH  19  22
ENDBRANCH  18  19
ENDBRANCH   2  18
TORSDOF 5
ENDMDL
