MODEL 1
REMARK VINA RESULT:      -7.4      0.000      0.000
REMARK  3 active torsions:
REMARK  status: ('A' for Active; 'I' for Inactive)
REMARK    1  A    between atoms: S_6  and  C_2 
REMARK    2  A    between atoms: C_8  and  S_6 
REMARK    3  A    between atoms: C_9  and  C_8 
ROOT
ATOM      1  S   UNL d   1      53.265  32.400  53.349  0.00  0.00    -0.048 SA
ENDROOT
BRANCH   1   2
ATOM      2  C   UNL d   1      53.171  31.575  53.288  0.00  0.00     0.203 A 
ATOM      3  N   UNL d   1      53.492  31.014  53.798  0.00  0.00    -0.193 NA
ATOM      4  C   UNL d   1      53.259  30.266  53.532  0.00  0.00     0.234 A 
ATOM      5  S   UNL d   1      52.796  30.367  52.860  0.00  0.00     0.056 SA
ATOM      6  N   UNL d   1      53.458  29.550  53.883  0.00  0.00    -0.118 N 
ATOM      7  N   UNL d   1      52.738  31.176  52.704  0.00  0.00    -0.181 NA
ENDBRANCH   1   2
BRANCH   1   8
ATOM      8  C   UNL d   1      52.672  32.855  53.700  0.00  0.00     0.038 C 
BRANCH   8   9
ATOM      9  C   UNL d   1      52.787  33.659  53.824  0.00  0.00     0.007 A 
ATOM     10  C   UNL d   1      52.518  34.197  53.252  0.00  0.00     0.001 A 
ATOM     11  C   UNL d   1      52.631  35.009  53.373  0.00  0.00     0.000 A 
ATOM     12  C   UNL d   1      53.008  35.274  54.057  0.00  0.00     0.000 A 
ATOM     13  C   UNL d   1      53.274  34.726  54.625  0.00  0.00     0.000 A 
ATOM     14  C   UNL d   1      53.160  33.922  54.501  0.00  0.00     0.001 A 
ENDBRANCH   8   9
ENDBRANCH   1   8
TORSDOF 3
ENDMDL
MODEL 2
REMARK VINA RESULT:      -7.1      1.891      3.842
REMARK  3 active torsions:
REMARK  status: ('A' for Active; 'I' for Inactive)
REMARK    1  A    between atoms: S_6  and  C_2 
REMARK    2  A    between atoms: C_8  and  S_6 
REMARK    3  A    between atoms: C_9  and  C_8 
ROOT
ATOM      1  S   UNL d   1      52.573  32.740  53.625  0.00  0.00    -0.048 SA
ENDROOT
BRANCH   1   2
ATOM      2  C   UNL d   1      52.596  33.572  53.602  0.00  0.00     0.203 A 
ATOM      3  N   UNL d   1      52.881  34.063  54.200  0.00  0.00    -0.193 NA
ATOM      4  C   UNL d   1      52.799  34.845  53.945  0.00  0.00     0.234 A 
ATOM      5  S   UNL d   1      52.466  34.836  53.193  0.00  0.00     0.056 SA
ATOM      6  N   UNL d   1      53.016  35.512  54.374  0.00  0.00    -0.118 N 
ATOM      7  N   UNL d   1      52.339  34.049  52.976  0.00  0.00    -0.181 NA
ENDBRANCH   1   2
BRANCH   1   8
ATOM      8  C   UNL d   1      53.129  32.303  53.197  0.00  0.00     0.038 C 
BRANCH   8   9
ATOM      9  C   UNL d   1      53.149  31.484  53.262  0.00  0.00     0.007 A 
ATOM     10  C   UNL d   1      53.726  31.133  53.743  0.00  0.00     0.001 A 
ATOM     11  C   UNL d   1      53.751  30.306  53.811  0.00  0.00     0.000 A 
ATOM     12  C   UNL d   1      53.204  29.844  53.401  0.00  0.00     0.000 A 
ATOM     13  C   UNL d   1      52.629  30.207  52.920  0.00  0.00     0.000 A 
ATOM     14  C   UNL d   1      52.608  31.026  52.856  0.00  0.00     0.001 A 
ENDBRANCH   8   9
ENDBRANCH   1   8
TORSDOF 3
ENDMDL
MODEL 3
REMARK VINA RESULT:      -7.0      2.505      3.288
REMARK  3 active torsions:
REMARK  status: ('A' for Active; 'I' for Inactive)
REMARK    1  A    between atoms: S_6  and  C_2 
REMARK    2  A    between atoms: C_8  and  S_6 
REMARK    3  A    between atoms: C_9  and  C_8 
ROOT
ATOM      1  S   UNL d   1      52.493  34.181  53.337  0.00  0.00    -0.048 SA
ENDROOT
BRANCH   1   2
ATOM      2  C   UNL d   1      51.758  34.217  52.948  0.00  0.00     0.203 A 
ATOM      3  N   UNL d   1      51.050  34.477  53.280  0.00  0.00    -0.193 NA
ATOM      4  C   UNL d   1      50.462  34.419  52.701  0.00  0.00     0.234 A 
ATOM      5  S   UNL d   1      50.808  34.125  52.015  0.00  0.00     0.056 SA
ATOM      6  N   UNL d   1      49.672  34.623  52.800  0.00  0.00    -0.118 N 
ATOM      7  N   UNL d   1      51.610  33.998  52.163  0.00  0.00    -0.181 NA
ENDBRANCH   1   2
BRANCH   1   8
ATOM      8  C   UNL d   1      52.710  33.494  53.741  0.00  0.00     0.038 C 
BRANCH   8   9
ATOM      9  C   UNL d   1      53.445  33.442  54.104  0.00  0.00     0.007 A 
ATOM     10  C   UNL d   1      54.053  33.025  53.723  0.00  0.00     0.001 A 
ATOM     11  C   UNL d   1      54.797  32.970  54.086  0.00  0.00     0.000 A 
ATOM     12  C   UNL d   1      54.925  33.328  54.817  0.00  0.00     0.000 A 
ATOM     13  C   UNL d   1      54.308  33.745  55.191  0.00  0.00     0.000 A 
ATOM     14  C   UNL d   1      53.573  33.797  54.828  0.00  0.00     0.001 A 
ENDBRANCH   8   9
ENDBRANCH   1   8
TORSDOF 3
ENDMDL
MODEL 4
REMARK VINA RESULT:      -6.9      2.107      2.879
REMARK  3 active torsions:
REMARK  status: ('A' for Active; 'I' for Inactive)
REMARK    1  A    between atoms: S_6  and  C_2 
REMARK    2  A    between atoms: C_8  and  S_6 
REMARK    3  A    between atoms: C_9  and  C_8 
ROOT
ATOM      1  S   UNL d   1      52.680  33.873  54.073  0.00  0.00    -0.048 SA
ENDROOT
BRANCH   1   2
ATOM      2  C   UNL d   1      53.381  33.611  54.438  0.00  0.00     0.203 A 
ATOM      3  N   UNL d   1      54.021  34.085  54.650  0.00  0.00    -0.193 NA
ATOM      4  C   UNL d   1      54.594  33.599  54.995  0.00  0.00     0.234 A 
ATOM      5  S   UNL d   1      54.307  32.827  54.996  0.00  0.00     0.056 SA
ATOM      6  N   UNL d   1      55.321  33.848  55.285  0.00  0.00    -0.118 N 
ATOM      7  N   UNL d   1      53.556  32.830  54.652  0.00  0.00    -0.181 NA
ENDBRANCH   1   2
BRANCH   1   8
ATOM      8  C   UNL d   1      52.373  33.456  53.430  0.00  0.00     0.038 C 
BRANCH   8   9
ATOM      9  C   UNL d   1      51.708  33.734  53.036  0.00  0.00     0.007 A 
ATOM     10  C   UNL d   1      51.792  34.038  52.269  0.00  0.00     0.001 A 
ATOM     11  C   UNL d   1      51.122  34.319  51.868  0.00  0.00     0.000 A 
ATOM     12  C   UNL d   1      50.383  34.294  52.234  0.00  0.00     0.000 A 
ATOM     13  C   UNL d   1      50.310  33.986  53.005  0.00  0.00     0.000 A 
ATOM     14  C   UNL d   1      50.976  33.709  53.398  0.00  0.00     0.001 A 
ENDBRANCH   8   9
ENDBRANCH   1   8
TORSDOF 3
ENDMDL
MODEL 5
REMARK VINA RESULT:      -4.5      9.658     10.024
REMARK  3 active torsions:
REMARK  status: ('A' for Active; 'I' for Inactive)
REMARK    1  A    between atoms: S_6  and  C_2 
REMARK    2  A    between atoms: C_8  and  S_6 
REMARK    3  A    between atoms: C_9  and  C_8 
ROOT
ATOM      1  S   UNL d   1      45.088  29.054  58.245  0.00  0.00    -0.048 SA
ENDROOT
BRANCH   1   2
ATOM      2  C   UNL d   1      44.999  28.301  58.588  0.00  0.00     0.203 A 
ATOM      3  N   UNL d   1      45.289  27.593  58.281  0.00  0.00    -0.193 NA
ATOM      4  C   UNL d   1      45.074  26.985  58.798  0.00  0.00     0.234 A 
ATOM      5  S   UNL d   1      44.653  27.317  59.422  0.00  0.00     0.056 SA
ATOM      6  N   UNL d   1      45.254  26.189  58.700  0.00  0.00    -0.118 N 
ATOM      7  N   UNL d   1      44.604  28.131  59.296  0.00  0.00    -0.181 NA
ENDBRANCH   1   2
BRANCH   1   8
ATOM      8  C   UNL d   1      44.421  29.470  57.993  0.00  0.00     0.038 C 
BRANCH   8   9
ATOM      9  C   UNL d   1      44.504  30.200  57.624  0.00  0.00     0.007 A 
ATOM     10  C   UNL d   1      44.400  30.249  56.802  0.00  0.00     0.001 A 
ATOM     11  C   UNL d   1      44.483  30.983  56.425  0.00  0.00     0.000 A 
ATOM     12  C   UNL d   1      44.666  31.654  56.868  0.00  0.00     0.000 A 
ATOM     13  C   UNL d   1      44.768  31.594  57.693  0.00  0.00     0.000 A 
ATOM     14  C   UNL d   1      44.685  30.864  58.063  0.00  0.00     0.001 A 
ENDBRANCH   8   9
ENDBRANCH   1   8
TORSDOF 3
ENDMDL
