MODEL 1
REMARK VINA RESULT:      -4.3      0.000      0.000
REMARK  5 active torsions:
REMARK  status: ('A' for Active; 'I' for Inactive)
REMARK    1  A    between atoms: C_7  and  C_1 
REMARK       I    between atoms: C_3  and  N_8 
REMARK       I    between atoms: N_10  and  C_3 
REMARK    2  A    between atoms: N_8  and  C_6 
REMARK    3  A    between atoms: O_14  and  C_7 
REMARK    4  A    between atoms: C_13  and  N_10 
REMARK    5  A    between atoms: C_23  and  O_14 
ROOT
ATOM      1  C   UNL d   1      59.565  -1.781  29.221  0.00  0.00     0.083 A 
ATOM      2  N   UNL d   1      60.323  -0.579  29.122  0.00  0.00    -0.244 NA
ATOM      3  C   UNL d   1      60.270  -1.395  29.056  0.00  0.00     0.087 A 
ATOM      4  C   UNL d   1      58.908  -1.354  29.453  0.00  0.00     0.028 A 
ATOM      5  C   UNL d   1      58.951  -0.531  29.522  0.00  0.00     0.104 A 
ATOM      6  C   UNL d   1      59.655  -0.145  29.358  0.00  0.00     0.099 A 
ATOM      7  C   UNL d   1      60.937  -1.829  28.821  0.00  0.00     0.021 C 
ATOM      8  C   UNL d   1      59.702   0.682  29.427  0.00  0.00     0.022 C 
ENDROOT
BRANCH   5   9
ATOM      9  N   UNL d   1      58.283  -0.096  29.758  0.00  0.00    -0.189 NA
ATOM     10  C   UNL d   1      57.929  -0.241  30.482  0.00  0.00     0.369 C 
ATOM     11  N   UNL d   1      57.266   0.186  30.725  0.00  0.00    -0.191 NA
ATOM     12  O   UNL d   1      58.238  -0.826  30.986  0.00  0.00    -0.242 OA
BRANCH  11  13
ATOM     13  C   UNL d   1      56.917   0.040  31.445  0.00  0.00     0.086 A 
ATOM     14  C   UNL d   1      56.577  -0.697  31.595  0.00  0.00     0.020 A 
ATOM     15  C   UNL d   1      56.221  -0.841  32.332  0.00  0.00     0.008 A 
ATOM     16  C   UNL d   1      56.208  -0.251  32.908  0.00  0.00     0.035 A 
ATOM     17  C   UNL d   1      56.548   0.485  32.757  0.00  0.00     0.008 A 
ATOM     18 BR   UNL d   1      55.859  -0.397  33.628  0.00  0.00    -0.049 Br
ATOM     19  C   UNL d   1      56.904   0.635  32.026  0.00  0.00     0.020 A 
ENDBRANCH  11  13
ENDBRANCH   5   9
BRANCH   1  20
ATOM     20  C   UNL d   1      59.520  -2.598  29.152  0.00  0.00     0.302 C 
ATOM     21  O   UNL d   1      60.063  -3.068  29.534  0.00  0.00    -0.259 OA
BRANCH  20  22
ATOM     22  O   UNL d   1      58.932  -2.932  28.704  0.00  0.00    -0.271 OA
BRANCH  22  23
ATOM     23  C   UNL d   1      59.006  -3.707  28.457  0.00  0.00     0.126 C 
ATOM     24  C   UNL d   1      58.355  -4.209  28.478  0.00  0.00     0.029 C 
ENDBRANCH  22  23
ENDBRANCH  20  22
ENDBRANCH   1  20
TORSDOF 5
ENDMDL
MODEL 2
REMARK VINA RESULT:      -3.4      1.943      4.486
REMARK  5 active torsions:
REMARK  status: ('A' for Active; 'I' for Inactive)
REMARK    1  A    between atoms: C_7  and  C_1 
REMARK       I    between atoms: C_3  and  N_8 
REMARK       I    between atoms: N_10  and  C_3 
REMARK    2  A    between atoms: N_8  and  C_6 
REMARK    3  A    between atoms: O_14  and  C_7 
REMARK    4  A    between atoms: C_13  and  N_10 
REMARK    5  A    between atoms: C_23  and  O_14 
ROOT
ATOM      1  C   UNL d   1      57.155  -0.081  31.848  0.00  0.00     0.083 A 
ATOM      2  N   UNL d   1      58.358   0.680  31.837  0.00  0.00    -0.244 NA
ATOM      3  C   UNL d   1      57.682   0.423  32.223  0.00  0.00     0.087 A 
ATOM      4  C   UNL d   1      57.300  -0.332  31.085  0.00  0.00     0.028 A 
ATOM      5  C   UNL d   1      57.980  -0.079  30.686  0.00  0.00     0.104 A 
ATOM      6  C   UNL d   1      58.507   0.425  31.061  0.00  0.00     0.099 A 
ATOM      7  C   UNL d   1      57.533   0.678  32.999  0.00  0.00     0.021 C 
ATOM      8  C   UNL d   1      59.190   0.682  30.665  0.00  0.00     0.022 C 
ENDROOT
BRANCH   5   9
ATOM      9  N   UNL d   1      58.129  -0.334  29.910  0.00  0.00    -0.189 NA
ATOM     10  C   UNL d   1      58.426  -1.084  29.770  0.00  0.00     0.369 C 
ATOM     11  N   UNL d   1      58.577  -1.346  29.003  0.00  0.00    -0.191 NA
ATOM     12  O   UNL d   1      58.580  -1.595  30.408  0.00  0.00    -0.242 OA
BRANCH  11  13
ATOM     13  C   UNL d   1      58.872  -2.092  28.867  0.00  0.00     0.086 A 
ATOM     14  C   UNL d   1      58.358  -2.710  28.683  0.00  0.00     0.020 A 
ATOM     15  C   UNL d   1      58.664  -3.470  28.545  0.00  0.00     0.008 A 
ATOM     16  C   UNL d   1      59.477  -3.604  28.591  0.00  0.00     0.035 A 
ATOM     17  C   UNL d   1      59.990  -2.985  28.775  0.00  0.00     0.008 A 
ATOM     18 BR   UNL d   1      59.772  -4.350  28.455  0.00  0.00    -0.049 Br
ATOM     19  C   UNL d   1      59.692  -2.226  28.914  0.00  0.00     0.020 A 
ENDBRANCH  11  13
ENDBRANCH   5   9
BRANCH   1  20
ATOM     20  C   UNL d   1      56.480  -0.334  32.241  0.00  0.00     0.302 C 
ATOM     21  O   UNL d   1      55.945   0.211  32.520  0.00  0.00    -0.259 OA
BRANCH  20  22
ATOM     22  O   UNL d   1      56.351  -1.127  32.349  0.00  0.00    -0.271 OA
BRANCH  22  23
ATOM     23  C   UNL d   1      55.663  -1.377  32.711  0.00  0.00     0.126 C 
ATOM     24  C   UNL d   1      55.675  -2.031  33.209  0.00  0.00     0.029 C 
ENDBRANCH  22  23
ENDBRANCH  20  22
ENDBRANCH   1  20
TORSDOF 5
ENDMDL
