MODEL 1
REMARK VINA RESULT:      19.5      0.000      0.000
REMARK  4 active torsions:
REMARK  status: ('A' for Active; 'I' for Inactive)
REMARK    1  A    between atoms: S_6  and  C_2 
REMARK    2  A    between atoms: C_8  and  C_3 
REMARK    3  A    between atoms: C_10  and  S_6 
REMARK    4  A    between atoms: C_7  and  C_10 
ROOT
ATOM      1  N   UNL d   1     -56.818 -98.892 -44.222  0.00  0.00    -0.282 N 
ATOM      2  C   UNL d   1     -56.120 -98.882 -44.664  0.00  0.00     0.180 A 
ATOM      3  C   UNL d   1     -57.449 -98.815 -44.741  0.00  0.00     0.085 A 
ATOM      4  N   UNL d   1     -56.323 -98.798 -45.464  0.00  0.00    -0.219 NA
ATOM      5  C   UNL d   1     -57.152 -98.757 -45.506  0.00  0.00     0.119 A 
ATOM      6  C   UNL d   1     -56.864 -98.969 -43.378  0.00  0.00     0.101 C 
ENDROOT
BRANCH   3   7
ATOM      7  C   UNL d   1     -58.254 -98.796 -44.565  0.00  0.00     0.018 A 
ATOM      8  C   UNL d   1     -58.801 -98.794 -45.180  0.00  0.00     0.002 A 
ATOM      9  C   UNL d   1     -59.610 -98.774 -45.007  0.00  0.00     0.000 A 
ATOM     10  C   UNL d   1     -59.859 -98.756 -44.209  0.00  0.00     0.000 A 
ATOM     11  C   UNL d   1     -59.312 -98.759 -43.611  0.00  0.00     0.000 A 
ATOM     12  C   UNL d   1     -58.499 -98.779 -43.782  0.00  0.00     0.002 A 
ENDBRANCH   3   7
BRANCH   2  13
ATOM     13  S   UNL d   1     -55.342 -98.945 -44.364  0.00  0.00    -0.044 SA
BRANCH  13  14
ATOM     14  C   UNL d   1     -54.838 -99.539 -44.651  0.00  0.00     0.102 C 
BRANCH  14  15
ATOM     15  C   UNL d   1     -54.819-100.272 -44.282  0.00  0.00     0.303 C 
ATOM     16  O   UNL d   1     -54.721-100.308 -43.453  0.00  0.00    -0.263 OA
ATOM     17  N   UNL d   1     -54.896-100.960 -44.725  0.00  0.00    -0.102 N 
ENDBRANCH  14  15
ENDBRANCH  13  14
ENDBRANCH   2  13
TORSDOF 4
ENDMDL
