MODEL 1
REMARK VINA RESULT:      -8.1      0.000      0.000
REMARK  6 active torsions:
REMARK  status: ('A' for Active; 'I' for Inactive)
REMARK    1  A    between atoms: C_3  and  N_1 
REMARK    2  A    between atoms: C_2  and  N_5 
REMARK    3  A    between atoms: N_6  and  C_2 
REMARK    4  A    between atoms: N_5  and  N_9 
REMARK    5  A    between atoms: C_13  and  N_6 
REMARK    6  A    between atoms: N_9  and  C_12 
ROOT
ATOM      1  N   UNL d   1      52.730  32.497  53.403  0.00  0.00    -0.276 N 
ATOM      2  H   UNL d   1      52.066  32.011  53.456  0.00  0.00     0.189 HD
ENDROOT
BRANCH   1   3
ATOM      3  C   UNL d   1      53.489  32.156  53.490  0.00  0.00     0.191 C 
ATOM      4  S   UNL d   1      54.037  32.521  53.995  0.00  0.00    -0.039 SA
BRANCH   3   5
ATOM      5  N   UNL d   1      53.705  31.470  53.088  0.00  0.00    -0.331 N 
ATOM      6  H   UNL d   1      54.193  31.543  52.426  0.00  0.00     0.168 HD
BRANCH   5   7
ATOM      7  C   UNL d   1      53.444  30.727  53.335  0.00  0.00     0.058 A 
ATOM      8  C   UNL d   1      52.907  30.306  52.861  0.00  0.00     0.017 A 
ATOM      9  C   UNL d   1      52.646  29.572  53.101  0.00  0.00     0.002 A 
ATOM     10  C   UNL d   1      52.907  29.238  53.809  0.00  0.00     0.000 A 
ATOM     11  C   UNL d   1      53.444  29.658  54.283  0.00  0.00     0.002 A 
ATOM     12  C   UNL d   1      53.705  30.402  54.035  0.00  0.00     0.017 A 
ENDBRANCH   5   7
ENDBRANCH   3   5
ENDBRANCH   1   3
BRANCH   1  13
ATOM     13  N   UNL d   1      52.637  33.296  53.269  0.00  0.00    -0.297 N 
ATOM     14  H   UNL d   1      53.299  33.811  53.337  0.00  0.00     0.187 HD
BRANCH  13  15
ATOM     15  C   UNL d   1      51.890  33.622  53.062  0.00  0.00     0.072 A 
ATOM     16  C   UNL d   1      51.834  34.082  52.379  0.00  0.00     0.020 A 
ATOM     17  C   UNL d   1      51.121  34.413  52.152  0.00  0.00     0.025 A 
ATOM     18  C   UNL d   1      50.453  34.277  52.624  0.00  0.00     0.127 A 
ATOM     19  C   UNL d   1      50.509  33.817  53.307  0.00  0.00     0.025 A 
ATOM     20  C   UNL d   1      51.233  33.494  53.518  0.00  0.00     0.020 A 
BRANCH  18  21
ATOM     21  N   UNL d   1      49.698  34.623  52.389  0.00  0.00    -0.114 N 
ATOM     22  O   UNL d   1      49.385  34.445  51.647  0.00  0.00    -0.532 OA
ATOM     23  O   UNL d   1      49.317  35.121  52.915  0.00  0.00    -0.532 OA
ENDBRANCH  18  21
ENDBRANCH  13  15
ENDBRANCH   1  13
TORSDOF 6
ENDMDL
MODEL 2
REMARK VINA RESULT:      -7.8      1.430      2.292
REMARK  6 active torsions:
REMARK  status: ('A' for Active; 'I' for Inactive)
REMARK    1  A    between atoms: C_3  and  N_1 
REMARK    2  A    between atoms: C_2  and  N_5 
REMARK    3  A    between atoms: N_6  and  C_2 
REMARK    4  A    between atoms: N_5  and  N_9 
REMARK    5  A    between atoms: C_13  and  N_6 
REMARK    6  A    between atoms: N_9  and  C_12 
ROOT
ATOM      1  N   UNL d   1      52.741  32.760  53.338  0.00  0.00    -0.276 N 
ATOM      2  H   UNL d   1      52.637  33.270  53.979  0.00  0.00     0.189 HD
ENDROOT
BRANCH   1   3
ATOM      3  C   UNL d   1      53.391  32.234  53.342  0.00  0.00     0.191 C 
ATOM      4  S   UNL d   1      53.250  31.421  53.256  0.00  0.00    -0.039 SA
BRANCH   3   5
ATOM      5  N   UNL d   1      54.166  32.503  53.430  0.00  0.00    -0.331 N 
ATOM      6  H   UNL d   1      54.686  32.405  52.796  0.00  0.00     0.168 HD
BRANCH   5   7
ATOM      7  C   UNL d   1      54.421  32.860  54.129  0.00  0.00     0.058 A 
ATOM      8  C   UNL d   1      54.972  33.479  54.092  0.00  0.00     0.017 A 
ATOM      9  C   UNL d   1      55.228  33.835  54.779  0.00  0.00     0.002 A 
ATOM     10  C   UNL d   1      54.946  33.589  55.515  0.00  0.00     0.000 A 
ATOM     11  C   UNL d   1      54.395  32.969  55.553  0.00  0.00     0.002 A 
ATOM     12  C   UNL d   1      54.140  32.612  54.853  0.00  0.00     0.017 A 
ENDBRANCH   5   7
ENDBRANCH   3   5
ENDBRANCH   1   3
BRANCH   1  13
ATOM     13  N   UNL d   1      52.213  32.778  52.717  0.00  0.00    -0.297 N 
ATOM     14  H   UNL d   1      52.328  32.267  52.058  0.00  0.00     0.187 HD
BRANCH  13  15
ATOM     15  C   UNL d   1      51.552  33.296  52.717  0.00  0.00     0.072 A 
ATOM     16  C   UNL d   1      51.523  33.902  52.157  0.00  0.00     0.020 A 
ATOM     17  C   UNL d   1      50.891  34.422  52.132  0.00  0.00     0.025 A 
ATOM     18  C   UNL d   1      50.279  34.328  52.683  0.00  0.00     0.127 A 
ATOM     19  C   UNL d   1      50.308  33.723  53.243  0.00  0.00     0.025 A 
ATOM     20  C   UNL d   1      50.950  33.211  53.252  0.00  0.00     0.020 A 
BRANCH  18  21
ATOM     21  N   UNL d   1      49.611  34.874  52.661  0.00  0.00    -0.114 N 
ATOM     22  O   UNL d   1      49.503  35.405  53.283  0.00  0.00    -0.532 OA
ATOM     23  O   UNL d   1      49.104  34.845  52.019  0.00  0.00    -0.532 OA
ENDBRANCH  18  21
ENDBRANCH  13  15
ENDBRANCH   1  13
TORSDOF 6
ENDMDL
MODEL 3
REMARK VINA RESULT:      -7.2      2.436      4.624
REMARK  6 active torsions:
REMARK  status: ('A' for Active; 'I' for Inactive)
REMARK    1  A    between atoms: C_3  and  N_1 
REMARK    2  A    between atoms: C_2  and  N_5 
REMARK    3  A    between atoms: N_6  and  C_2 
REMARK    4  A    between atoms: N_5  and  N_9 
REMARK    5  A    between atoms: C_13  and  N_6 
REMARK    6  A    between atoms: N_9  and  C_12 
ROOT
ATOM      1  N   UNL d   1      52.629  33.020  53.366  0.00  0.00    -0.276 N 
ATOM      2  H   UNL d   1      51.881  32.678  53.430  0.00  0.00     0.189 HD
ENDROOT
BRANCH   1   3
ATOM      3  C   UNL d   1      52.689  33.852  53.305  0.00  0.00     0.191 C 
ATOM      4  S   UNL d   1      53.113  34.267  53.884  0.00  0.00    -0.039 SA
BRANCH   3   5
ATOM      5  N   UNL d   1      52.338  34.268  52.685  0.00  0.00    -0.331 N 
ATOM      6  H   UNL d   1      52.831  34.616  52.122  0.00  0.00     0.168 HD
BRANCH   5   7
ATOM      7  C   UNL d   1      51.518  34.337  52.624  0.00  0.00     0.058 A 
ATOM      8  C   UNL d   1      51.152  34.197  51.892  0.00  0.00     0.017 A 
ATOM      9  C   UNL d   1      50.342  34.264  51.826  0.00  0.00     0.002 A 
ATOM     10  C   UNL d   1      49.878  34.470  52.477  0.00  0.00     0.000 A 
ATOM     11  C   UNL d   1      50.244  34.610  53.209  0.00  0.00     0.002 A 
ATOM     12  C   UNL d   1      51.064  34.540  53.270  0.00  0.00     0.017 A 
ENDBRANCH   5   7
ENDBRANCH   3   5
ENDBRANCH   1   3
BRANCH   1  13
ATOM     13  N   UNL d   1      53.292  32.545  53.364  0.00  0.00    -0.297 N 
ATOM     14  H   UNL d   1      54.052  32.891  53.263  0.00  0.00     0.187 HD
BRANCH  13  15
ATOM     15  C   UNL d   1      53.236  31.712  53.460  0.00  0.00     0.072 A 
ATOM     16  C   UNL d   1      53.539  31.372  54.148  0.00  0.00     0.020 A 
ATOM     17  C   UNL d   1      53.500  30.563  54.270  0.00  0.00     0.025 A 
ATOM     18  C   UNL d   1      53.147  30.092  53.686  0.00  0.00     0.127 A 
ATOM     19  C   UNL d   1      52.844  30.432  52.999  0.00  0.00     0.025 A 
ATOM     20  C   UNL d   1      52.894  31.245  52.895  0.00  0.00     0.020 A 
BRANCH  18  21
ATOM     21  N   UNL d   1      53.103  29.239  53.810  0.00  0.00    -0.114 N 
ATOM     22  O   UNL d   1      53.464  28.907  54.474  0.00  0.00    -0.532 OA
ATOM     23  O   UNL d   1      52.702  28.785  53.260  0.00  0.00    -0.532 OA
ENDBRANCH  18  21
ENDBRANCH  13  15
ENDBRANCH   1  13
TORSDOF 6
ENDMDL
MODEL 4
REMARK VINA RESULT:      -6.9      1.818      2.569
REMARK  6 active torsions:
REMARK  status: ('A' for Active; 'I' for Inactive)
REMARK    1  A    between atoms: C_3  and  N_1 
REMARK    2  A    between atoms: C_2  and  N_5 
REMARK    3  A    between atoms: N_6  and  C_2 
REMARK    4  A    between atoms: N_5  and  N_9 
REMARK    5  A    between atoms: C_13  and  N_6 
REMARK    6  A    between atoms: N_9  and  C_12 
ROOT
ATOM      1  N   UNL d   1      51.453  34.191  53.150  0.00  0.00    -0.276 N 
ATOM      2  H   UNL d   1      51.478  33.728  52.468  0.00  0.00     0.189 HD
ENDROOT
BRANCH   1   3
ATOM      3  C   UNL d   1      52.106  34.175  53.673  0.00  0.00     0.191 C 
ATOM      4  S   UNL d   1      52.575  34.855  53.750  0.00  0.00    -0.039 SA
BRANCH   3   5
ATOM      5  N   UNL d   1      52.294  33.502  54.112  0.00  0.00    -0.331 N 
ATOM      6  H   UNL d   1      51.760  33.252  54.689  0.00  0.00     0.168 HD
BRANCH   5   7
ATOM      7  C   UNL d   1      52.996  33.087  53.982  0.00  0.00     0.058 A 
ATOM      8  C   UNL d   1      53.674  33.289  54.416  0.00  0.00     0.017 A 
ATOM      9  C   UNL d   1      54.369  32.882  54.291  0.00  0.00     0.002 A 
ATOM     10  C   UNL d   1      54.410  32.270  53.740  0.00  0.00     0.000 A 
ATOM     11  C   UNL d   1      53.732  32.067  53.306  0.00  0.00     0.002 A 
ATOM     12  C   UNL d   1      53.031  32.482  53.436  0.00  0.00     0.017 A 
ENDBRANCH   5   7
ENDBRANCH   3   5
ENDBRANCH   1   3
BRANCH   1  13
ATOM     13  N   UNL d   1      50.798  34.652  53.303  0.00  0.00    -0.297 N 
ATOM     14  H   UNL d   1      50.765  35.109  54.009  0.00  0.00     0.187 HD
BRANCH  13  15
ATOM     15  C   UNL d   1      50.149  34.684  52.770  0.00  0.00     0.072 A 
ATOM     16  C   UNL d   1      49.446  35.033  53.023  0.00  0.00     0.020 A 
ATOM     17  C   UNL d   1      48.797  35.079  52.526  0.00  0.00     0.025 A 
ATOM     18  C   UNL d   1      48.861  34.767  51.761  0.00  0.00     0.127 A 
ATOM     19  C   UNL d   1      49.564  34.418  51.508  0.00  0.00     0.025 A 
ATOM     20  C   UNL d   1      50.204  34.381  52.021  0.00  0.00     0.020 A 
BRANCH  18  21
ATOM     21  N   UNL d   1      48.179  34.812  51.233  0.00  0.00    -0.114 N 
ATOM     22  O   UNL d   1      47.651  35.442  51.310  0.00  0.00    -0.532 OA
ATOM     23  O   UNL d   1      48.081  34.225  50.672  0.00  0.00    -0.532 OA
ENDBRANCH  18  21
ENDBRANCH  13  15
ENDBRANCH   1  13
TORSDOF 6
ENDMDL
MODEL 5
REMARK VINA RESULT:      -6.8      2.117      2.595
REMARK  6 active torsions:
REMARK  status: ('A' for Active; 'I' for Inactive)
REMARK    1  A    between atoms: C_3  and  N_1 
REMARK    2  A    between atoms: C_2  and  N_5 
REMARK    3  A    between atoms: N_6  and  C_2 
REMARK    4  A    between atoms: N_5  and  N_9 
REMARK    5  A    between atoms: C_13  and  N_6 
REMARK    6  A    between atoms: N_9  and  C_12 
ROOT
ATOM      1  N   UNL d   1      53.071  31.585  53.684  0.00  0.00    -0.276 N 
ATOM      2  H   UNL d   1      53.178  31.601  54.502  0.00  0.00     0.189 HD
ENDROOT
BRANCH   1   3
ATOM      3  C   UNL d   1      52.933  30.851  53.309  0.00  0.00     0.191 C 
ATOM      4  S   UNL d   1      53.234  30.728  52.545  0.00  0.00    -0.039 SA
BRANCH   3   5
ATOM      5  N   UNL d   1      52.508  30.248  53.677  0.00  0.00    -0.331 N 
ATOM      6  H   UNL d   1      51.688  30.239  53.587  0.00  0.00     0.168 HD
BRANCH   5   7
ATOM      7  C   UNL d   1      52.886  29.666  54.125  0.00  0.00     0.058 A 
ATOM      8  C   UNL d   1      52.832  29.691  54.952  0.00  0.00     0.017 A 
ATOM      9  C   UNL d   1      53.204  29.120  55.399  0.00  0.00     0.002 A 
ATOM     10  C   UNL d   1      53.635  28.514  55.041  0.00  0.00     0.000 A 
ATOM     11  C   UNL d   1      53.689  28.489  54.213  0.00  0.00     0.002 A 
ATOM     12  C   UNL d   1      53.311  29.070  53.765  0.00  0.00     0.017 A 
ENDBRANCH   5   7
ENDBRANCH   3   5
ENDBRANCH   1   3
BRANCH   1  13
ATOM     13  N   UNL d   1      53.102  32.280  53.260  0.00  0.00    -0.297 N 
ATOM     14  H   UNL d   1      53.099  32.255  52.418  0.00  0.00     0.187 HD
BRANCH  13  15
ATOM     15  C   UNL d   1      53.136  33.028  53.642  0.00  0.00     0.072 A 
ATOM     16  C   UNL d   1      52.506  33.552  53.545  0.00  0.00     0.020 A 
ATOM     17  C   UNL d   1      52.511  34.287  53.905  0.00  0.00     0.025 A 
ATOM     18  C   UNL d   1      53.165  34.496  54.370  0.00  0.00     0.127 A 
ATOM     19  C   UNL d   1      53.795  33.972  54.467  0.00  0.00     0.025 A 
ATOM     20  C   UNL d   1      53.771  33.239  54.098  0.00  0.00     0.020 A 
BRANCH  18  21
ATOM     21  N   UNL d   1      53.175  35.270  54.752  0.00  0.00    -0.114 N 
ATOM     22  O   UNL d   1      53.132  35.950  54.287  0.00  0.00    -0.532 OA
ATOM     23  O   UNL d   1      53.228  35.302  55.568  0.00  0.00    -0.532 OA
ENDBRANCH  18  21
ENDBRANCH  13  15
ENDBRANCH   1  13
TORSDOF 6
ENDMDL
