MODEL 1
REMARK VINA RESULT:      -9.4      0.000      0.000
REMARK  2 active torsions:
REMARK  status: ('A' for Active; 'I' for Inactive)
REMARK    1  A    between atoms: C_2  and  N_1 
REMARK    2  A    between atoms: C_4  and  C_7 
ROOT
ATOM      1  C   UNL d   1      53.326  30.478  53.723  0.00  0.00     0.146 A 
ATOM      2  C   UNL d   1      53.738  31.067  54.128  0.00  0.00     0.027 A 
ATOM      3  C   UNL d   1      53.635  31.874  53.916  0.00  0.00     0.021 A 
ATOM      4  C   UNL d   1      52.814  30.682  53.109  0.00  0.00     0.125 A 
ATOM      5  C   UNL d   1      53.124  32.070  53.304  0.00  0.00     0.003 A 
ATOM      6  C   UNL d   1      52.712  31.488  52.897  0.00  0.00     0.023 A 
ATOM      7  N   UNL d   1      52.400  30.092  52.702  0.00  0.00    -0.146 N 
ENDROOT
BRANCH   3   8
ATOM      8  C   UNL d   1      54.048  32.455  54.322  0.00  0.00     0.103 A 
ATOM      9  N   UNL d   1      53.881  32.623  55.116  0.00  0.00    -0.145 NA
ATOM     10  N   UNL d   1      54.293  33.204  55.523  0.00  0.00    -0.106 NA
ATOM     11  C   UNL d   1      54.886  33.630  55.135  0.00  0.00     0.297 A 
ATOM     12  C   UNL d   1      55.059  33.467  54.338  0.00  0.00     0.066 A 
ATOM     13  O   UNL d   1      55.305  34.216  55.538  0.00  0.00    -0.264 OA
ATOM     14  C   UNL d   1      54.640  32.881  53.935  0.00  0.00     0.024 A 
ATOM     15  C   UNL d   1      54.815  32.719  53.141  0.00  0.00     0.002 C 
ENDBRANCH   3   8
BRANCH   1  16
ATOM     16  N   UNL d   1      53.427  29.684  53.932  0.00  0.00    -0.112 N 
ATOM     17  O   UNL d   1      54.061  29.255  53.627  0.00  0.00    -0.532 OA
ATOM     18  O   UNL d   1      52.892  29.322  54.445  0.00  0.00    -0.532 OA
ENDBRANCH   1  16
TORSDOF 2
ENDMDL
MODEL 2
REMARK VINA RESULT:      -8.9      2.698      3.591
REMARK  2 active torsions:
REMARK  status: ('A' for Active; 'I' for Inactive)
REMARK    1  A    between atoms: C_2  and  N_1 
REMARK    2  A    between atoms: C_4  and  C_7 
ROOT
ATOM      1  C   UNL d   1      53.940  32.941  53.987  0.00  0.00     0.146 A 
ATOM      2  C   UNL d   1      53.227  33.087  53.600  0.00  0.00     0.027 A 
ATOM      3  C   UNL d   1      52.697  33.667  53.899  0.00  0.00     0.021 A 
ATOM      4  C   UNL d   1      54.133  33.364  54.669  0.00  0.00     0.125 A 
ATOM      5  C   UNL d   1      52.895  34.085  54.578  0.00  0.00     0.003 A 
ATOM      6  C   UNL d   1      53.603  33.944  54.968  0.00  0.00     0.023 A 
ATOM      7  N   UNL d   1      54.849  33.218  55.059  0.00  0.00    -0.146 N 
ENDROOT
BRANCH   3   8
ATOM      8  C   UNL d   1      51.989  33.808  53.509  0.00  0.00     0.103 A 
ATOM      9  N   UNL d   1      51.326  33.328  53.637  0.00  0.00    -0.145 NA
ATOM     10  N   UNL d   1      50.618  33.469  53.247  0.00  0.00    -0.106 NA
ATOM     11  C   UNL d   1      50.563  34.100  52.717  0.00  0.00     0.297 A 
ATOM     12  C   UNL d   1      51.225  34.587  52.584  0.00  0.00     0.066 A 
ATOM     13  O   UNL d   1      49.854  34.248  52.321  0.00  0.00    -0.264 OA
ATOM     14  C   UNL d   1      51.934  34.439  52.979  0.00  0.00     0.024 A 
ATOM     15  C   UNL d   1      52.592  34.925  52.845  0.00  0.00     0.002 C 
ENDBRANCH   3   8
BRANCH   1  16
ATOM     16  N   UNL d   1      54.461  32.370  53.693  0.00  0.00    -0.112 N 
ATOM     17  O   UNL d   1      55.141  32.602  53.288  0.00  0.00    -0.532 OA
ATOM     18  O   UNL d   1      54.302  31.569  53.805  0.00  0.00    -0.532 OA
ENDBRANCH   1  16
TORSDOF 2
ENDMDL
MODEL 3
REMARK VINA RESULT:      -8.7      2.589      2.999
REMARK  2 active torsions:
REMARK  status: ('A' for Active; 'I' for Inactive)
REMARK    1  A    between atoms: C_2  and  N_1 
REMARK    2  A    between atoms: C_4  and  C_7 
ROOT
ATOM      1  C   UNL d   1      51.528  33.745  53.199  0.00  0.00     0.146 A 
ATOM      2  C   UNL d   1      52.148  33.680  53.739  0.00  0.00     0.027 A 
ATOM      3  C   UNL d   1      52.890  34.037  53.573  0.00  0.00     0.021 A 
ATOM      4  C   UNL d   1      51.638  34.160  52.495  0.00  0.00     0.125 A 
ATOM      5  C   UNL d   1      52.993  34.449  52.870  0.00  0.00     0.003 A 
ATOM      6  C   UNL d   1      52.380  34.517  52.328  0.00  0.00     0.023 A 
ATOM      7  N   UNL d   1      51.016  34.226  51.951  0.00  0.00    -0.146 N 
ENDROOT
BRANCH   3   8
ATOM      8  C   UNL d   1      53.503  33.969  54.115  0.00  0.00     0.103 A 
ATOM      9  N   UNL d   1      53.578  34.499  54.745  0.00  0.00    -0.145 NA
ATOM     10  N   UNL d   1      54.190  34.431  55.287  0.00  0.00    -0.106 NA
ATOM     11  C   UNL d   1      54.743  33.823  55.203  0.00  0.00     0.297 A 
ATOM     12  C   UNL d   1      54.674  33.286  54.571  0.00  0.00     0.066 A 
ATOM     13  O   UNL d   1      55.362  33.748  55.744  0.00  0.00    -0.264 OA
ATOM     14  C   UNL d   1      54.056  33.361  54.030  0.00  0.00     0.024 A 
ATOM     15  C   UNL d   1      53.989  32.824  53.402  0.00  0.00     0.002 C 
ENDBRANCH   3   8
BRANCH   1  16
ATOM     16  N   UNL d   1      50.797  33.393  53.363  0.00  0.00    -0.112 N 
ATOM     17  O   UNL d   1      50.156  33.860  53.589  0.00  0.00    -0.532 OA
ATOM     18  O   UNL d   1      50.709  32.576  53.301  0.00  0.00    -0.532 OA
ENDBRANCH   1  16
TORSDOF 2
ENDMDL
MODEL 4
REMARK VINA RESULT:      -8.6      2.307      3.810
REMARK  2 active torsions:
REMARK  status: ('A' for Active; 'I' for Inactive)
REMARK    1  A    between atoms: C_2  and  N_1 
REMARK    2  A    between atoms: C_4  and  C_7 
ROOT
ATOM      1  C   UNL d   1      52.172  33.759  52.968  0.00  0.00     0.146 A 
ATOM      2  C   UNL d   1      52.224  32.935  52.986  0.00  0.00     0.027 A 
ATOM      3  C   UNL d   1      52.947  32.564  53.199  0.00  0.00     0.021 A 
ATOM      4  C   UNL d   1      52.831  34.216  53.158  0.00  0.00     0.125 A 
ATOM      5  C   UNL d   1      53.599  33.026  53.387  0.00  0.00     0.003 A 
ATOM      6  C   UNL d   1      53.554  33.845  53.370  0.00  0.00     0.023 A 
ATOM      7  N   UNL d   1      52.781  35.043  53.140  0.00  0.00    -0.146 N 
ENDROOT
BRANCH   3   8
ATOM      8  C   UNL d   1      52.991  31.745  53.215  0.00  0.00     0.103 A 
ATOM      9  N   UNL d   1      52.716  31.288  52.582  0.00  0.00    -0.145 NA
ATOM     10  N   UNL d   1      52.761  30.468  52.598  0.00  0.00    -0.106 NA
ATOM     11  C   UNL d   1      53.086  30.091  53.258  0.00  0.00     0.297 A 
ATOM     12  C   UNL d   1      53.365  30.544  53.898  0.00  0.00     0.066 A 
ATOM     13  O   UNL d   1      53.134  29.268  53.281  0.00  0.00    -0.264 OA
ATOM     14  C   UNL d   1      53.316  31.368  53.874  0.00  0.00     0.024 A 
ATOM     15  C   UNL d   1      53.594  31.817  54.513  0.00  0.00     0.002 C 
ENDBRANCH   3   8
BRANCH   1  16
ATOM     16  N   UNL d   1      51.460  34.124  52.759  0.00  0.00    -0.112 N 
ATOM     17  O   UNL d   1      51.319  34.334  51.974  0.00  0.00    -0.532 OA
ATOM     18  O   UNL d   1      50.891  34.279  53.335  0.00  0.00    -0.532 OA
ENDBRANCH   1  16
TORSDOF 2
ENDMDL
MODEL 5
REMARK VINA RESULT:      -8.5      1.868      2.200
REMARK  2 active torsions:
REMARK  status: ('A' for Active; 'I' for Inactive)
REMARK    1  A    between atoms: C_2  and  N_1 
REMARK    2  A    between atoms: C_4  and  C_7 
ROOT
ATOM      1  C   UNL d   1      53.103  31.781  53.268  0.00  0.00     0.146 A 
ATOM      2  C   UNL d   1      52.935  32.564  53.462  0.00  0.00     0.027 A 
ATOM      3  C   UNL d   1      53.528  33.049  53.808  0.00  0.00     0.021 A 
ATOM      4  C   UNL d   1      53.854  31.473  53.413  0.00  0.00     0.125 A 
ATOM      5  C   UNL d   1      54.273  32.736  53.950  0.00  0.00     0.003 A 
ATOM      6  C   UNL d   1      54.447  31.957  53.759  0.00  0.00     0.023 A 
ATOM      7  N   UNL d   1      54.025  30.686  53.219  0.00  0.00    -0.146 N 
ENDROOT
BRANCH   3   8
ATOM      8  C   UNL d   1      53.354  33.828  53.999  0.00  0.00     0.103 A 
ATOM      9  N   UNL d   1      53.031  34.344  53.438  0.00  0.00    -0.145 NA
ATOM     10  N   UNL d   1      52.857  35.123  53.629  0.00  0.00    -0.106 NA
ATOM     11  C   UNL d   1      53.006  35.399  54.394  0.00  0.00     0.297 A 
ATOM     12  C   UNL d   1      53.330  34.885  54.963  0.00  0.00     0.066 A 
ATOM     13  O   UNL d   1      52.834  36.181  54.593  0.00  0.00    -0.264 OA
ATOM     14  C   UNL d   1      53.502  34.103  54.763  0.00  0.00     0.024 A 
ATOM     15  C   UNL d   1      53.825  33.593  55.331  0.00  0.00     0.002 C 
ENDBRANCH   3   8
BRANCH   1  16
ATOM     16  N   UNL d   1      52.519  31.304  52.927  0.00  0.00    -0.112 N 
ATOM     17  O   UNL d   1      52.543  31.134  52.121  0.00  0.00    -0.532 OA
ATOM     18  O   UNL d   1      51.912  30.998  53.394  0.00  0.00    -0.532 OA
ENDBRANCH   1  16
TORSDOF 2
ENDMDL
MODEL 6
REMARK VINA RESULT:      -8.5      1.019      3.605
REMARK  2 active torsions:
REMARK  status: ('A' for Active; 'I' for Inactive)
REMARK    1  A    between atoms: C_2  and  N_1 
REMARK    2  A    between atoms: C_4  and  C_7 
ROOT
ATOM      1  C   UNL d   1      54.316  33.446  54.658  0.00  0.00     0.146 A 
ATOM      2  C   UNL d   1      54.180  32.670  54.411  0.00  0.00     0.027 A 
ATOM      3  C   UNL d   1      53.424  32.447  54.122  0.00  0.00     0.021 A 
ATOM      4  C   UNL d   1      53.707  34.001  54.621  0.00  0.00     0.125 A 
ATOM      5  C   UNL d   1      52.822  33.005  54.088  0.00  0.00     0.003 A 
ATOM      6  C   UNL d   1      52.951  33.778  54.332  0.00  0.00     0.023 A 
ATOM      7  N   UNL d   1      53.841  34.780  54.869  0.00  0.00    -0.146 N 
ENDROOT
BRANCH   3   8
ATOM      8  C   UNL d   1      53.295  31.674  53.877  0.00  0.00     0.103 A 
ATOM      9  N   UNL d   1      53.494  31.033  54.362  0.00  0.00    -0.145 NA
ATOM     10  N   UNL d   1      53.366  30.260  54.117  0.00  0.00    -0.106 NA
ATOM     11  C   UNL d   1      53.033  30.117  53.375  0.00  0.00     0.297 A 
ATOM     12  C   UNL d   1      52.830  30.757  52.882  0.00  0.00     0.066 A 
ATOM     13  O   UNL d   1      52.901  29.343  53.123  0.00  0.00    -0.264 OA
ATOM     14  C   UNL d   1      52.962  31.531  53.135  0.00  0.00     0.024 A 
ATOM     15  C   UNL d   1      52.760  32.167  52.643  0.00  0.00     0.002 C 
ENDBRANCH   3   8
BRANCH   1  16
ATOM     16  N   UNL d   1      55.060  33.665  54.942  0.00  0.00    -0.112 N 
ATOM     17  O   UNL d   1      55.178  33.772  55.752  0.00  0.00    -0.532 OA
ATOM     18  O   UNL d   1      55.686  33.778  54.417  0.00  0.00    -0.532 OA
ENDBRANCH   1  16
TORSDOF 2
ENDMDL
