MODEL 1
REMARK VINA RESULT:      22.9      0.000      0.000
REMARK  3 active torsions:
REMARK  status: ('A' for Active; 'I' for Inactive)
REMARK    1  A    between atoms: C_8  and  C_1 
REMARK    2  A    between atoms: C_9  and  C_4 
REMARK    3  A    between atoms: O_20  and  C_8 
ROOT
ATOM      1  C   UNL d   1      46.056 -18.745  42.502  0.00  0.00     0.107 A 
ATOM      2  C   UNL d   1      45.863 -18.099  42.010  0.00  0.00     0.208 A 
ATOM      3  C   UNL d   1      46.023 -17.877  43.653  0.00  0.00     0.062 A 
ATOM      4  C   UNL d   1      46.133 -18.617  43.332  0.00  0.00     0.020 A 
ATOM      5  C   UNL d   1      45.831 -17.231  43.161  0.00  0.00     0.101 A 
ATOM      6  O   UNL d   1      45.749 -17.328  42.350  0.00  0.00    -0.288 OA
ATOM      7  C   UNL d   1      46.102 -17.768  44.460  0.00  0.00     0.194 A 
ATOM      8  C   UNL d   1      45.718 -16.478  43.477  0.00  0.00     0.002 A 
ATOM      9  C   UNL d   1      45.799 -16.378  44.294  0.00  0.00     0.042 A 
ATOM     10  C   UNL d   1      45.991 -17.023  44.786  0.00  0.00     0.019 A 
ATOM     11  O   UNL d   1      46.295 -18.416  44.954  0.00  0.00    -0.287 OA
ATOM     12  N   UNL d   1      45.783 -18.213  41.175  0.00  0.00    -0.121 N 
ATOM     13  C   UNL d   1      45.763 -15.830  44.892  0.00  0.00     0.009 C 
ATOM     14  C   UNL d   1      45.609 -15.646  43.958  0.00  0.00     0.009 C 
ENDROOT
BRANCH   4  15
ATOM     15  C   UNL d   1      46.320 -19.240  43.820  0.00  0.00     0.030 A 
ATOM     16  S   UNL d   1      46.560 -20.147  43.676  0.00  0.00    -0.086 SA
ATOM     17  C   UNL d   1      46.647 -20.330  44.659  0.00  0.00     0.035 A 
ATOM     18  C   UNL d   1      46.487 -19.698  44.945  0.00  0.00     0.007 A 
ATOM     19  C   UNL d   1      46.323 -19.150  44.519  0.00  0.00     0.007 A 
ENDBRANCH   4  15
BRANCH   1  20
ATOM     20  C   UNL d   1      46.166 -19.502  42.158  0.00  0.00     0.299 C 
ATOM     21  O   UNL d   1      45.792 -20.181  42.478  0.00  0.00    -0.259 OA
BRANCH  20  22
ATOM     22  O   UNL d   1      46.645 -19.602  41.496  0.00  0.00    -0.296 OA
ATOM     23  C   UNL d   1      46.597 -20.299  41.021  0.00  0.00     0.185 C 
ENDBRANCH  20  22
ENDBRANCH   1  20
TORSDOF 3
ENDMDL
MODEL 2
REMARK VINA RESULT:      24.3      0.975      3.100
REMARK  3 active torsions:
REMARK  status: ('A' for Active; 'I' for Inactive)
REMARK    1  A    between atoms: C_8  and  C_1 
REMARK    2  A    between atoms: C_9  and  C_4 
REMARK    3  A    between atoms: O_20  and  C_8 
ROOT
ATOM      1  C   UNL d   1      46.343 -17.833  43.404  0.00  0.00     0.107 A 
ATOM      2  C   UNL d   1      46.374 -17.301  42.763  0.00  0.00     0.208 A 
ATOM      3  C   UNL d   1      46.449 -18.943  42.490  0.00  0.00     0.062 A 
ATOM      4  C   UNL d   1      46.381 -18.662  43.251  0.00  0.00     0.020 A 
ATOM      5  C   UNL d   1      46.480 -18.411  41.848  0.00  0.00     0.101 A 
ATOM      6  O   UNL d   1      46.444 -17.600  41.969  0.00  0.00    -0.288 OA
ATOM      7  C   UNL d   1      46.485 -19.749  42.355  0.00  0.00     0.194 A 
ATOM      8  C   UNL d   1      46.548 -18.686  41.074  0.00  0.00     0.002 A 
ATOM      9  C   UNL d   1      46.584 -19.503  40.948  0.00  0.00     0.042 A 
ATOM     10  C   UNL d   1      46.553 -20.035  41.590  0.00  0.00     0.019 A 
ATOM     11  O   UNL d   1      46.454 -20.283  43.000  0.00  0.00    -0.287 OA
ATOM     12  N   UNL d   1      46.336 -16.468  42.902  0.00  0.00    -0.121 N 
ATOM     13  C   UNL d   1      46.647 -20.074  40.374  0.00  0.00     0.009 C 
ATOM     14  C   UNL d   1      46.628 -19.124  40.215  0.00  0.00     0.009 C 
ENDROOT
BRANCH   4  15
ATOM     15  C   UNL d   1      46.352 -19.188  43.870  0.00  0.00     0.030 A 
ATOM     16  S   UNL d   1      46.636 -19.165  44.775  0.00  0.00    -0.086 SA
ATOM     17  C   UNL d   1      46.304 -20.095  44.952  0.00  0.00     0.035 A 
ATOM     18  C   UNL d   1      46.035 -20.284  44.321  0.00  0.00     0.007 A 
ATOM     19  C   UNL d   1      46.060 -19.823  43.777  0.00  0.00     0.007 A 
ENDBRANCH   4  15
BRANCH   1  20
ATOM     20  C   UNL d   1      46.273 -17.530  44.184  0.00  0.00     0.299 C 
ATOM     21  O   UNL d   1      46.358 -18.030  44.851  0.00  0.00    -0.259 OA
BRANCH  20  22
ATOM     22  O   UNL d   1      46.120 -16.732  44.317  0.00  0.00    -0.296 OA
ATOM     23  C   UNL d   1      45.506 -16.485  44.843  0.00  0.00     0.185 C 
ENDBRANCH  20  22
ENDBRANCH   1  20
TORSDOF 3
ENDMDL
