MODEL 1
REMARK VINA RESULT:      -2.3      0.000      0.000
REMARK  7 active torsions:
REMARK  status: ('A' for Active; 'I' for Inactive)
REMARK       I    between atoms: N_2  and  C_1 
REMARK    1  A    between atoms: C_5  and  N_2 
REMARK    2  A    between atoms: N_4  and  C_9 
REMARK    3  A    between atoms: C_16  and  N_4 
REMARK    4  A    between atoms: O_6  and  C_8 
REMARK    5  A    between atoms: C_10  and  O_6 
REMARK    6  A    between atoms: C_7  and  C_10 
REMARK    7  A    between atoms: C_9  and  C_7 
ROOT
ATOM      1  C   UNL d   1      29.347  15.882 -24.034  0.00  0.00     0.085 A 
ATOM      2  C   UNL d   1      30.875  16.494 -24.076  0.00  0.00     0.100 A 
ATOM      3  C   UNL d   1      29.503  16.570 -24.458  0.00  0.00     0.021 A 
ATOM      4  C   UNL d   1      29.952  15.493 -23.628  0.00  0.00     0.021 A 
ATOM      5  C   UNL d   1      30.718  15.799 -23.648  0.00  0.00     0.026 A 
ATOM      6  C   UNL d   1      30.264  16.877 -24.479  0.00  0.00     0.026 A 
ENDROOT
BRANCH   2   7
ATOM      7  O   UNL d   1      31.637  16.801 -24.097  0.00  0.00    -0.302 OA
BRANCH   7   8
ATOM      8  C   UNL d   1      31.879  17.349 -23.531  0.00  0.00     0.166 C 
BRANCH   8   9
ATOM      9  C   UNL d   1      32.630  17.685 -23.589  0.00  0.00     0.239 C 
ATOM     10  O   UNL d   1      33.241  17.248 -23.929  0.00  0.00    -0.283 OA
BRANCH   9  11
ATOM     11  C   UNL d   1      32.772  18.445 -23.313  0.00  0.00     0.143 C 
BRANCH  11  12
ATOM     12  N   UNL d   1      33.092  18.560 -22.561  0.00  0.00    -0.241 NA
BRANCH  12  13
ATOM     13  C   UNL d   1      33.169  19.317 -22.261  0.00  0.00     0.082 C 
ATOM     14  C   UNL d   1      33.215  19.427 -21.440  0.00  0.00     0.021 C 
ATOM     15  C   UNL d   1      33.203  19.963 -22.771  0.00  0.00     0.021 C 
ENDBRANCH  12  13
ENDBRANCH  11  12
ENDBRANCH   9  11
ENDBRANCH   8   9
ENDBRANCH   7   8
ENDBRANCH   2   7
BRANCH   1  16
ATOM     16  N   UNL d   1      28.585  15.575 -24.012  0.00  0.00    -0.208 NA
ATOM     17  C   UNL d   1      28.000  15.943 -23.550  0.00  0.00     0.279 C 
ATOM     18  O   UNL d   1      28.189  16.611 -23.118  0.00  0.00    -0.265 OA
ATOM     19  C   UNL d   1      27.238  15.626 -23.535  0.00  0.00     0.068 C 
ENDBRANCH   1  16
TORSDOF 7
ENDMDL
MODEL 2
REMARK VINA RESULT:      -0.5      1.491      1.720
REMARK  7 active torsions:
REMARK  status: ('A' for Active; 'I' for Inactive)
REMARK       I    between atoms: N_2  and  C_1 
REMARK    1  A    between atoms: C_5  and  N_2 
REMARK    2  A    between atoms: N_4  and  C_9 
REMARK    3  A    between atoms: C_16  and  N_4 
REMARK    4  A    between atoms: O_6  and  C_8 
REMARK    5  A    between atoms: C_10  and  O_6 
REMARK    6  A    between atoms: C_7  and  C_10 
REMARK    7  A    between atoms: C_9  and  C_7 
ROOT
ATOM      1  C   UNL d   1      28.900  15.477 -23.807  0.00  0.00     0.085 A 
ATOM      2  C   UNL d   1      30.438  15.526 -24.395  0.00  0.00     0.100 A 
ATOM      3  C   UNL d   1      29.539  15.481 -23.288  0.00  0.00     0.021 A 
ATOM      4  C   UNL d   1      29.022  15.498 -24.624  0.00  0.00     0.021 A 
ATOM      5  C   UNL d   1      29.793  15.522 -24.919  0.00  0.00     0.026 A 
ATOM      6  C   UNL d   1      30.307  15.505 -23.580  0.00  0.00     0.026 A 
ENDROOT
BRANCH   2   7
ATOM      7  O   UNL d   1      31.206  15.550 -24.687  0.00  0.00    -0.302 OA
BRANCH   7   8
ATOM      8  C   UNL d   1      31.764  16.048 -24.341  0.00  0.00     0.166 C 
BRANCH   8   9
ATOM      9  C   UNL d   1      32.405  16.309 -24.790  0.00  0.00     0.239 C 
ATOM     10  O   UNL d   1      32.983  15.768 -25.018  0.00  0.00    -0.283 OA
BRANCH   9  11
ATOM     11  C   UNL d   1      32.470  17.098 -25.010  0.00  0.00     0.143 C 
BRANCH  11  12
ATOM     12  N   UNL d   1      32.813  17.644 -24.495  0.00  0.00    -0.241 NA
BRANCH  12  13
ATOM     13  C   UNL d   1      32.710  18.446 -24.621  0.00  0.00     0.082 C 
ATOM     14  C   UNL d   1      32.067  18.833 -24.270  0.00  0.00     0.021 C 
ATOM     15  C   UNL d   1      33.241  18.862 -25.094  0.00  0.00     0.021 C 
ENDBRANCH  12  13
ENDBRANCH  11  12
ENDBRANCH   9  11
ENDBRANCH   8   9
ENDBRANCH   7   8
ENDBRANCH   2   7
BRANCH   1  16
ATOM     16  N   UNL d   1      28.132  15.453 -23.515  0.00  0.00    -0.208 NA
ATOM     17  C   UNL d   1      27.741  16.158 -23.310  0.00  0.00     0.279 C 
ATOM     18  O   UNL d   1      28.126  16.873 -23.401  0.00  0.00    -0.265 OA
ATOM     19  C   UNL d   1      26.971  16.121 -23.018  0.00  0.00     0.068 C 
ENDBRANCH   1  16
TORSDOF 7
ENDMDL
MODEL 3
REMARK VINA RESULT:      -0.1      3.988      6.147
REMARK  7 active torsions:
REMARK  status: ('A' for Active; 'I' for Inactive)
REMARK       I    between atoms: N_2  and  C_1 
REMARK    1  A    between atoms: C_5  and  N_2 
REMARK    2  A    between atoms: N_4  and  C_9 
REMARK    3  A    between atoms: C_16  and  N_4 
REMARK    4  A    between atoms: O_6  and  C_8 
REMARK    5  A    between atoms: C_10  and  O_6 
REMARK    6  A    between atoms: C_7  and  C_10 
REMARK    7  A    between atoms: C_9  and  C_7 
ROOT
ATOM      1  C   UNL d   1      32.503  20.381 -22.306  0.00  0.00     0.085 A 
ATOM      2  C   UNL d   1      32.933  21.581 -21.263  0.00  0.00     0.100 A 
ATOM      3  C   UNL d   1      32.349  21.166 -22.497  0.00  0.00     0.021 A 
ATOM      4  C   UNL d   1      32.872  20.187 -21.594  0.00  0.00     0.021 A 
ATOM      5  C   UNL d   1      33.088  20.788 -21.070  0.00  0.00     0.026 A 
ATOM      6  C   UNL d   1      32.563  21.766 -21.978  0.00  0.00     0.026 A 
ENDROOT
BRANCH   2   7
ATOM      7  O   UNL d   1      33.146  22.181 -20.743  0.00  0.00    -0.302 OA
BRANCH   7   8
ATOM      8  C   UNL d   1      32.581  22.520 -20.249  0.00  0.00     0.166 C 
BRANCH   8   9
ATOM      9  C   UNL d   1      32.827  23.010 -19.632  0.00  0.00     0.239 C 
ATOM     10  O   UNL d   1      33.238  23.702 -19.807  0.00  0.00    -0.283 OA
BRANCH   9  11
ATOM     11  C   UNL d   1      32.666  22.814 -18.851  0.00  0.00     0.143 C 
BRANCH  11  12
ATOM     12  N   UNL d   1      32.660  23.400 -18.270  0.00  0.00    -0.241 NA
BRANCH  12  13
ATOM     13  C   UNL d   1      32.562  23.195 -17.484  0.00  0.00     0.082 C 
ATOM     14  C   UNL d   1      33.221  22.957 -17.040  0.00  0.00     0.021 C 
ATOM     15  C   UNL d   1      31.815  23.225 -17.138  0.00  0.00     0.021 C 
ENDBRANCH  12  13
ENDBRANCH  11  12
ENDBRANCH   9  11
ENDBRANCH   8   9
ENDBRANCH   7   8
ENDBRANCH   2   7
BRANCH   1  16
ATOM     16  N   UNL d   1      32.289  19.781 -22.826  0.00  0.00    -0.208 NA
ATOM     17  C   UNL d   1      32.574  19.008 -22.710  0.00  0.00     0.279 C 
ATOM     18  O   UNL d   1      33.066  18.850 -22.077  0.00  0.00    -0.265 OA
ATOM     19  C   UNL d   1      32.352  18.414 -23.238  0.00  0.00     0.068 C 
ENDBRANCH   1  16
TORSDOF 7
ENDMDL
MODEL 4
REMARK VINA RESULT:       0.0      2.073      3.488
REMARK  7 active torsions:
REMARK  status: ('A' for Active; 'I' for Inactive)
REMARK       I    between atoms: N_2  and  C_1 
REMARK    1  A    between atoms: C_5  and  N_2 
REMARK    2  A    between atoms: N_4  and  C_9 
REMARK    3  A    between atoms: C_16  and  N_4 
REMARK    4  A    between atoms: O_6  and  C_8 
REMARK    5  A    between atoms: C_10  and  O_6 
REMARK    6  A    between atoms: C_7  and  C_10 
REMARK    7  A    between atoms: C_9  and  C_7 
ROOT
ATOM      1  C   UNL d   1      32.389  17.492 -23.905  0.00  0.00     0.085 A 
ATOM      2  C   UNL d   1      32.878  18.916 -23.236  0.00  0.00     0.100 A 
ATOM      3  C   UNL d   1      32.728  17.499 -23.155  0.00  0.00     0.021 A 
ATOM      4  C   UNL d   1      32.291  18.194 -24.328  0.00  0.00     0.021 A 
ATOM      5  C   UNL d   1      32.536  18.909 -23.993  0.00  0.00     0.026 A 
ATOM      6  C   UNL d   1      32.973  18.208 -22.820  0.00  0.00     0.026 A 
ENDROOT
BRANCH   2   7
ATOM      7  O   UNL d   1      33.122  19.625 -22.901  0.00  0.00    -0.302 OA
BRANCH   7   8
ATOM      8  C   UNL d   1      32.923  19.805 -22.122  0.00  0.00     0.166 C 
BRANCH   8   9
ATOM      9  C   UNL d   1      32.555  20.524 -21.955  0.00  0.00     0.239 C 
ATOM     10  O   UNL d   1      31.787  20.655 -22.224  0.00  0.00    -0.283 OA
BRANCH   9  11
ATOM     11  C   UNL d   1      32.945  21.106 -21.527  0.00  0.00     0.143 C 
BRANCH  11  12
ATOM     12  N   UNL d   1      32.521  21.733 -21.197  0.00  0.00    -0.241 NA
BRANCH  12  13
ATOM     13  C   UNL d   1      32.855  22.185 -20.604  0.00  0.00     0.082 C 
ATOM     14  C   UNL d   1      33.241  22.893 -20.799  0.00  0.00     0.021 C 
ATOM     15  C   UNL d   1      32.809  21.938 -19.819  0.00  0.00     0.021 C 
ENDBRANCH  12  13
ENDBRANCH  11  12
ENDBRANCH   9  11
ENDBRANCH   8   9
ENDBRANCH   7   8
ENDBRANCH   2   7
BRANCH   1  16
ATOM     16  N   UNL d   1      32.145  16.783 -24.240  0.00  0.00    -0.208 NA
ATOM     17  C   UNL d   1      31.333  16.623 -24.333  0.00  0.00     0.279 C 
ATOM     18  O   UNL d   1      30.783  17.176 -24.088  0.00  0.00    -0.265 OA
ATOM     19  C   UNL d   1      31.100  15.907 -24.670  0.00  0.00     0.068 C 
ENDBRANCH   1  16
TORSDOF 7
ENDMDL
