MODEL 1
REMARK VINA RESULT:      60.3      0.000      0.000
REMARK  7 active torsions:
REMARK  status: ('A' for Active; 'I' for Inactive)
REMARK    1  A    between atoms: N_4  and  C_1 
REMARK    2  A    between atoms: C_9  and  C_2 
REMARK    3  A    between atoms: C_7  and  N_4 
REMARK    4  A    between atoms: N_8  and  C_7 
REMARK       I    between atoms: C_10  and  N_8 
REMARK    5  A    between atoms: C_15  and  C_10 
REMARK    6  A    between atoms: C_18  and  C_15 
REMARK    7  A    between atoms: C_19  and  C_18 
ROOT
ATOM      1  C   UNL d   1      59.711  49.193  50.669  0.00  0.00     0.224 C 
ATOM      2  S   UNL d   1      60.120  49.708  51.170  0.00  0.00    -0.037 SA
ENDROOT
BRANCH   1   3
ATOM      3  N   UNL d   1      59.076  49.450  50.244  0.00  0.00    -0.211 NA
BRANCH   3   4
ATOM      4  C   UNL d   1      58.344  49.509  50.601  0.00  0.00     0.118 A 
ATOM      5  C   UNL d   1      57.619  49.588  50.215  0.00  0.00     0.084 A 
ATOM      6  C   UNL d   1      57.048  49.626  50.772  0.00  0.00     0.013 A 
ATOM      7  C   UNL d   1      56.229  49.707  50.625  0.00  0.00     0.001 C 
ATOM      8  C   UNL d   1      57.374  49.576  51.486  0.00  0.00     0.031 A 
ATOM      9  S   UNL d   1      58.174  49.503  51.399  0.00  0.00    -0.068 SA
ATOM     10  C   UNL d   1      56.945  49.596  52.196  0.00  0.00     0.007 C 
BRANCH   5  11
ATOM     11  C   UNL d   1      57.509  49.621  49.390  0.00  0.00     0.299 C 
ATOM     12  O   UNL d   1      58.161  49.664  48.885  0.00  0.00    -0.264 OA
ATOM     13  N   UNL d   1      56.740  49.611  49.063  0.00  0.00    -0.102 N 
ENDBRANCH   5  11
ENDBRANCH   3   4
ENDBRANCH   1   3
BRANCH   1  14
ATOM     14  N   UNL d   1      59.948  48.409  50.599  0.00  0.00    -0.179 NA
ATOM     15  C   UNL d   1      60.646  48.211  50.251  0.00  0.00     0.281 C 
ATOM     16  O   UNL d   1      61.134  48.790  49.960  0.00  0.00    -0.265 OA
BRANCH  15  17
ATOM     17  C   UNL d   1      60.887  47.413  50.178  0.00  0.00     0.063 C 
BRANCH  17  18
ATOM     18  C   UNL d   1      61.232  47.155  49.496  0.00  0.00     0.005 C 
BRANCH  18  19
ATOM     19  C   UNL d   1      61.612  46.423  49.500  0.00  0.00     0.000 A 
ATOM     20  C   UNL d   1      62.442  46.368  49.477  0.00  0.00     0.000 A 
ATOM     21  C   UNL d   1      62.803  45.641  49.481  0.00  0.00     0.000 A 
ATOM     22  C   UNL d   1      62.346  44.941  49.508  0.00  0.00     0.000 A 
ATOM     23  C   UNL d   1      61.529  45.000  49.530  0.00  0.00     0.000 A 
ATOM     24  C   UNL d   1      61.171  45.750  49.526  0.00  0.00     0.000 A 
ENDBRANCH  18  19
ENDBRANCH  17  18
ENDBRANCH  15  17
ENDBRANCH   1  14
TORSDOF 7
ENDMDL
