MODEL 1
REMARK VINA RESULT:      32.4      0.000      0.000
REMARK  4 active torsions:
REMARK  status: ('A' for Active; 'I' for Inactive)
REMARK    1  A    between atoms: C_2  and  C_1 
REMARK       I    between atoms: N_5  and  C_2 
REMARK    2  A    between atoms: C_10  and  N_5 
REMARK    3  A    between atoms: O_9  and  C_11 
REMARK    4  A    between atoms: C_12  and  O_9 
ROOT
ATOM      1  C   UNL d   1      14.096  12.530  -2.460  0.00  0.00     0.085 A 
ATOM      2  C   UNL d   1      14.601  13.052  -0.989  0.00  0.00     0.100 A 
ATOM      3  C   UNL d   1      13.642  12.363  -1.786  0.00  0.00     0.021 A 
ATOM      4  C   UNL d   1      14.799  12.957  -2.394  0.00  0.00     0.021 A 
ATOM      5  C   UNL d   1      13.894  12.624  -1.054  0.00  0.00     0.026 A 
ATOM      6  C   UNL d   1      15.045  13.216  -1.648  0.00  0.00     0.026 A 
ENDROOT
BRANCH   1   7
ATOM      7  N   UNL d   1      13.844  12.268  -3.199  0.00  0.00    -0.206 NA
ATOM      8  C   UNL d   1      13.523  12.809  -3.740  0.00  0.00     0.303 C 
ATOM      9  O   UNL d   1      13.459  13.601  -3.534  0.00  0.00    -0.263 OA
BRANCH   8  10
ATOM     10  C   UNL d   1      13.270  12.548  -4.479  0.00  0.00     0.176 A 
ATOM     11  C   UNL d   1      13.298  12.983  -5.181  0.00  0.00     0.110 A 
ATOM     12  N   UNL d   1      12.992  12.515  -5.786  0.00  0.00    -0.233 NA
ATOM     13  C   UNL d   1      13.582  13.746  -5.259  0.00  0.00     0.023 C 
ATOM     14  C   UNL d   1      12.772  11.783  -5.453  0.00  0.00     0.259 A 
ATOM     15  O   UNL d   1      12.948  11.812  -4.646  0.00  0.00    -0.296 OA
ENDBRANCH   8  10
ENDBRANCH   1   7
BRANCH   2  16
ATOM     16  O   UNL d   1      14.849  13.313  -0.244  0.00  0.00    -0.307 OA
BRANCH  16  17
ATOM     17  C   UNL d   1      15.250  14.015  -0.169  0.00  0.00     0.100 A 
ATOM     18  C   UNL d   1      16.077  14.011  -0.150  0.00  0.00     0.025 A 
ATOM     19  C   UNL d   1      16.480  14.725  -0.073  0.00  0.00     0.002 A 
ATOM     20  C   UNL d   1      16.067  15.447  -0.014  0.00  0.00     0.000 A 
ATOM     21  C   UNL d   1      15.226  15.435  -0.035  0.00  0.00     0.002 A 
ATOM     22  C   UNL d   1      14.843  14.713  -0.112  0.00  0.00     0.025 A 
ENDBRANCH  16  17
ENDBRANCH   2  16
TORSDOF 4
ENDMDL
