MODEL 1
REMARK VINA RESULT:      34.0      0.000      0.000
REMARK  5 active torsions:
REMARK  status: ('A' for Active; 'I' for Inactive)
REMARK    1  A    between atoms: C_12  and  N_1 
REMARK    2  A    between atoms: C_6  and  C_5 
REMARK    3  A    between atoms: C_7  and  C_6 
REMARK       I    between atoms: N_9  and  C_7 
REMARK    4  A    between atoms: C_13  and  N_9 
REMARK    5  A    between atoms: C_16  and  C_12 
ROOT
ATOM      1  N   UNL d   1     -54.972-101.407 -43.636  0.00  0.00    -0.235 N 
ATOM      2  C   UNL d   1     -55.130-101.548 -44.435  0.00  0.00     0.298 A 
ATOM      3  C   UNL d   1     -55.113-100.619 -43.474  0.00  0.00     0.274 A 
ATOM      4  S   UNL d   1     -55.373-100.831 -44.770  0.00  0.00    -0.022 SA
ATOM      5  C   UNL d   1     -55.362-100.259 -44.177  0.00  0.00     0.095 A 
ATOM      6  O   UNL d   1     -55.062-102.266 -44.837  0.00  0.00    -0.259 OA
ATOM      7  O   UNL d   1     -55.025-100.250 -42.750  0.00  0.00    -0.266 OA
ENDROOT
BRANCH   5   8
ATOM      8  C   UNL d   1     -55.566 -99.461 -44.269  0.00  0.00     0.074 C 
BRANCH   8   9
ATOM      9  C   UNL d   1     -56.333 -99.256 -44.494  0.00  0.00     0.280 C 
ATOM     10  N   UNL d   1     -56.964 -99.385 -43.979  0.00  0.00    -0.208 NA
ATOM     11  O   UNL d   1     -56.470 -98.920 -45.240  0.00  0.00    -0.265 OA
BRANCH  10  12
ATOM     12  C   UNL d   1     -57.728 -99.180 -44.206  0.00  0.00     0.085 A 
ATOM     13  C   UNL d   1     -57.917 -99.105 -45.004  0.00  0.00     0.019 A 
ATOM     14  C   UNL d   1     -58.685 -98.898 -45.230  0.00  0.00     0.002 A 
ATOM     15  C   UNL d   1     -59.263 -98.767 -44.656  0.00  0.00     0.000 A 
ATOM     16  C   UNL d   1     -59.071 -98.843 -43.853  0.00  0.00     0.002 A 
ATOM     17  C   UNL d   1     -58.305 -99.049 -43.636  0.00  0.00     0.019 A 
ENDBRANCH  10  12
ENDBRANCH   8   9
ENDBRANCH   5   8
BRANCH   1  18
ATOM     18  C   UNL d   1     -54.715-101.971 -43.096  0.00  0.00     0.086 C 
BRANCH  18  19
ATOM     19  C   UNL d   1     -55.078-102.048 -42.362  0.00  0.00     0.019 C 
ATOM     20  C   UNL d   1     -54.763-102.553 -41.796  0.00  0.00     0.002 C 
ENDBRANCH  18  19
ENDBRANCH   1  18
TORSDOF 5
ENDMDL
