MODEL 1
REMARK VINA RESULT:      -8.6      0.000      0.000
REMARK  6 active torsions:
REMARK  status: ('A' for Active; 'I' for Inactive)
REMARK    1  A    between atoms: C_9  and  C_3 
REMARK    2  A    between atoms: C_8  and  C_5 
REMARK    3  A    between atoms: O_19  and  C_9 
REMARK    4  A    between atoms: C_22  and  O_19 
REMARK    5  A    between atoms: O_21  and  C_23 
REMARK    6  A    between atoms: C_23  and  C_22 
ROOT
ATOM      1  N   UNL d   1      52.812  33.634  53.532  0.00  0.00    -0.254 N 
ATOM      2  C   UNL d   1      52.195  33.530  52.991  0.00  0.00     0.182 A 
ATOM      3  C   UNL d   1      53.164  32.257  53.393  0.00  0.00     0.098 A 
ATOM      4  N   UNL d   1      52.066  32.788  52.654  0.00  0.00    -0.222 NA
ATOM      5  C   UNL d   1      53.298  33.000  53.736  0.00  0.00     0.081 A 
ATOM      6  C   UNL d   1      52.548  32.149  52.852  0.00  0.00     0.090 A 
ATOM      7  C   UNL d   1      52.941  34.376  53.869  0.00  0.00     0.267 A 
ATOM      8  S   UNL d   1      51.710  34.161  52.787  0.00  0.00    -0.049 SA
ATOM      9  C   UNL d   1      52.455  35.010  53.665  0.00  0.00     0.068 A 
ATOM     10  O   UNL d   1      53.557  34.483  54.410  0.00  0.00    -0.267 OA
ATOM     11  C   UNL d   1      51.839  34.902  53.123  0.00  0.00     0.043 A 
ATOM     12  C   UNL d   1      52.414  31.410  52.512  0.00  0.00     0.021 C 
ENDROOT
BRANCH   3  13
ATOM     13  C   UNL d   1      53.647  31.622  53.595  0.00  0.00     0.303 C 
ATOM     14  O   UNL d   1      54.406  31.555  53.274  0.00  0.00    -0.259 OA
BRANCH  13  15
ATOM     15  O   UNL d   1      53.376  31.046  54.120  0.00  0.00    -0.269 OA
BRANCH  15  16
ATOM     16  C   UNL d   1      53.585  30.251  54.017  0.00  0.00     0.152 C 
BRANCH  16  17
ATOM     17  C   UNL d   1      53.362  29.685  54.578  0.00  0.00     0.143 C 
BRANCH  17  18
ATOM     18  O   UNL d   1      53.398  28.879  54.386  0.00  0.00    -0.324 OA
ATOM     19  C   UNL d   1      53.450  28.313  54.984  0.00  0.00     0.182 C 
ENDBRANCH  17  18
ENDBRANCH  16  17
ENDBRANCH  15  16
ENDBRANCH  13  15
ENDBRANCH   3  13
BRANCH   5  20
ATOM     20  C   UNL d   1      53.914  33.107  54.277  0.00  0.00     0.046 A 
ATOM     21  S   UNL d   1      54.718  33.261  54.173  0.00  0.00    -0.085 SA
ATOM     22  C   UNL d   1      55.062  33.314  54.921  0.00  0.00     0.035 A 
ATOM     23  C   UNL d   1      54.471  33.193  55.482  0.00  0.00     0.007 A 
ATOM     24  C   UNL d   1      53.764  33.066  55.087  0.00  0.00     0.009 A 
ENDBRANCH   5  20
TORSDOF 6
ENDMDL
MODEL 2
REMARK VINA RESULT:      -7.4      1.262      2.416
REMARK  6 active torsions:
REMARK  status: ('A' for Active; 'I' for Inactive)
REMARK    1  A    between atoms: C_9  and  C_3 
REMARK    2  A    between atoms: C_8  and  C_5 
REMARK    3  A    between atoms: O_19  and  C_9 
REMARK    4  A    between atoms: C_22  and  O_19 
REMARK    5  A    between atoms: O_21  and  C_23 
REMARK    6  A    between atoms: C_23  and  C_22 
ROOT
ATOM      1  N   UNL d   1      52.883  34.308  54.010  0.00  0.00    -0.254 N 
ATOM      2  C   UNL d   1      53.602  34.281  54.417  0.00  0.00     0.182 A 
ATOM      3  C   UNL d   1      53.129  33.000  53.493  0.00  0.00     0.098 A 
ATOM      4  N   UNL d   1      54.081  33.612  54.360  0.00  0.00    -0.222 NA
ATOM      5  C   UNL d   1      52.643  33.669  53.547  0.00  0.00     0.081 A 
ATOM      6  C   UNL d   1      53.848  32.969  53.899  0.00  0.00     0.090 A 
ATOM      7  C   UNL d   1      52.404  34.977  54.068  0.00  0.00     0.267 A 
ATOM      8  S   UNL d   1      53.842  34.916  54.879  0.00  0.00    -0.049 SA
ATOM      9  C   UNL d   1      52.644  35.616  54.531  0.00  0.00     0.068 A 
ATOM     10  O   UNL d   1      51.684  35.007  53.662  0.00  0.00    -0.267 OA
ATOM     11  C   UNL d   1      53.363  35.586  54.937  0.00  0.00     0.043 A 
ATOM     12  C   UNL d   1      54.331  32.304  53.845  0.00  0.00     0.021 C 
ENDROOT
BRANCH   3  13
ATOM     13  C   UNL d   1      52.892  32.361  53.032  0.00  0.00     0.303 C 
ATOM     14  O   UNL d   1      52.960  32.391  52.208  0.00  0.00    -0.259 OA
BRANCH  13  15
ATOM     15  O   UNL d   1      52.585  31.683  53.389  0.00  0.00    -0.269 OA
BRANCH  15  16
ATOM     16  C   UNL d   1      52.695  30.938  53.044  0.00  0.00     0.152 C 
BRANCH  16  17
ATOM     17  C   UNL d   1      52.335  30.269  53.372  0.00  0.00     0.143 C 
BRANCH  17  18
ATOM     18  O   UNL d   1      52.692  29.526  53.285  0.00  0.00    -0.324 OA
ATOM     19  C   UNL d   1      52.898  29.086  53.952  0.00  0.00     0.182 C 
ENDBRANCH  17  18
ENDBRANCH  16  17
ENDBRANCH  15  16
ENDBRANCH  13  15
ENDBRANCH   3  13
BRANCH   5  20
ATOM     20  C   UNL d   1      51.923  33.699  53.141  0.00  0.00     0.046 A 
ATOM     21  S   UNL d   1      51.164  33.447  53.345  0.00  0.00    -0.085 SA
ATOM     22  C   UNL d   1      50.663  33.624  52.714  0.00  0.00     0.035 A 
ATOM     23  C   UNL d   1      51.112  33.984  52.125  0.00  0.00     0.007 A 
ATOM     24  C   UNL d   1      51.888  34.030  52.386  0.00  0.00     0.009 A 
ENDBRANCH   5  20
TORSDOF 6
ENDMDL
MODEL 3
REMARK VINA RESULT:      -7.3      1.724      3.894
REMARK  6 active torsions:
REMARK  status: ('A' for Active; 'I' for Inactive)
REMARK    1  A    between atoms: C_9  and  C_3 
REMARK    2  A    between atoms: C_8  and  C_5 
REMARK    3  A    between atoms: O_19  and  C_9 
REMARK    4  A    between atoms: C_22  and  O_19 
REMARK    5  A    between atoms: O_21  and  C_23 
REMARK    6  A    between atoms: C_23  and  C_22 
ROOT
ATOM      1  N   UNL d   1      53.522  33.231  54.312  0.00  0.00    -0.254 N 
ATOM      2  C   UNL d   1      53.739  33.972  54.610  0.00  0.00     0.182 A 
ATOM      3  C   UNL d   1      52.624  33.862  53.399  0.00  0.00     0.098 A 
ATOM      4  N   UNL d   1      53.396  34.654  54.299  0.00  0.00    -0.222 NA
ATOM      5  C   UNL d   1      52.965  33.172  53.707  0.00  0.00     0.081 A 
ATOM      6  C   UNL d   1      52.838  34.604  53.694  0.00  0.00     0.090 A 
ATOM      7  C   UNL d   1      53.866  32.548  54.623  0.00  0.00     0.267 A 
ATOM      8  S   UNL d   1      54.294  34.032  55.212  0.00  0.00    -0.049 SA
ATOM      9  C   UNL d   1      54.423  32.607  55.228  0.00  0.00     0.068 A 
ATOM     10  O   UNL d   1      53.652  31.806  54.328  0.00  0.00    -0.267 OA
ATOM     11  C   UNL d   1      54.637  33.350  55.523  0.00  0.00     0.043 A 
ATOM     12  C   UNL d   1      52.498  35.289  53.388  0.00  0.00     0.021 C 
ENDROOT
BRANCH   3  13
ATOM     13  C   UNL d   1      52.067  33.806  52.795  0.00  0.00     0.303 C 
ATOM     14  O   UNL d   1      52.307  33.657  52.018  0.00  0.00    -0.259 OA
BRANCH  13  15
ATOM     15  O   UNL d   1      51.265  33.899  52.963  0.00  0.00    -0.269 OA
BRANCH  15  16
ATOM     16  C   UNL d   1      50.742  34.172  52.381  0.00  0.00     0.152 C 
BRANCH  16  17
ATOM     17  C   UNL d   1      49.948  34.314  52.566  0.00  0.00     0.143 C 
BRANCH  17  18
ATOM     18  O   UNL d   1      49.419  34.535  51.967  0.00  0.00    -0.324 OA
ATOM     19  C   UNL d   1      48.739  34.963  52.153  0.00  0.00     0.182 C 
ENDBRANCH  17  18
ENDBRANCH  16  17
ENDBRANCH  15  16
ENDBRANCH  13  15
ENDBRANCH   3  13
BRANCH   5  20
ATOM     20  C   UNL d   1      52.751  32.430  53.412  0.00  0.00     0.046 A 
ATOM     21  S   UNL d   1      52.114  31.933  53.580  0.00  0.00    -0.085 SA
ATOM     22  C   UNL d   1      52.191  31.259  53.112  0.00  0.00     0.035 A 
ATOM     23  C   UNL d   1      52.873  31.341  52.657  0.00  0.00     0.007 A 
ATOM     24  C   UNL d   1      53.219  32.061  52.842  0.00  0.00     0.009 A 
ENDBRANCH   5  20
TORSDOF 6
ENDMDL
MODEL 4
REMARK VINA RESULT:      -6.7      2.033      3.830
REMARK  6 active torsions:
REMARK  status: ('A' for Active; 'I' for Inactive)
REMARK    1  A    between atoms: C_9  and  C_3 
REMARK    2  A    between atoms: C_8  and  C_5 
REMARK    3  A    between atoms: O_19  and  C_9 
REMARK    4  A    between atoms: C_22  and  O_19 
REMARK    5  A    between atoms: O_21  and  C_23 
REMARK    6  A    between atoms: C_23  and  C_22 
ROOT
ATOM      1  N   UNL d   1      53.344  33.319  54.197  0.00  0.00    -0.254 N 
ATOM      2  C   UNL d   1      53.290  32.526  53.969  0.00  0.00     0.182 A 
ATOM      3  C   UNL d   1      52.285  33.649  53.298  0.00  0.00     0.098 A 
ATOM      4  N   UNL d   1      52.733  32.299  53.405  0.00  0.00    -0.222 NA
ATOM      5  C   UNL d   1      52.843  33.883  53.864  0.00  0.00     0.081 A 
ATOM      6  C   UNL d   1      52.228  32.857  53.067  0.00  0.00     0.090 A 
ATOM      7  C   UNL d   1      53.902  33.546  54.761  0.00  0.00     0.267 A 
ATOM      8  S   UNL d   1      53.789  31.963  54.299  0.00  0.00    -0.049 SA
ATOM      9  C   UNL d   1      54.403  32.982  55.094  0.00  0.00     0.068 A 
ATOM     10  O   UNL d   1      53.958  34.338  54.992  0.00  0.00    -0.267 OA
ATOM     11  C   UNL d   1      54.346  32.190  54.863  0.00  0.00     0.043 A 
ATOM     12  C   UNL d   1      51.673  32.624  52.504  0.00  0.00     0.021 C 
ENDROOT
BRANCH   3  13
ATOM     13  C   UNL d   1      51.783  34.209  52.964  0.00  0.00     0.303 C 
ATOM     14  O   UNL d   1      52.042  34.681  52.336  0.00  0.00    -0.259 OA
BRANCH  13  15
ATOM     15  O   UNL d   1      51.017  34.304  53.254  0.00  0.00    -0.269 OA
BRANCH  15  16
ATOM     16  C   UNL d   1      50.407  34.561  52.756  0.00  0.00     0.152 C 
BRANCH  16  17
ATOM     17  C   UNL d   1      49.687  34.816  53.075  0.00  0.00     0.143 C 
BRANCH  17  18
ATOM     18  O   UNL d   1      49.090  35.096  52.572  0.00  0.00    -0.324 OA
ATOM     19  C   UNL d   1      48.471  35.548  52.876  0.00  0.00     0.182 C 
ENDBRANCH  17  18
ENDBRANCH  16  17
ENDBRANCH  15  16
ENDBRANCH  13  15
ENDBRANCH   3  13
BRANCH   5  20
ATOM     20  C   UNL d   1      52.899  34.675  54.095  0.00  0.00     0.046 A 
ATOM     21  S   UNL d   1      52.538  35.099  54.703  0.00  0.00    -0.085 SA
ATOM     22  C   UNL d   1      52.809  35.877  54.663  0.00  0.00     0.035 A 
ATOM     23  C   UNL d   1      53.336  35.931  54.032  0.00  0.00     0.007 A 
ATOM     24  C   UNL d   1      53.392  35.192  53.682  0.00  0.00     0.009 A 
ENDBRANCH   5  20
TORSDOF 6
ENDMDL
MODEL 5
REMARK VINA RESULT:      -6.5      1.276      3.594
REMARK  6 active torsions:
REMARK  status: ('A' for Active; 'I' for Inactive)
REMARK    1  A    between atoms: C_9  and  C_3 
REMARK    2  A    between atoms: C_8  and  C_5 
REMARK    3  A    between atoms: O_19  and  C_9 
REMARK    4  A    between atoms: C_22  and  O_19 
REMARK    5  A    between atoms: O_21  and  C_23 
REMARK    6  A    between atoms: C_23  and  C_22 
ROOT
ATOM      1  N   UNL d   1      53.229  31.815  53.448  0.00  0.00    -0.254 N 
ATOM      2  C   UNL d   1      52.561  31.562  53.031  0.00  0.00     0.182 A 
ATOM      3  C   UNL d   1      52.829  33.173  53.264  0.00  0.00     0.098 A 
ATOM      4  N   UNL d   1      52.030  32.118  52.732  0.00  0.00    -0.222 NA
ATOM      5  C   UNL d   1      53.366  32.619  53.567  0.00  0.00     0.081 A 
ATOM      6  C   UNL d   1      52.160  32.924  52.846  0.00  0.00     0.090 A 
ATOM      7  C   UNL d   1      53.759  31.259  53.747  0.00  0.00     0.267 A 
ATOM      8  S   UNL d   1      52.422  30.761  52.912  0.00  0.00    -0.049 SA
ATOM      9  C   UNL d   1      53.622  30.454  53.629  0.00  0.00     0.068 A 
ATOM     10  O   UNL d   1      54.428  31.507  54.165  0.00  0.00    -0.267 OA
ATOM     11  C   UNL d   1      52.953  30.205  53.211  0.00  0.00     0.043 A 
ATOM     12  C   UNL d   1      51.626  33.475  52.545  0.00  0.00     0.021 C 
ENDROOT
BRANCH   3  13
ATOM     13  C   UNL d   1      52.963  33.977  53.380  0.00  0.00     0.303 C 
ATOM     14  O   UNL d   1      53.444  34.401  52.858  0.00  0.00    -0.259 OA
BRANCH  13  15
ATOM     15  O   UNL d   1      52.617  34.365  54.021  0.00  0.00    -0.269 OA
BRANCH  15  16
ATOM     16  C   UNL d   1      52.523  35.188  54.014  0.00  0.00     0.152 C 
BRANCH  16  17
ATOM     17  C   UNL d   1      52.426  35.604  54.722  0.00  0.00     0.143 C 
BRANCH  17  18
ATOM     18  O   UNL d   1      52.573  36.419  54.745  0.00  0.00    -0.324 OA
ATOM     19  C   UNL d   1      53.241  36.708  55.132  0.00  0.00     0.182 C 
ENDBRANCH  17  18
ENDBRANCH  16  17
ENDBRANCH  15  16
ENDBRANCH  13  15
ENDBRANCH   3  13
BRANCH   5  20
ATOM     20  C   UNL d   1      54.035  32.868  53.985  0.00  0.00     0.046 A 
ATOM     21  S   UNL d   1      54.769  33.148  53.734  0.00  0.00    -0.085 SA
ATOM     22  C   UNL d   1      55.218  33.312  54.406  0.00  0.00     0.035 A 
ATOM     23  C   UNL d   1      54.762  33.132  55.068  0.00  0.00     0.007 A 
ATOM     24  C   UNL d   1      54.033  32.859  54.810  0.00  0.00     0.009 A 
ENDBRANCH   5  20
TORSDOF 6
ENDMDL
MODEL 6
REMARK VINA RESULT:      -5.9      1.620      4.029
REMARK  6 active torsions:
REMARK  status: ('A' for Active; 'I' for Inactive)
REMARK    1  A    between atoms: C_9  and  C_3 
REMARK    2  A    between atoms: C_8  and  C_5 
REMARK    3  A    between atoms: O_19  and  C_9 
REMARK    4  A    between atoms: C_22  and  O_19 
REMARK    5  A    between atoms: O_21  and  C_23 
REMARK    6  A    between atoms: C_23  and  C_22 
ROOT
ATOM      1  N   UNL d   1      52.939  31.615  53.347  0.00  0.00    -0.254 N 
ATOM      2  C   UNL d   1      53.640  31.257  53.600  0.00  0.00     0.182 A 
ATOM      3  C   UNL d   1      53.492  32.899  53.635  0.00  0.00     0.098 A 
ATOM      4  N   UNL d   1      54.264  31.724  53.869  0.00  0.00    -0.222 NA
ATOM      5  C   UNL d   1      52.861  32.436  53.363  0.00  0.00     0.081 A 
ATOM      6  C   UNL d   1      54.195  32.545  53.889  0.00  0.00     0.090 A 
ATOM      7  C   UNL d   1      52.314  31.148  53.077  0.00  0.00     0.267 A 
ATOM      8  S   UNL d   1      53.719  30.439  53.585  0.00  0.00    -0.049 SA
ATOM      9  C   UNL d   1      52.392  30.327  53.062  0.00  0.00     0.068 A 
ATOM     10  O   UNL d   1      51.612  31.503  52.823  0.00  0.00    -0.267 OA
ATOM     11  C   UNL d   1      53.094  29.972  53.316  0.00  0.00     0.043 A 
ATOM     12  C   UNL d   1      54.822  33.006  54.159  0.00  0.00     0.021 C 
ENDROOT
BRANCH   3  13
ATOM     13  C   UNL d   1      53.418  33.719  53.652  0.00  0.00     0.303 C 
ATOM     14  O   UNL d   1      53.544  34.165  52.967  0.00  0.00    -0.259 OA
BRANCH  13  15
ATOM     15  O   UNL d   1      53.218  34.102  54.355  0.00  0.00    -0.269 OA
BRANCH  15  16
ATOM     16  C   UNL d   1      53.370  34.910  54.452  0.00  0.00     0.152 C 
BRANCH  16  17
ATOM     17  C   UNL d   1      53.065  35.317  55.105  0.00  0.00     0.143 C 
BRANCH  17  18
ATOM     18  O   UNL d   1      52.798  36.097  55.016  0.00  0.00    -0.324 OA
ATOM     19  C   UNL d   1      53.339  36.707  54.894  0.00  0.00     0.182 C 
ENDBRANCH  17  18
ENDBRANCH  16  17
ENDBRANCH  15  16
ENDBRANCH  13  15
ENDBRANCH   3  13
BRANCH   5  20
ATOM     20  C   UNL d   1      52.159  32.791  53.109  0.00  0.00     0.046 A 
ATOM     21  S   UNL d   1      51.955  33.166  52.403  0.00  0.00    -0.085 SA
ATOM     22  C   UNL d   1      51.170  33.412  52.467  0.00  0.00     0.035 A 
ATOM     23  C   UNL d   1      50.893  33.189  53.210  0.00  0.00     0.007 A 
ATOM     24  C   UNL d   1      51.501  32.806  53.606  0.00  0.00     0.009 A 
ENDBRANCH   5  20
TORSDOF 6
ENDMDL
