MODEL 1
REMARK VINA RESULT:      -1.9      0.000      0.000
REMARK  5 active torsions:
REMARK  status: ('A' for Active; 'I' for Inactive)
REMARK       I    between atoms: N_2  and  C_1 
REMARK    1  A    between atoms: C_3  and  C_1 
REMARK    2  A    between atoms: C_5  and  N_2 
REMARK    3  A    between atoms: C_6  and  C_3 
REMARK    4  A    between atoms: C_7  and  C_3 
REMARK    5  A    between atoms: C_9  and  C_5 
ROOT
ATOM      1  C   UNL d   1      31.713  17.412 -24.327  0.00  0.00     0.058 C 
ENDROOT
BRANCH   1   2
ATOM      2  C   UNL d   1      30.737  17.530 -24.625  0.00  0.00     0.275 C 
ATOM      3  N   UNL d   1      29.976  17.411 -24.649  0.00  0.00    -0.231 NA
ATOM      4  O   UNL d   1      31.072  18.065 -25.090  0.00  0.00    -0.266 OA
BRANCH   3   5
ATOM      5  C   UNL d   1      29.632  16.864 -24.174  0.00  0.00     0.146 C 
ATOM      6  C   UNL d   1      29.604  17.385 -23.588  0.00  0.00     0.033 C 
ATOM      7  C   UNL d   1      29.666  16.345 -24.778  0.00  0.00     0.033 C 
BRANCH   5   8
ATOM      8  C   UNL d   1      29.288  16.307 -23.712  0.00  0.00     0.229 C 
ATOM      9  O   UNL d   1      28.569  16.021 -23.920  0.00  0.00    -0.286 OA
ENDBRANCH   5   8
ENDBRANCH   3   5
ENDBRANCH   1   2
BRANCH   1  10
ATOM     10  C   UNL d   1      32.106  18.045 -24.007  0.00  0.00     0.005 A 
ATOM     11  C   UNL d   1      32.105  18.170 -23.205  0.00  0.00     0.000 A 
ATOM     12  C   UNL d   1      32.507  18.817 -22.887  0.00  0.00     0.000 A 
ATOM     13  C   UNL d   1      32.911  19.340 -23.380  0.00  0.00     0.000 A 
ATOM     14  C   UNL d   1      32.910  19.209 -24.202  0.00  0.00     0.000 A 
ATOM     15  C   UNL d   1      32.511  18.566 -24.518  0.00  0.00     0.000 A 
ENDBRANCH   1  10
BRANCH   1  16
ATOM     16  C   UNL d   1      32.210  16.771 -24.345  0.00  0.00     0.005 A 
ATOM     17  C   UNL d   1      32.370  16.341 -23.657  0.00  0.00     0.000 A 
ATOM     18  C   UNL d   1      32.881  15.682 -23.675  0.00  0.00     0.000 A 
ATOM     19  C   UNL d   1      33.235  15.453 -24.392  0.00  0.00     0.000 A 
ATOM     20  C   UNL d   1      33.072  15.889 -25.090  0.00  0.00     0.000 A 
ATOM     21  C   UNL d   1      32.562  16.543 -25.056  0.00  0.00     0.000 A 
ENDBRANCH   1  16
TORSDOF 5
ENDMDL
MODEL 2
REMARK VINA RESULT:      -1.8      0.857      2.211
REMARK  5 active torsions:
REMARK  status: ('A' for Active; 'I' for Inactive)
REMARK       I    between atoms: N_2  and  C_1 
REMARK    1  A    between atoms: C_3  and  C_1 
REMARK    2  A    between atoms: C_5  and  N_2 
REMARK    3  A    between atoms: C_6  and  C_3 
REMARK    4  A    between atoms: C_7  and  C_3 
REMARK    5  A    between atoms: C_9  and  C_5 
ROOT
ATOM      1  C   UNL d   1      31.757  16.942 -24.235  0.00  0.00     0.058 C 
ENDROOT
BRANCH   1   2
ATOM      2  C   UNL d   1      30.907  16.564 -24.671  0.00  0.00     0.275 C 
ATOM      3  N   UNL d   1      30.155  16.458 -24.800  0.00  0.00    -0.231 NA
ATOM      4  O   UNL d   1      31.443  16.178 -25.095  0.00  0.00    -0.266 OA
BRANCH   3   5
ATOM      5  C   UNL d   1      29.606  16.851 -24.368  0.00  0.00     0.146 C 
ATOM      6  C   UNL d   1      29.558  16.244 -23.872  0.00  0.00     0.033 C 
ATOM      7  C   UNL d   1      29.665  17.459 -24.879  0.00  0.00     0.033 C 
BRANCH   5   8
ATOM      8  C   UNL d   1      29.058  17.255 -23.945  0.00  0.00     0.229 C 
ATOM      9  O   UNL d   1      28.536  17.723 -24.336  0.00  0.00    -0.286 OA
ENDBRANCH   5   8
ENDBRANCH   3   5
ENDBRANCH   1   2
BRANCH   1  10
ATOM     10  C   UNL d   1      32.213  16.454 -23.776  0.00  0.00     0.005 A 
ATOM     11  C   UNL d   1      32.126  16.446 -22.969  0.00  0.00     0.000 A 
ATOM     12  C   UNL d   1      32.594  15.946 -22.507  0.00  0.00     0.000 A 
ATOM     13  C   UNL d   1      33.152  15.453 -22.861  0.00  0.00     0.000 A 
ATOM     14  C   UNL d   1      33.239  15.464 -23.688  0.00  0.00     0.000 A 
ATOM     15  C   UNL d   1      32.774  15.960 -24.148  0.00  0.00     0.000 A 
ENDBRANCH   1  10
BRANCH   1  16
ATOM     16  C   UNL d   1      32.093  17.680 -24.256  0.00  0.00     0.005 A 
ATOM     17  C   UNL d   1      32.111  18.155 -23.579  0.00  0.00     0.000 A 
ATOM     18  C   UNL d   1      32.455  18.914 -23.599  0.00  0.00     0.000 A 
ATOM     19  C   UNL d   1      32.786  19.199 -24.308  0.00  0.00     0.000 A 
ATOM     20  C   UNL d   1      32.767  18.717 -24.994  0.00  0.00     0.000 A 
ATOM     21  C   UNL d   1      32.421  17.964 -24.958  0.00  0.00     0.000 A 
ENDBRANCH   1  16
TORSDOF 5
ENDMDL
MODEL 3
REMARK VINA RESULT:      -0.5      0.932      1.184
REMARK  5 active torsions:
REMARK  status: ('A' for Active; 'I' for Inactive)
REMARK       I    between atoms: N_2  and  C_1 
REMARK    1  A    between atoms: C_3  and  C_1 
REMARK    2  A    between atoms: C_5  and  N_2 
REMARK    3  A    between atoms: C_6  and  C_3 
REMARK    4  A    between atoms: C_7  and  C_3 
REMARK    5  A    between atoms: C_9  and  C_5 
ROOT
ATOM      1  C   UNL d   1      31.401  16.673 -24.076  0.00  0.00     0.058 C 
ENDROOT
BRANCH   1   2
ATOM      2  C   UNL d   1      30.516  16.373 -24.501  0.00  0.00     0.275 C 
ATOM      3  N   UNL d   1      29.759  16.236 -24.561  0.00  0.00    -0.231 NA
ATOM      4  O   UNL d   1      30.999  16.209 -25.097  0.00  0.00    -0.266 OA
BRANCH   3   5
ATOM      5  C   UNL d   1      29.264  16.403 -23.953  0.00  0.00     0.146 C 
ATOM      6  C   UNL d   1      29.198  17.144 -24.206  0.00  0.00     0.033 C 
ATOM      7  C   UNL d   1      29.340  15.649 -23.708  0.00  0.00     0.033 C 
BRANCH   5   8
ATOM      8  C   UNL d   1      28.770  16.556 -23.341  0.00  0.00     0.229 C 
ATOM      9  O   UNL d   1      28.107  16.112 -23.259  0.00  0.00    -0.286 OA
ENDBRANCH   5   8
ENDBRANCH   3   5
ENDBRANCH   1   2
BRANCH   1  10
ATOM     10  C   UNL d   1      31.655  17.434 -24.194  0.00  0.00     0.005 A 
ATOM     11  C   UNL d   1      31.512  18.008 -23.638  0.00  0.00     0.000 A 
ATOM     12  C   UNL d   1      31.773  18.781 -23.764  0.00  0.00     0.000 A 
ATOM     13  C   UNL d   1      32.180  18.975 -24.455  0.00  0.00     0.000 A 
ATOM     14  C   UNL d   1      32.326  18.385 -25.023  0.00  0.00     0.000 A 
ATOM     15  C   UNL d   1      32.066  17.616 -24.897  0.00  0.00     0.000 A 
ENDBRANCH   1  10
BRANCH   1  16
ATOM     16  C   UNL d   1      31.939  16.281 -23.613  0.00  0.00     0.005 A 
ATOM     17  C   UNL d   1      31.878  16.298 -22.788  0.00  0.00     0.000 A 
ATOM     18  C   UNL d   1      32.431  15.895 -22.311  0.00  0.00     0.000 A 
ATOM     19  C   UNL d   1      33.052  15.470 -22.667  0.00  0.00     0.000 A 
ATOM     20  C   UNL d   1      33.112  15.453 -23.503  0.00  0.00     0.000 A 
ATOM     21  C   UNL d   1      32.555  15.859 -23.965  0.00  0.00     0.000 A 
ENDBRANCH   1  16
TORSDOF 5
ENDMDL
