MODEL 1
REMARK VINA RESULT:      -3.9      0.000      0.000
REMARK  6 active torsions:
REMARK  status: ('A' for Active; 'I' for Inactive)
REMARK    1  A    between atoms: N_3  and  S_1 
REMARK    2  A    between atoms: C_5  and  S_1 
REMARK    3  A    between atoms: S_2  and  N_4 
REMARK    4  A    between atoms: C_6  and  S_2 
REMARK    5  A    between atoms: O_25  and  C_15 
REMARK    6  A    between atoms: O_26  and  C_16 
ROOT
ATOM      1  N   UNL d   1      56.592   0.073  32.325  0.00  0.00    -0.228 N 
ATOM      2  N   UNL d   1      57.592  -0.266  31.055  0.00  0.00    -0.226 N 
ATOM      3  C   UNL d   1      56.672  -0.706  32.050  0.00  0.00     0.093 A 
ATOM      4  C   UNL d   1      57.166  -0.876  31.421  0.00  0.00     0.110 A 
ATOM      5  C   UNL d   1      57.015   0.680  31.962  0.00  0.00     0.111 A 
ATOM      6  C   UNL d   1      57.518   0.511  31.323  0.00  0.00     0.111 A 
ATOM      7  C   UNL d   1      56.246  -1.317  32.416  0.00  0.00     0.021 C 
ENDROOT
BRANCH   1   8
ATOM      8  S   UNL d   1      56.096   0.233  32.954  0.00  0.00     0.273 S 
ATOM      9  O   UNL d   1      55.409   0.667  32.842  0.00  0.00    -0.200 OA
ATOM     10  O   UNL d   1      56.287  -0.045  33.712  0.00  0.00    -0.200 OA
BRANCH   8  11
ATOM     11  C   UNL d   1      55.611   0.382  33.604  0.00  0.00     0.126 A 
ATOM     12  C   UNL d   1      55.952   0.480  34.351  0.00  0.00     0.106 A 
ATOM     13  C   UNL d   1      55.482   0.628  35.003  0.00  0.00     0.025 A 
ATOM     14  C   UNL d   1      54.648   0.682  34.921  0.00  0.00     0.002 A 
ATOM     15  C   UNL d   1      54.310   0.583  34.172  0.00  0.00     0.001 A 
ATOM     16  C   UNL d   1      54.791   0.434  33.518  0.00  0.00     0.015 A 
ATOM     17  C   UNL d   1      53.497   0.634  34.081  0.00  0.00     0.000 C 
BRANCH  12  18
ATOM     18  O   UNL d   1      56.764   0.429  34.441  0.00  0.00    -0.327 OA
ATOM     19  C   UNL d   1      57.105   0.625  35.167  0.00  0.00     0.181 C 
ENDBRANCH  12  18
ENDBRANCH   8  11
ENDBRANCH   1   8
BRANCH   2  20
ATOM     20  S   UNL d   1      58.091  -0.437  30.420  0.00  0.00     0.273 S 
ATOM     21  O   UNL d   1      58.896  -0.566  30.551  0.00  0.00    -0.200 OA
ATOM     22  O   UNL d   1      57.788  -0.479  29.656  0.00  0.00    -0.200 OA
BRANCH  20  23
ATOM     23  C   UNL d   1      58.612  -0.610  29.804  0.00  0.00     0.126 A 
ATOM     24  C   UNL d   1      58.714  -1.391  29.563  0.00  0.00     0.106 A 
ATOM     25  C   UNL d   1      59.231  -1.558  28.952  0.00  0.00     0.025 A 
ATOM     26  C   UNL d   1      59.647  -0.953  28.581  0.00  0.00     0.002 A 
ATOM     27  C   UNL d   1      59.541  -0.173  28.827  0.00  0.00     0.001 A 
ATOM     28  C   UNL d   1      59.019  -0.004  29.443  0.00  0.00     0.015 A 
ATOM     29  C   UNL d   1      59.957   0.442  28.458  0.00  0.00     0.000 C 
BRANCH  24  30
ATOM     30  O   UNL d   1      58.302  -1.995  29.930  0.00  0.00    -0.327 OA
ATOM     31  C   UNL d   1      58.431  -2.776  29.713  0.00  0.00     0.181 C 
ENDBRANCH  24  30
ENDBRANCH  20  23
ENDBRANCH   2  20
TORSDOF 6
ENDMDL
MODEL 2
REMARK VINA RESULT:      -2.8      0.519      5.574
REMARK  6 active torsions:
REMARK  status: ('A' for Active; 'I' for Inactive)
REMARK    1  A    between atoms: N_3  and  S_1 
REMARK    2  A    between atoms: C_5  and  S_1 
REMARK    3  A    between atoms: S_2  and  N_4 
REMARK    4  A    between atoms: C_6  and  S_2 
REMARK    5  A    between atoms: O_25  and  C_15 
REMARK    6  A    between atoms: O_26  and  C_16 
ROOT
ATOM      1  N   UNL d   1      57.864  -0.594  30.899  0.00  0.00    -0.228 N 
ATOM      2  N   UNL d   1      56.870  -0.157  32.143  0.00  0.00    -0.226 N 
ATOM      3  C   UNL d   1      57.939   0.153  31.253  0.00  0.00     0.093 A 
ATOM      4  C   UNL d   1      57.447   0.371  31.869  0.00  0.00     0.110 A 
ATOM      5  C   UNL d   1      57.291  -1.120  31.171  0.00  0.00     0.111 A 
ATOM      6  C   UNL d   1      56.790  -0.902  31.796  0.00  0.00     0.111 A 
ATOM      7  C   UNL d   1      58.516   0.682  30.979  0.00  0.00     0.021 C 
ENDROOT
BRANCH   1   8
ATOM      8  S   UNL d   1      58.360  -0.804  30.284  0.00  0.00     0.273 S 
ATOM      9  O   UNL d   1      58.398  -0.346  29.605  0.00  0.00    -0.200 OA
ATOM     10  O   UNL d   1      58.828  -1.486  30.346  0.00  0.00    -0.200 OA
BRANCH   8  11
ATOM     11  C   UNL d   1      58.867  -1.037  29.677  0.00  0.00     0.126 A 
ATOM     12  C   UNL d   1      58.790  -1.791  29.350  0.00  0.00     0.106 A 
ATOM     13  C   UNL d   1      59.287  -2.034  28.748  0.00  0.00     0.025 A 
ATOM     14  C   UNL d   1      59.882  -1.518  28.455  0.00  0.00     0.002 A 
ATOM     15  C   UNL d   1      59.956  -0.762  28.786  0.00  0.00     0.001 A 
ATOM     16  C   UNL d   1      59.451  -0.525  29.393  0.00  0.00     0.015 A 
ATOM     17  C   UNL d   1      60.533  -0.251  28.508  0.00  0.00     0.000 C 
BRANCH  12  18
ATOM     18  O   UNL d   1      58.213  -2.302  29.627  0.00  0.00    -0.327 OA
ATOM     19  C   UNL d   1      58.188  -3.078  29.346  0.00  0.00     0.181 C 
ENDBRANCH  12  18
ENDBRANCH   8  11
ENDBRANCH   1   8
BRANCH   2  20
ATOM     20  S   UNL d   1      56.374   0.063  32.765  0.00  0.00     0.273 S 
ATOM     21  O   UNL d   1      56.557  -0.160  33.539  0.00  0.00    -0.200 OA
ATOM     22  O   UNL d   1      55.696   0.506  32.616  0.00  0.00    -0.200 OA
BRANCH  20  23
ATOM     23  C   UNL d   1      55.896   0.270  33.405  0.00  0.00     0.126 A 
ATOM     24  C   UNL d   1      56.238   0.407  34.142  0.00  0.00     0.106 A 
ATOM     25  C   UNL d   1      55.762   0.611  34.774  0.00  0.00     0.025 A 
ATOM     26  C   UNL d   1      54.947   0.680  34.676  0.00  0.00     0.002 A 
ATOM     27  C   UNL d   1      54.611   0.542  33.936  0.00  0.00     0.001 A 
ATOM     28  C   UNL d   1      55.092   0.336  33.299  0.00  0.00     0.015 A 
ATOM     29  C   UNL d   1      53.791   0.610  33.830  0.00  0.00     0.000 C 
BRANCH  24  30
ATOM     30  O   UNL d   1      57.047   0.339  34.242  0.00  0.00    -0.327 OA
ATOM     31  C   UNL d   1      57.403   0.613  34.929  0.00  0.00     0.181 C 
ENDBRANCH  24  30
ENDBRANCH  20  23
ENDBRANCH   2  20
TORSDOF 6
ENDMDL
MODEL 3
REMARK VINA RESULT:      -0.9      0.624      5.582
REMARK  6 active torsions:
REMARK  status: ('A' for Active; 'I' for Inactive)
REMARK    1  A    between atoms: N_3  and  S_1 
REMARK    2  A    between atoms: C_5  and  S_1 
REMARK    3  A    between atoms: S_2  and  N_4 
REMARK    4  A    between atoms: C_6  and  S_2 
REMARK    5  A    between atoms: O_25  and  C_15 
REMARK    6  A    between atoms: O_26  and  C_16 
ROOT
ATOM      1  N   UNL d   1      57.574  -0.645  31.130  0.00  0.00    -0.228 N 
ATOM      2  N   UNL d   1      56.606  -0.199  32.391  0.00  0.00    -0.226 N 
ATOM      3  C   UNL d   1      57.716   0.065  31.537  0.00  0.00     0.093 A 
ATOM      4  C   UNL d   1      57.237   0.287  32.162  0.00  0.00     0.110 A 
ATOM      5  C   UNL d   1      56.947  -1.129  31.357  0.00  0.00     0.111 A 
ATOM      6  C   UNL d   1      56.460  -0.906  31.991  0.00  0.00     0.111 A 
ATOM      7  C   UNL d   1      58.347   0.551  31.307  0.00  0.00     0.021 C 
ENDROOT
BRANCH   1   8
ATOM      8  S   UNL d   1      58.057  -0.860  30.506  0.00  0.00     0.273 S 
ATOM      9  O   UNL d   1      58.806  -1.164  30.645  0.00  0.00    -0.200 OA
ATOM     10  O   UNL d   1      57.789  -0.769  29.727  0.00  0.00    -0.200 OA
BRANCH   8  11
ATOM     11  C   UNL d   1      58.525  -1.069  29.861  0.00  0.00     0.126 A 
ATOM     12  C   UNL d   1      58.390  -0.712  29.128  0.00  0.00     0.106 A 
ATOM     13  C   UNL d   1      58.848  -0.911  28.481  0.00  0.00     0.025 A 
ATOM     14  C   UNL d   1      59.461  -1.481  28.554  0.00  0.00     0.002 A 
ATOM     15  C   UNL d   1      59.594  -1.836  29.290  0.00  0.00     0.001 A 
ATOM     16  C   UNL d   1      59.128  -1.630  29.939  0.00  0.00     0.015 A 
ATOM     17  C   UNL d   1      60.189  -2.392  29.372  0.00  0.00     0.000 C 
BRANCH  12  18
ATOM     18  O   UNL d   1      57.795  -0.156  29.046  0.00  0.00    -0.327 OA
ATOM     19  C   UNL d   1      57.945   0.542  28.632  0.00  0.00     0.181 C 
ENDBRANCH  12  18
ENDBRANCH   8  11
ENDBRANCH   1   8
BRANCH   2  20
ATOM     20  S   UNL d   1      56.123   0.026  33.022  0.00  0.00     0.273 S 
ATOM     21  O   UNL d   1      56.135  -0.407  33.726  0.00  0.00    -0.200 OA
ATOM     22  O   UNL d   1      55.629   0.680  32.952  0.00  0.00    -0.200 OA
BRANCH  20  23
ATOM     23  C   UNL d   1      55.652   0.228  33.668  0.00  0.00     0.126 A 
ATOM     24  C   UNL d   1      56.005   0.483  34.368  0.00  0.00     0.106 A 
ATOM     25  C   UNL d   1      55.534   0.682  35.005  0.00  0.00     0.025 A 
ATOM     26  C   UNL d   1      54.715   0.629  34.950  0.00  0.00     0.002 A 
ATOM     27  C   UNL d   1      54.367   0.374  34.248  0.00  0.00     0.001 A 
ATOM     28  C   UNL d   1      54.842   0.173  33.604  0.00  0.00     0.015 A 
ATOM     29  C   UNL d   1      53.542   0.318  34.185  0.00  0.00     0.000 C 
BRANCH  24  30
ATOM     30  O   UNL d   1      56.819   0.536  34.425  0.00  0.00    -0.327 OA
ATOM     31  C   UNL d   1      57.177   0.628  35.157  0.00  0.00     0.181 C 
ENDBRANCH  24  30
ENDBRANCH  20  23
ENDBRANCH   2  20
TORSDOF 6
ENDMDL
