MODEL 1
REMARK VINA RESULT:      -6.1      0.000      0.000
REMARK  5 active torsions:
REMARK  status: ('A' for Active; 'I' for Inactive)
REMARK    1  A    between atoms: C_3  and  S_1 
REMARK    2  A    between atoms: C_7  and  S_1 
REMARK    3  A    between atoms: C_2  and  C_3 
REMARK    4  A    between atoms: C_9  and  C_3 
REMARK    5  A    between atoms: N_8  and  C_4 
ROOT
ATOM      1  C   UNL d   1      53.474  32.151  53.613  0.00  0.00     0.128 A 
ATOM      2  C   UNL d   1      53.725  32.079  54.389  0.00  0.00     0.166 A 
ATOM      3  N   UNL d   1      53.195  31.491  53.198  0.00  0.00    -0.240 NA
ATOM      4  N   UNL d   1      53.700  31.336  54.764  0.00  0.00    -0.225 NA
ATOM      5  C   UNL d   1      53.172  30.760  53.574  0.00  0.00     0.099 A 
ATOM      6  C   UNL d   1      53.422  30.684  54.349  0.00  0.00     0.101 A 
ATOM      7  C   UNL d   1      53.394  29.941  54.716  0.00  0.00     0.021 A 
ATOM      8  C   UNL d   1      52.894  30.108  53.159  0.00  0.00     0.021 A 
ATOM      9  C   UNL d   1      53.118  29.288  54.309  0.00  0.00     0.002 A 
ATOM     10  C   UNL d   1      52.869  29.374  53.531  0.00  0.00     0.002 A 
ENDROOT
BRANCH   1  11
ATOM     11  C   UNL d   1      53.497  32.882  53.238  0.00  0.00     0.129 C 
BRANCH  11  12
ATOM     12  S   UNL d   1      52.798  33.121  52.730  0.00  0.00     0.213 S 
ATOM     13  O   UNL d   1      52.819  32.891  51.875  0.00  0.00    -0.217 OA
ATOM     14  O   UNL d   1      53.323  32.714  52.226  0.00  0.00    -0.217 OA
BRANCH  12  15
ATOM     15  C   UNL d   1      52.099  33.534  52.898  0.00  0.00     0.088 A 
ATOM     16  C   UNL d   1      52.056  34.347  52.725  0.00  0.00     0.011 A 
ATOM     17  C   UNL d   1      51.359  34.768  52.891  0.00  0.00     0.001 A 
ATOM     18  C   UNL d   1      52.699  34.735  52.392  0.00  0.00     0.001 C 
ATOM     19  C   UNL d   1      50.711  34.372  53.228  0.00  0.00     0.000 A 
ATOM     20  C   UNL d   1      50.762  33.559  53.398  0.00  0.00     0.001 A 
ATOM     21  C   UNL d   1      51.457  33.147  53.231  0.00  0.00     0.011 A 
ATOM     22  C   UNL d   1      50.118  33.172  53.731  0.00  0.00     0.000 C 
ENDBRANCH  12  15
ENDBRANCH  11  12
BRANCH  11  23
ATOM     23  C   UNL d   1      54.110  33.490  53.249  0.00  0.00     0.135 C 
ATOM     24  N   UNL d   1      54.797  33.587  52.684  0.00  0.00    -0.146 N 
ENDBRANCH  11  23
ENDBRANCH   1  11
BRANCH   2  25
ATOM     25  N   UNL d   1      54.006  32.744  54.804  0.00  0.00    -0.284 N 
ATOM     26  C   UNL d   1      53.490  33.179  55.293  0.00  0.00     0.108 A 
ATOM     27  C   UNL d   1      53.775  33.840  55.703  0.00  0.00     0.142 A 
ATOM     28  O   UNL d   1      54.567  34.074  55.634  0.00  0.00    -0.300 OA
ATOM     29  C   UNL d   1      55.083  33.638  55.144  0.00  0.00     0.142 A 
ATOM     30  C   UNL d   1      54.808  32.968  54.724  0.00  0.00     0.108 A 
ENDBRANCH   2  25
TORSDOF 5
ENDMDL
MODEL 2
REMARK VINA RESULT:      -5.9      0.973      3.268
REMARK  5 active torsions:
REMARK  status: ('A' for Active; 'I' for Inactive)
REMARK    1  A    between atoms: C_3  and  S_1 
REMARK    2  A    between atoms: C_7  and  S_1 
REMARK    3  A    between atoms: C_2  and  C_3 
REMARK    4  A    between atoms: C_9  and  C_3 
REMARK    5  A    between atoms: N_8  and  C_4 
ROOT
ATOM      1  C   UNL d   1      53.023  32.937  53.514  0.00  0.00     0.128 A 
ATOM      2  C   UNL d   1      53.092  33.535  54.068  0.00  0.00     0.166 A 
ATOM      3  N   UNL d   1      52.351  32.886  53.032  0.00  0.00    -0.240 NA
ATOM      4  N   UNL d   1      52.483  34.096  54.149  0.00  0.00    -0.225 NA
ATOM      5  C   UNL d   1      51.753  33.443  53.116  0.00  0.00     0.099 A 
ATOM      6  C   UNL d   1      51.818  34.042  53.669  0.00  0.00     0.101 A 
ATOM      7  C   UNL d   1      51.207  34.597  53.745  0.00  0.00     0.021 A 
ATOM      8  C   UNL d   1      51.088  33.388  52.637  0.00  0.00     0.021 A 
ATOM      9  C   UNL d   1      50.543  34.549  53.270  0.00  0.00     0.002 A 
ATOM     10  C   UNL d   1      50.485  33.944  52.717  0.00  0.00     0.002 A 
ENDROOT
BRANCH   1  11
ATOM     11  C   UNL d   1      53.622  32.381  53.430  0.00  0.00     0.129 C 
BRANCH  11  12
ATOM     12  S   UNL d   1      53.401  31.557  53.150  0.00  0.00     0.213 S 
ATOM     13  O   UNL d   1      53.309  31.436  52.278  0.00  0.00    -0.217 OA
ATOM     14  O   UNL d   1      53.466  32.026  52.464  0.00  0.00    -0.217 OA
BRANCH  12  15
ATOM     15  C   UNL d   1      53.257  30.848  53.555  0.00  0.00     0.088 A 
ATOM     16  C   UNL d   1      52.956  30.195  53.136  0.00  0.00     0.011 A 
ATOM     17  C   UNL d   1      52.809  29.481  53.534  0.00  0.00     0.001 A 
ATOM     18  C   UNL d   1      52.803  30.254  52.331  0.00  0.00     0.001 C 
ATOM     19  C   UNL d   1      52.964  29.426  54.348  0.00  0.00     0.000 A 
ATOM     20  C   UNL d   1      53.265  30.083  54.760  0.00  0.00     0.001 A 
ATOM     21  C   UNL d   1      53.409  30.790  54.359  0.00  0.00     0.011 A 
ATOM     22  C   UNL d   1      53.418  30.024  55.566  0.00  0.00     0.000 C 
ENDBRANCH  12  15
ENDBRANCH  11  12
BRANCH  11  23
ATOM     23  C   UNL d   1      54.470  32.456  53.572  0.00  0.00     0.135 C 
ATOM     24  N   UNL d   1      55.134  32.393  52.975  0.00  0.00    -0.146 N 
ENDBRANCH  11  23
ENDBRANCH   1  11
BRANCH   2  25
ATOM     25  N   UNL d   1      53.768  33.585  54.552  0.00  0.00    -0.284 N 
ATOM     26  C   UNL d   1      53.769  33.231  55.307  0.00  0.00     0.108 A 
ATOM     27  C   UNL d   1      54.445  33.283  55.783  0.00  0.00     0.142 A 
ATOM     28  O   UNL d   1      55.120  33.684  55.518  0.00  0.00    -0.300 OA
ATOM     29  C   UNL d   1      55.120  34.038  54.763  0.00  0.00     0.142 A 
ATOM     30  C   UNL d   1      54.443  33.992  54.272  0.00  0.00     0.108 A 
ENDBRANCH   2  25
TORSDOF 5
ENDMDL
MODEL 3
REMARK VINA RESULT:      -5.1      1.283      2.840
REMARK  5 active torsions:
REMARK  status: ('A' for Active; 'I' for Inactive)
REMARK    1  A    between atoms: C_3  and  S_1 
REMARK    2  A    between atoms: C_7  and  S_1 
REMARK    3  A    between atoms: C_2  and  C_3 
REMARK    4  A    between atoms: C_9  and  C_3 
REMARK    5  A    between atoms: N_8  and  C_4 
ROOT
ATOM      1  C   UNL d   1      52.830  32.549  53.104  0.00  0.00     0.128 A 
ATOM      2  C   UNL d   1      52.034  32.368  53.048  0.00  0.00     0.166 A 
ATOM      3  N   UNL d   1      53.391  31.948  53.210  0.00  0.00    -0.240 NA
ATOM      4  N   UNL d   1      51.785  31.576  53.097  0.00  0.00    -0.225 NA
ATOM      5  C   UNL d   1      53.139  31.167  53.257  0.00  0.00     0.099 A 
ATOM      6  C   UNL d   1      52.344  30.983  53.201  0.00  0.00     0.101 A 
ATOM      7  C   UNL d   1      52.103  30.191  53.251  0.00  0.00     0.021 A 
ATOM      8  C   UNL d   1      53.698  30.574  53.362  0.00  0.00     0.021 A 
ATOM      9  C   UNL d   1      52.655  29.597  53.355  0.00  0.00     0.002 A 
ATOM     10  C   UNL d   1      53.452  29.791  53.411  0.00  0.00     0.002 A 
ENDROOT
BRANCH   1  11
ATOM     11  C   UNL d   1      53.081  33.330  53.057  0.00  0.00     0.129 C 
BRANCH  11  12
ATOM     12  S   UNL d   1      53.714  33.609  53.629  0.00  0.00     0.213 S 
ATOM     13  O   UNL d   1      54.552  33.393  53.444  0.00  0.00    -0.217 OA
ATOM     14  O   UNL d   1      54.112  33.188  53.029  0.00  0.00    -0.217 OA
BRANCH  12  15
ATOM     15  C   UNL d   1      53.679  34.049  54.330  0.00  0.00     0.088 A 
ATOM     16  C   UNL d   1      54.074  33.768  55.007  0.00  0.00     0.011 A 
ATOM     17  C   UNL d   1      54.044  34.204  55.714  0.00  0.00     0.001 A 
ATOM     18  C   UNL d   1      54.493  33.062  54.978  0.00  0.00     0.001 C 
ATOM     19  C   UNL d   1      53.619  34.917  55.738  0.00  0.00     0.000 A 
ATOM     20  C   UNL d   1      53.226  35.192  55.057  0.00  0.00     0.001 A 
ATOM     21  C   UNL d   1      53.260  34.755  54.359  0.00  0.00     0.011 A 
ATOM     22  C   UNL d   1      52.807  35.898  55.086  0.00  0.00     0.000 C 
ENDBRANCH  12  15
ENDBRANCH  11  12
BRANCH  11  23
ATOM     23  C   UNL d   1      52.829  33.960  52.523  0.00  0.00     0.135 C 
ATOM     24  N   UNL d   1      53.319  34.391  51.912  0.00  0.00    -0.146 N 
ENDBRANCH  11  23
ENDBRANCH   1  11
BRANCH   2  25
ATOM     25  N   UNL d   1      51.472  32.974  52.941  0.00  0.00    -0.284 N 
ATOM     26  C   UNL d   1      51.379  33.331  52.193  0.00  0.00     0.108 A 
ATOM     27  C   UNL d   1      50.818  33.932  52.094  0.00  0.00     0.142 A 
ATOM     28  O   UNL d   1      50.349  34.184  52.729  0.00  0.00    -0.300 OA
ATOM     29  C   UNL d   1      50.442  33.828  53.477  0.00  0.00     0.142 A 
ATOM     30  C   UNL d   1      51.005  33.218  53.591  0.00  0.00     0.108 A 
ENDBRANCH   2  25
TORSDOF 5
ENDMDL
MODEL 4
REMARK VINA RESULT:      -4.4      1.207      3.816
REMARK  5 active torsions:
REMARK  status: ('A' for Active; 'I' for Inactive)
REMARK    1  A    between atoms: C_3  and  S_1 
REMARK    2  A    between atoms: C_7  and  S_1 
REMARK    3  A    between atoms: C_2  and  C_3 
REMARK    4  A    between atoms: C_9  and  C_3 
REMARK    5  A    between atoms: N_8  and  C_4 
ROOT
ATOM      1  C   UNL d   1      52.835  32.846  53.748  0.00  0.00     0.128 A 
ATOM      2  C   UNL d   1      52.607  33.627  53.661  0.00  0.00     0.166 A 
ATOM      3  N   UNL d   1      53.482  32.648  54.227  0.00  0.00    -0.240 NA
ATOM      4  N   UNL d   1      53.026  34.227  54.057  0.00  0.00    -0.225 NA
ATOM      5  C   UNL d   1      53.892  33.245  54.616  0.00  0.00     0.099 A 
ATOM      6  C   UNL d   1      53.666  34.026  54.531  0.00  0.00     0.101 A 
ATOM      7  C   UNL d   1      54.089  34.619  54.928  0.00  0.00     0.021 A 
ATOM      8  C   UNL d   1      54.532  33.044  55.090  0.00  0.00     0.021 A 
ATOM      9  C   UNL d   1      54.727  34.426  55.401  0.00  0.00     0.002 A 
ATOM     10  C   UNL d   1      54.947  33.638  55.481  0.00  0.00     0.002 A 
ENDROOT
BRANCH   1  11
ATOM     11  C   UNL d   1      52.425  32.249  53.360  0.00  0.00     0.129 C 
BRANCH  11  12
ATOM     12  S   UNL d   1      52.887  31.541  53.059  0.00  0.00     0.213 S 
ATOM     13  O   UNL d   1      53.351  31.647  52.313  0.00  0.00    -0.217 OA
ATOM     14  O   UNL d   1      53.027  32.158  52.516  0.00  0.00    -0.217 OA
BRANCH  12  15
ATOM     15  C   UNL d   1      52.976  30.768  53.345  0.00  0.00     0.088 A 
ATOM     16  C   UNL d   1      53.022  30.137  52.804  0.00  0.00     0.011 A 
ATOM     17  C   UNL d   1      53.112  29.360  53.083  0.00  0.00     0.001 A 
ATOM     18  C   UNL d   1      52.979  30.281  51.996  0.00  0.00     0.001 C 
ATOM     19  C   UNL d   1      53.155  29.220  53.901  0.00  0.00     0.000 A 
ATOM     20  C   UNL d   1      53.108  29.856  54.436  0.00  0.00     0.001 A 
ATOM     21  C   UNL d   1      53.019  30.626  54.152  0.00  0.00     0.011 A 
ATOM     22  C   UNL d   1      53.151  29.713  55.243  0.00  0.00     0.000 C 
ENDBRANCH  12  15
ENDBRANCH  11  12
BRANCH  11  23
ATOM     23  C   UNL d   1      51.582  32.183  53.183  0.00  0.00     0.135 C 
ATOM     24  N   UNL d   1      50.967  31.697  53.615  0.00  0.00    -0.146 N 
ENDBRANCH  11  23
ENDBRANCH   1  11
BRANCH   2  25
ATOM     25  N   UNL d   1      51.957  33.823  53.179  0.00  0.00    -0.284 N 
ATOM     26  C   UNL d   1      52.074  34.004  52.374  0.00  0.00     0.108 A 
ATOM     27  C   UNL d   1      51.424  34.199  51.900  0.00  0.00     0.142 A 
ATOM     28  O   UNL d   1      50.657  34.216  52.215  0.00  0.00    -0.300 OA
ATOM     29  C   UNL d   1      50.540  34.035  53.021  0.00  0.00     0.142 A 
ATOM     30  C   UNL d   1      51.189  33.836  53.512  0.00  0.00     0.108 A 
ENDBRANCH   2  25
TORSDOF 5
ENDMDL
MODEL 5
REMARK VINA RESULT:      -3.9      1.397      3.966
REMARK  5 active torsions:
REMARK  status: ('A' for Active; 'I' for Inactive)
REMARK    1  A    between atoms: C_3  and  S_1 
REMARK    2  A    between atoms: C_7  and  S_1 
REMARK    3  A    between atoms: C_2  and  C_3 
REMARK    4  A    between atoms: C_9  and  C_3 
REMARK    5  A    between atoms: N_8  and  C_4 
ROOT
ATOM      1  C   UNL d   1      52.763  32.535  53.742  0.00  0.00     0.128 A 
ATOM      2  C   UNL d   1      52.437  32.108  53.125  0.00  0.00     0.166 A 
ATOM      3  N   UNL d   1      52.554  33.327  53.862  0.00  0.00    -0.240 NA
ATOM      4  N   UNL d   1      51.891  32.472  52.614  0.00  0.00    -0.225 NA
ATOM      5  C   UNL d   1      52.015  33.682  53.354  0.00  0.00     0.099 A 
ATOM      6  C   UNL d   1      51.686  33.259  52.736  0.00  0.00     0.101 A 
ATOM      7  C   UNL d   1      51.143  33.628  52.230  0.00  0.00     0.021 A 
ATOM      8  C   UNL d   1      51.810  34.469  53.476  0.00  0.00     0.021 A 
ATOM      9  C   UNL d   1      50.935  34.410  52.346  0.00  0.00     0.002 A 
ATOM     10  C   UNL d   1      51.270  34.829  52.970  0.00  0.00     0.002 A 
ENDROOT
BRANCH   1  11
ATOM     11  C   UNL d   1      53.303  32.180  54.250  0.00  0.00     0.129 C 
BRANCH  11  12
ATOM     12  S   UNL d   1      53.883  32.705  54.689  0.00  0.00     0.213 S 
ATOM     13  O   UNL d   1      53.728  32.851  55.548  0.00  0.00    -0.217 OA
ATOM     14  O   UNL d   1      53.308  32.476  55.248  0.00  0.00    -0.217 OA
BRANCH  12  15
ATOM     15  C   UNL d   1      54.569  33.104  54.449  0.00  0.00     0.088 A 
ATOM     16  C   UNL d   1      54.907  33.671  54.956  0.00  0.00     0.011 A 
ATOM     17  C   UNL d   1      55.595  34.075  54.723  0.00  0.00     0.001 A 
ATOM     18  C   UNL d   1      54.564  33.833  55.684  0.00  0.00     0.001 C 
ATOM     19  C   UNL d   1      55.939  33.908  53.986  0.00  0.00     0.000 A 
ATOM     20  C   UNL d   1      55.595  33.339  53.485  0.00  0.00     0.001 A 
ATOM     21  C   UNL d   1      54.912  32.941  53.722  0.00  0.00     0.011 A 
ATOM     22  C   UNL d   1      55.939  33.177  52.756  0.00  0.00     0.000 C 
ENDBRANCH  12  15
ENDBRANCH  11  12
BRANCH  11  23
ATOM     23  C   UNL d   1      53.413  31.346  54.444  0.00  0.00     0.135 C 
ATOM     24  N   UNL d   1      53.466  30.973  55.256  0.00  0.00    -0.146 N 
ENDBRANCH  11  23
ENDBRANCH   1  11
BRANCH   2  25
ATOM     25  N   UNL d   1      52.648  31.311  53.007  0.00  0.00    -0.284 N 
ATOM     26  C   UNL d   1      53.317  31.120  52.547  0.00  0.00     0.108 A 
ATOM     27  C   UNL d   1      53.522  30.326  52.433  0.00  0.00     0.142 A 
ATOM     28  O   UNL d   1      53.071  29.718  52.770  0.00  0.00    -0.300 OA
ATOM     29  C   UNL d   1      52.401  29.909  53.229  0.00  0.00     0.142 A 
ATOM     30  C   UNL d   1      52.183  30.708  53.352  0.00  0.00     0.108 A 
ENDBRANCH   2  25
TORSDOF 5
ENDMDL
