MODEL 1
REMARK VINA RESULT:      -8.0      0.000      0.000
REMARK  6 active torsions:
REMARK  status: ('A' for Active; 'I' for Inactive)
REMARK    1  A    between atoms: C_4  and  N_1 
REMARK    2  A    between atoms: C_7  and  C_3 
REMARK    3  A    between atoms: N_13  and  C_4 
REMARK    4  A    between atoms: C_16  and  N_13 
REMARK    5  A    between atoms: C_20  and  C_16 
REMARK    6  A    between atoms: C_17  and  C_20 
ROOT
ATOM      1  N   UNL d   1      52.586  34.132  53.624  0.00  0.00    -0.281 N 
ATOM      2  C   UNL d   1      53.551  33.484  54.436  0.00  0.00     0.080 A 
ATOM      3  C   UNL d   1      52.984  33.450  53.846  0.00  0.00     0.084 A 
ATOM      4  N   UNL d   1      53.720  34.198  54.804  0.00  0.00    -0.301 N 
ATOM      5  C   UNL d   1      52.756  34.852  53.995  0.00  0.00     0.101 A 
ATOM      6  C   UNL d   1      54.032  32.903  54.771  0.00  0.00     0.021 A 
ATOM      7  C   UNL d   1      54.307  34.066  55.370  0.00  0.00     0.080 A 
ATOM      8  C   UNL d   1      53.327  34.878  54.587  0.00  0.00     0.100 A 
ATOM      9  C   UNL d   1      54.503  33.265  55.352  0.00  0.00     0.021 A 
ENDROOT
BRANCH   1  10
ATOM     10  C   UNL d   1      52.012  34.108  53.029  0.00  0.00     0.184 C 
ATOM     11  S   UNL d   1      52.245  34.148  52.246  0.00  0.00    -0.040 SA
BRANCH  10  12
ATOM     12  N   UNL d   1      51.218  34.044  53.221  0.00  0.00    -0.330 N 
ATOM     13  H   UNL d   1      50.980  33.548  53.836  0.00  0.00     0.168 HD
BRANCH  12  14
ATOM     14  C   UNL d   1      50.658  34.473  52.801  0.00  0.00     0.074 C 
BRANCH  14  15
ATOM     15  C   UNL d   1      49.884  34.398  52.971  0.00  0.00     0.018 C 
BRANCH  15  16
ATOM     16  C   UNL d   1      49.262  34.812  52.616  0.00  0.00     0.002 A 
ATOM     17  C   UNL d   1      48.873  35.413  53.042  0.00  0.00     0.000 A 
ATOM     18  C   UNL d   1      48.252  35.828  52.691  0.00  0.00     0.000 A 
ATOM     19  C   UNL d   1      48.016  35.646  51.918  0.00  0.00     0.000 A 
ATOM     20  C   UNL d   1      48.403  35.045  51.491  0.00  0.00     0.000 A 
ATOM     21  C   UNL d   1      49.026  34.633  51.849  0.00  0.00     0.000 A 
ENDBRANCH  15  16
ENDBRANCH  14  15
ENDBRANCH  12  14
ENDBRANCH  10  12
ENDBRANCH   1  10
BRANCH   3  22
ATOM     22  C   UNL d   1      52.812  32.734  53.474  0.00  0.00     0.037 A 
ATOM     23  C   UNL d   1      53.204  32.524  52.781  0.00  0.00     0.100 A 
ATOM     24  N   UNL d   1      53.027  31.809  52.417  0.00  0.00    -0.242 NA
ATOM     25  C   UNL d   1      52.473  31.307  52.729  0.00  0.00     0.099 A 
ATOM     26  C   UNL d   1      52.076  31.513  53.425  0.00  0.00     0.021 A 
ATOM     27  C   UNL d   1      52.247  32.229  53.797  0.00  0.00     0.005 A 
ENDBRANCH   3  22
TORSDOF 6
ENDMDL
MODEL 2
REMARK VINA RESULT:      -7.9      1.118      2.563
REMARK  6 active torsions:
REMARK  status: ('A' for Active; 'I' for Inactive)
REMARK    1  A    between atoms: C_4  and  N_1 
REMARK    2  A    between atoms: C_7  and  C_3 
REMARK    3  A    between atoms: N_13  and  C_4 
REMARK    4  A    between atoms: C_16  and  N_13 
REMARK    5  A    between atoms: C_20  and  C_16 
REMARK    6  A    between atoms: C_17  and  C_20 
ROOT
ATOM      1  N   UNL d   1      52.770  32.106  53.146  0.00  0.00    -0.281 N 
ATOM      2  C   UNL d   1      53.443  31.002  53.726  0.00  0.00     0.080 A 
ATOM      3  C   UNL d   1      53.337  31.812  53.658  0.00  0.00     0.084 A 
ATOM      4  N   UNL d   1      52.981  30.487  53.282  0.00  0.00    -0.301 N 
ATOM      5  C   UNL d   1      52.304  31.587  52.698  0.00  0.00     0.101 A 
ATOM      6  C   UNL d   1      53.959  30.550  54.186  0.00  0.00     0.021 A 
ATOM      7  C   UNL d   1      53.208  29.714  53.463  0.00  0.00     0.080 A 
ATOM      8  C   UNL d   1      52.416  30.776  52.772  0.00  0.00     0.100 A 
ATOM      9  C   UNL d   1      53.813  29.749  54.022  0.00  0.00     0.021 A 
ENDROOT
BRANCH   1  10
ATOM     10  C   UNL d   1      52.656  32.922  53.070  0.00  0.00     0.184 C 
ATOM     11  S   UNL d   1      53.209  33.367  52.664  0.00  0.00    -0.040 SA
BRANCH  10  12
ATOM     12  N   UNL d   1      51.996  33.281  53.398  0.00  0.00    -0.330 N 
ATOM     13  H   UNL d   1      51.810  33.156  54.192  0.00  0.00     0.168 HD
BRANCH  12  14
ATOM     14  C   UNL d   1      51.520  33.766  52.936  0.00  0.00     0.074 C 
BRANCH  14  15
ATOM     15  C   UNL d   1      50.926  34.178  53.268  0.00  0.00     0.018 C 
BRANCH  15  16
ATOM     16  C   UNL d   1      50.255  34.468  52.881  0.00  0.00     0.002 A 
ATOM     17  C   UNL d   1      49.715  34.946  53.298  0.00  0.00     0.000 A 
ATOM     18  C   UNL d   1      49.045  35.237  52.915  0.00  0.00     0.000 A 
ATOM     19  C   UNL d   1      48.909  35.054  52.118  0.00  0.00     0.000 A 
ATOM     20  C   UNL d   1      49.448  34.576  51.700  0.00  0.00     0.000 A 
ATOM     21  C   UNL d   1      50.119  34.287  52.091  0.00  0.00     0.000 A 
ENDBRANCH  15  16
ENDBRANCH  14  15
ENDBRANCH  12  14
ENDBRANCH  10  12
ENDBRANCH   1  10
BRANCH   3  22
ATOM     22  C   UNL d   1      53.800  32.330  54.102  0.00  0.00     0.037 A 
ATOM     23  C   UNL d   1      53.583  32.518  54.875  0.00  0.00     0.100 A 
ATOM     24  N   UNL d   1      54.049  33.035  55.311  0.00  0.00    -0.242 NA
ATOM     25  C   UNL d   1      54.717  33.364  54.994  0.00  0.00     0.099 A 
ATOM     26  C   UNL d   1      54.940  33.180  54.218  0.00  0.00     0.021 A 
ATOM     27  C   UNL d   1      54.478  32.661  53.774  0.00  0.00     0.005 A 
ENDBRANCH   3  22
TORSDOF 6
ENDMDL
MODEL 3
REMARK VINA RESULT:      -7.7      0.774      2.131
REMARK  6 active torsions:
REMARK  status: ('A' for Active; 'I' for Inactive)
REMARK    1  A    between atoms: C_4  and  N_1 
REMARK    2  A    between atoms: C_7  and  C_3 
REMARK    3  A    between atoms: N_13  and  C_4 
REMARK    4  A    between atoms: C_16  and  N_13 
REMARK    5  A    between atoms: C_20  and  C_16 
REMARK    6  A    between atoms: C_17  and  C_20 
ROOT
ATOM      1  N   UNL d   1      52.155  33.364  53.016  0.00  0.00    -0.281 N 
ATOM      2  C   UNL d   1      53.207  32.819  53.794  0.00  0.00     0.080 A 
ATOM      3  C   UNL d   1      52.755  33.463  53.565  0.00  0.00     0.084 A 
ATOM      4  N   UNL d   1      53.059  32.077  53.474  0.00  0.00    -0.301 N 
ATOM      5  C   UNL d   1      52.005  32.616  52.693  0.00  0.00     0.101 A 
ATOM      6  C   UNL d   1      53.836  32.749  54.324  0.00  0.00     0.021 A 
ATOM      7  C   UNL d   1      53.594  31.542  53.803  0.00  0.00     0.080 A 
ATOM      8  C   UNL d   1      52.463  31.975  52.928  0.00  0.00     0.100 A 
ATOM      9  C   UNL d   1      54.077  31.954  54.330  0.00  0.00     0.021 A 
ENDROOT
BRANCH   1  10
ATOM     10  C   UNL d   1      51.692  34.008  52.778  0.00  0.00     0.184 C 
ATOM     11  S   UNL d   1      51.980  34.516  52.206  0.00  0.00    -0.040 SA
BRANCH  10  12
ATOM     12  N   UNL d   1      50.955  34.135  53.112  0.00  0.00    -0.330 N 
ATOM     13  H   UNL d   1      50.821  33.940  53.903  0.00  0.00     0.168 HD
BRANCH  12  14
ATOM     14  C   UNL d   1      50.350  34.457  52.660  0.00  0.00     0.074 C 
BRANCH  14  15
ATOM     15  C   UNL d   1      49.622  34.547  52.970  0.00  0.00     0.018 C 
BRANCH  15  16
ATOM     16  C   UNL d   1      48.994  34.968  52.634  0.00  0.00     0.002 A 
ATOM     17  C   UNL d   1      48.639  35.587  53.063  0.00  0.00     0.000 A 
ATOM     18  C   UNL d   1      48.013  36.010  52.730  0.00  0.00     0.000 A 
ATOM     19  C   UNL d   1      47.739  35.818  51.972  0.00  0.00     0.000 A 
ATOM     20  C   UNL d   1      48.093  35.199  51.542  0.00  0.00     0.000 A 
ATOM     21  C   UNL d   1      48.721  34.779  51.882  0.00  0.00     0.000 A 
ENDBRANCH  15  16
ENDBRANCH  14  15
ENDBRANCH  12  14
ENDBRANCH  10  12
ENDBRANCH   1  10
BRANCH   3  22
ATOM     22  C   UNL d   1      52.901  34.209  53.884  0.00  0.00     0.037 A 
ATOM     23  C   UNL d   1      52.608  34.404  54.629  0.00  0.00     0.100 A 
ATOM     24  N   UNL d   1      52.758  35.150  54.941  0.00  0.00    -0.242 NA
ATOM     25  C   UNL d   1      53.189  35.696  54.527  0.00  0.00     0.099 A 
ATOM     26  C   UNL d   1      53.486  35.506  53.778  0.00  0.00     0.021 A 
ATOM     27  C   UNL d   1      53.340  34.760  53.458  0.00  0.00     0.005 A 
ENDBRANCH   3  22
TORSDOF 6
ENDMDL
MODEL 4
REMARK VINA RESULT:      -7.1      1.935      4.910
REMARK  6 active torsions:
REMARK  status: ('A' for Active; 'I' for Inactive)
REMARK    1  A    between atoms: C_4  and  N_1 
REMARK    2  A    between atoms: C_7  and  C_3 
REMARK    3  A    between atoms: N_13  and  C_4 
REMARK    4  A    between atoms: C_16  and  N_13 
REMARK    5  A    between atoms: C_20  and  C_16 
REMARK    6  A    between atoms: C_17  and  C_20 
ROOT
ATOM      1  N   UNL d   1      53.063  32.786  53.336  0.00  0.00    -0.281 N 
ATOM      2  C   UNL d   1      52.741  34.122  53.683  0.00  0.00     0.080 A 
ATOM      3  C   UNL d   1      53.208  33.457  53.784  0.00  0.00     0.084 A 
ATOM      4  N   UNL d   1      52.131  34.118  53.134  0.00  0.00    -0.301 N 
ATOM      5  C   UNL d   1      52.447  32.781  52.782  0.00  0.00     0.101 A 
ATOM      6  C   UNL d   1      52.753  34.864  54.046  0.00  0.00     0.021 A 
ATOM      7  C   UNL d   1      51.760  34.855  53.152  0.00  0.00     0.080 A 
ATOM      8  C   UNL d   1      51.984  33.453  52.686  0.00  0.00     0.100 A 
ATOM      9  C   UNL d   1      52.142  35.320  53.716  0.00  0.00     0.021 A 
ENDROOT
BRANCH   1  10
ATOM     10  C   UNL d   1      53.529  32.109  53.431  0.00  0.00     0.184 C 
ATOM     11  S   UNL d   1      54.276  32.088  53.099  0.00  0.00    -0.040 SA
BRANCH  10  12
ATOM     12  N   UNL d   1      53.246  31.467  53.853  0.00  0.00    -0.330 N 
ATOM     13  H   UNL d   1      52.731  31.584  54.488  0.00  0.00     0.168 HD
BRANCH  12  14
ATOM     14  C   UNL d   1      53.473  30.705  53.645  0.00  0.00     0.074 C 
BRANCH  14  15
ATOM     15  C   UNL d   1      53.008  30.085  53.822  0.00  0.00     0.018 C 
BRANCH  15  16
ATOM     16  C   UNL d   1      53.211  29.439  54.298  0.00  0.00     0.002 A 
ATOM     17  C   UNL d   1      52.984  29.432  55.100  0.00  0.00     0.000 A 
ATOM     18  C   UNL d   1      53.185  28.790  55.577  0.00  0.00     0.000 A 
ATOM     19  C   UNL d   1      53.613  28.155  55.260  0.00  0.00     0.000 A 
ATOM     20  C   UNL d   1      53.841  28.161  54.459  0.00  0.00     0.000 A 
ATOM     21  C   UNL d   1      53.636  28.809  53.986  0.00  0.00     0.000 A 
ENDBRANCH  15  16
ENDBRANCH  14  15
ENDBRANCH  12  14
ENDBRANCH  10  12
ENDBRANCH   1  10
BRANCH   3  22
ATOM     22  C   UNL d   1      53.822  33.459  54.335  0.00  0.00     0.037 A 
ATOM     23  C   UNL d   1      53.676  33.245  55.117  0.00  0.00     0.100 A 
ATOM     24  N   UNL d   1      54.292  33.249  55.660  0.00  0.00    -0.242 NA
ATOM     25  C   UNL d   1      55.042  33.460  55.439  0.00  0.00     0.099 A 
ATOM     26  C   UNL d   1      55.195  33.677  54.654  0.00  0.00     0.021 A 
ATOM     27  C   UNL d   1      54.582  33.675  54.104  0.00  0.00     0.005 A 
ENDBRANCH   3  22
TORSDOF 6
ENDMDL
MODEL 5
REMARK VINA RESULT:      -7.1      1.599      4.438
REMARK  6 active torsions:
REMARK  status: ('A' for Active; 'I' for Inactive)
REMARK    1  A    between atoms: C_4  and  N_1 
REMARK    2  A    between atoms: C_7  and  C_3 
REMARK    3  A    between atoms: N_13  and  C_4 
REMARK    4  A    between atoms: C_16  and  N_13 
REMARK    5  A    between atoms: C_20  and  C_16 
REMARK    6  A    between atoms: C_17  and  C_20 
ROOT
ATOM      1  N   UNL d   1      53.218  33.247  53.816  0.00  0.00    -0.281 N 
ATOM      2  C   UNL d   1      52.896  34.552  54.265  0.00  0.00     0.080 A 
ATOM      3  C   UNL d   1      52.724  33.900  53.799  0.00  0.00     0.084 A 
ATOM      4  N   UNL d   1      53.562  34.551  54.746  0.00  0.00    -0.301 N 
ATOM      5  C   UNL d   1      53.890  33.245  54.300  0.00  0.00     0.101 A 
ATOM      6  C   UNL d   1      52.510  35.275  54.364  0.00  0.00     0.021 A 
ATOM      7  C   UNL d   1      53.594  35.272  55.146  0.00  0.00     0.080 A 
ATOM      8  C   UNL d   1      54.056  33.903  54.765  0.00  0.00     0.100 A 
ATOM      9  C   UNL d   1      52.945  35.723  54.913  0.00  0.00     0.021 A 
ENDROOT
BRANCH   1  10
ATOM     10  C   UNL d   1      53.053  32.584  53.349  0.00  0.00     0.184 C 
ATOM     11  S   UNL d   1      53.222  32.606  52.549  0.00  0.00    -0.040 SA
BRANCH  10  12
ATOM     12  N   UNL d   1      52.723  31.913  53.684  0.00  0.00    -0.330 N 
ATOM     13  H   UNL d   1      52.042  31.973  54.146  0.00  0.00     0.168 HD
BRANCH  12  14
ATOM     14  C   UNL d   1      53.070  31.179  53.559  0.00  0.00     0.074 C 
BRANCH  14  15
ATOM     15  C   UNL d   1      52.674  30.512  53.737  0.00  0.00     0.018 C 
BRANCH  15  16
ATOM     16  C   UNL d   1      52.991  29.829  54.080  0.00  0.00     0.002 A 
ATOM     17  C   UNL d   1      52.903  29.701  54.898  0.00  0.00     0.000 A 
ATOM     18  C   UNL d   1      53.218  29.021  55.243  0.00  0.00     0.000 A 
ATOM     19  C   UNL d   1      53.622  28.468  54.777  0.00  0.00     0.000 A 
ATOM     20  C   UNL d   1      53.712  28.595  53.958  0.00  0.00     0.000 A 
ATOM     21  C   UNL d   1      53.392  29.280  53.619  0.00  0.00     0.000 A 
ENDBRANCH  15  16
ENDBRANCH  14  15
ENDBRANCH  12  14
ENDBRANCH  10  12
ENDBRANCH   1  10
BRANCH   3  22
ATOM     22  C   UNL d   1      52.056  33.899  53.316  0.00  0.00     0.037 A 
ATOM     23  C   UNL d   1      51.338  33.615  53.604  0.00  0.00     0.100 A 
ATOM     24  N   UNL d   1      50.676  33.618  53.116  0.00  0.00    -0.242 NA
ATOM     25  C   UNL d   1      50.720  33.894  52.356  0.00  0.00     0.099 A 
ATOM     26  C   UNL d   1      51.438  34.180  52.061  0.00  0.00     0.021 A 
ATOM     27  C   UNL d   1      52.106  34.181  52.544  0.00  0.00     0.005 A 
ENDBRANCH   3  22
TORSDOF 6
ENDMDL
