MODEL 1
REMARK VINA RESULT:      93.8      0.000      0.000
REMARK  4 active torsions:
REMARK  status: ('A' for Active; 'I' for Inactive)
REMARK    1  A    between atoms: C_7  and  C_1 
REMARK    2  A    between atoms: C_8  and  C_3 
REMARK    3  A    between atoms: C_10  and  C_6 
REMARK    4  A    between atoms: C_9  and  C_8 
ROOT
ATOM      1  C   UNL d   1     -47.727  32.253  34.187  0.00  0.00     0.293 A 
ATOM      2  N   UNL d   1     -47.310  32.842  34.600  0.00  0.00    -0.223 N 
ATOM      3  C   UNL d   1     -47.735  31.467  34.478  0.00  0.00     0.113 A 
ATOM      4  C   UNL d   1     -46.901  32.645  35.304  0.00  0.00     0.356 A 
ATOM      5  N   UNL d   1     -46.908  31.859  35.595  0.00  0.00    -0.192 NA
ATOM      6  C   UNL d   1     -47.325  31.271  35.182  0.00  0.00     0.094 A 
ATOM      7  O   UNL d   1     -46.490  33.245  35.705  0.00  0.00    -0.244 OA
ATOM      8  O   UNL d   1     -48.191  31.820  33.643  0.00  0.00    -0.267 OA
ATOM      9  C   UNL d   1     -47.298  33.612  34.324  0.00  0.00     0.106 C 
ENDROOT
BRANCH   3  10
ATOM     10  C   UNL d   1     -48.151  30.879  34.065  0.00  0.00     0.207 C 
ATOM     11  O   UNL d   1     -47.746  30.277  33.676  0.00  0.00    -0.286 OA
BRANCH  10  12
ATOM     12  C   UNL d   1     -48.988  30.898  34.045  0.00  0.00     0.069 A 
ATOM     13  S   UNL d   1     -49.552  31.366  34.434  0.00  0.00    -0.083 SA
ATOM     14  C   UNL d   1     -50.299  31.117  34.180  0.00  0.00     0.035 A 
ATOM     15  C   UNL d   1     -50.240  30.511  33.646  0.00  0.00     0.008 A 
ATOM     16  C   UNL d   1     -49.425  30.364  33.551  0.00  0.00     0.010 A 
ENDBRANCH  10  12
ENDBRANCH   3  10
BRANCH   1  17
ATOM     17  C   UNL d   1     -47.842  32.934  33.749  0.00  0.00     0.469 C 
ATOM     18  F   UNL d   1     -47.350  33.081  33.310  0.00  0.00    -0.162 F 
ATOM     19  F   UNL d   1     -47.976  33.638  33.306  0.00  0.00    -0.162 F 
ATOM     20  F   UNL d   1     -48.449  33.348  33.840  0.00  0.00    -0.162 F 
ENDBRANCH   1  17
BRANCH   6  21
ATOM     21  C   UNL d   1     -47.333  30.503  35.465  0.00  0.00     0.021 A 
ATOM     22  C   UNL d   1     -47.728  30.323  36.158  0.00  0.00     0.043 A 
ATOM     23  C   UNL d   1     -47.736  29.540  36.445  0.00  0.00     0.196 A 
ATOM     24  O   UNL d   1     -48.130  29.366  37.135  0.00  0.00    -0.287 OA
ATOM     25  C   UNL d   1     -47.348  28.956  36.030  0.00  0.00     0.042 A 
ATOM     26  C   UNL d   1     -46.952  29.132  35.336  0.00  0.00     0.003 A 
ATOM     27  C   UNL d   1     -46.945  29.904  35.054  0.00  0.00     0.002 A 
ENDBRANCH   6  21
TORSDOF 4
ENDMDL
MODEL 2
REMARK VINA RESULT:      94.2      2.372      3.974
REMARK  4 active torsions:
REMARK  status: ('A' for Active; 'I' for Inactive)
REMARK    1  A    between atoms: C_7  and  C_1 
REMARK    2  A    between atoms: C_8  and  C_3 
REMARK    3  A    between atoms: C_10  and  C_6 
REMARK    4  A    between atoms: C_9  and  C_8 
ROOT
ATOM      1  C   UNL d   1     -48.037  29.427  34.957  0.00  0.00     0.293 A 
ATOM      2  N   UNL d   1     -48.725  29.170  34.569  0.00  0.00    -0.223 N 
ATOM      3  C   UNL d   1     -47.808  30.231  34.907  0.00  0.00     0.113 A 
ATOM      4  C   UNL d   1     -49.185  29.716  34.132  0.00  0.00     0.356 A 
ATOM      5  N   UNL d   1     -48.956  30.521  34.081  0.00  0.00    -0.192 NA
ATOM      6  C   UNL d   1     -48.268  30.778  34.469  0.00  0.00     0.094 A 
ATOM      7  O   UNL d   1     -49.870  29.443  33.750  0.00  0.00    -0.244 OA
ATOM      8  O   UNL d   1     -47.333  29.485  35.404  0.00  0.00    -0.267 OA
ATOM      9  C   UNL d   1     -48.957  28.385  34.612  0.00  0.00     0.106 C 
ENDROOT
BRANCH   3  10
ATOM     10  C   UNL d   1     -47.119  30.489  35.294  0.00  0.00     0.207 C 
ATOM     11  O   UNL d   1     -46.512  30.847  34.870  0.00  0.00    -0.286 OA
BRANCH  10  12
ATOM     12  C   UNL d   1     -47.043  30.383  36.122  0.00  0.00     0.069 A 
ATOM     13  S   UNL d   1     -47.591  30.393  36.745  0.00  0.00    -0.083 SA
ATOM     14  C   UNL d   1     -47.173  30.251  37.445  0.00  0.00     0.035 A 
ATOM     15  C   UNL d   1     -46.382  30.151  37.298  0.00  0.00     0.008 A 
ATOM     16  C   UNL d   1     -46.287  30.231  36.474  0.00  0.00     0.010 A 
ENDBRANCH  10  12
ENDBRANCH   3  10
BRANCH   1  17
ATOM     17  C   UNL d   1     -48.083  28.628  35.126  0.00  0.00     0.469 C 
ATOM     18  F   UNL d   1     -48.489  28.465  35.641  0.00  0.00    -0.162 F 
ATOM     19  F   UNL d   1     -48.119  27.802  35.286  0.00  0.00    -0.162 F 
ATOM     20  F   UNL d   1     -47.700  28.133  34.731  0.00  0.00    -0.162 F 
ENDBRANCH   1  17
BRANCH   6  21
ATOM     21  C   UNL d   1     -48.042  31.563  34.421  0.00  0.00     0.021 A 
ATOM     22  C   UNL d   1     -47.468  31.796  33.887  0.00  0.00     0.043 A 
ATOM     23  C   UNL d   1     -47.239  32.596  33.839  0.00  0.00     0.196 A 
ATOM     24  O   UNL d   1     -46.667  32.823  33.306  0.00  0.00    -0.287 OA
ATOM     25  C   UNL d   1     -47.591  33.144  34.329  0.00  0.00     0.042 A 
ATOM     26  C   UNL d   1     -48.165  32.916  34.865  0.00  0.00     0.003 A 
ATOM     27  C   UNL d   1     -48.390  32.127  34.911  0.00  0.00     0.002 A 
ENDBRANCH   6  21
TORSDOF 4
ENDMDL
MODEL 3
REMARK VINA RESULT:      94.4      5.419      6.642
REMARK  4 active torsions:
REMARK  status: ('A' for Active; 'I' for Inactive)
REMARK    1  A    between atoms: C_7  and  C_1 
REMARK    2  A    between atoms: C_8  and  C_3 
REMARK    3  A    between atoms: C_10  and  C_6 
REMARK    4  A    between atoms: C_9  and  C_8 
ROOT
ATOM      1  C   UNL d   1     -50.378  26.821  35.206  0.00  0.00     0.293 A 
ATOM      2  N   UNL d   1     -50.595  26.904  36.004  0.00  0.00    -0.223 N 
ATOM      3  C   UNL d   1     -50.889  26.421  34.676  0.00  0.00     0.113 A 
ATOM      4  C   UNL d   1     -51.322  26.588  36.272  0.00  0.00     0.356 A 
ATOM      5  N   UNL d   1     -51.834  26.188  35.743  0.00  0.00    -0.192 NA
ATOM      6  C   UNL d   1     -51.618  26.104  34.945  0.00  0.00     0.094 A 
ATOM      7  O   UNL d   1     -51.524  26.679  37.073  0.00  0.00    -0.244 OA
ATOM      8  O   UNL d   1     -49.990  26.842  34.466  0.00  0.00    -0.267 OA
ATOM      9  C   UNL d   1     -50.101  27.293  36.530  0.00  0.00     0.106 C 
ENDROOT
BRANCH   3  10
ATOM     10  C   UNL d   1     -50.673  26.338  33.878  0.00  0.00     0.207 C 
ATOM     11  O   UNL d   1     -50.984  26.843  33.308  0.00  0.00    -0.286 OA
BRANCH  10  12
ATOM     12  C   UNL d   1     -50.135  25.736  33.654  0.00  0.00     0.069 A 
ATOM     13  S   UNL d   1     -49.318  25.734  33.512  0.00  0.00    -0.083 SA
ATOM     14  C   UNL d   1     -49.104  24.961  33.306  0.00  0.00     0.035 A 
ATOM     15  C   UNL d   1     -49.748  24.469  33.310  0.00  0.00     0.008 A 
ATOM     16  C   UNL d   1     -50.400  24.940  33.526  0.00  0.00     0.010 A 
ENDBRANCH  10  12
ENDBRANCH   3  10
BRANCH   1  17
ATOM     17  C   UNL d   1     -49.757  27.231  35.547  0.00  0.00     0.469 C 
ATOM     18  F   UNL d   1     -49.667  27.120  36.208  0.00  0.00    -0.162 F 
ATOM     19  F   UNL d   1     -49.115  27.661  35.882  0.00  0.00    -0.162 F 
ATOM     20  F   UNL d   1     -49.336  27.687  35.145  0.00  0.00    -0.162 F 
ENDBRANCH   1  17
BRANCH   6  21
ATOM     21  C   UNL d   1     -52.115  25.715  34.426  0.00  0.00     0.021 A 
ATOM     22  C   UNL d   1     -52.233  24.908  34.495  0.00  0.00     0.043 A 
ATOM     23  C   UNL d   1     -52.740  24.511  33.965  0.00  0.00     0.196 A 
ATOM     24  O   UNL d   1     -52.854  23.709  34.038  0.00  0.00    -0.287 OA
ATOM     25  C   UNL d   1     -53.118  24.933  33.380  0.00  0.00     0.042 A 
ATOM     26  C   UNL d   1     -53.003  25.740  33.307  0.00  0.00     0.003 A 
ATOM     27  C   UNL d   1     -52.503  26.129  33.830  0.00  0.00     0.002 A 
ENDBRANCH   6  21
TORSDOF 4
ENDMDL
MODEL 4
REMARK VINA RESULT:      95.3      1.607      2.586
REMARK  4 active torsions:
REMARK  status: ('A' for Active; 'I' for Inactive)
REMARK    1  A    between atoms: C_7  and  C_1 
REMARK    2  A    between atoms: C_8  and  C_3 
REMARK    3  A    between atoms: C_10  and  C_6 
REMARK    4  A    between atoms: C_9  and  C_8 
ROOT
ATOM      1  C   UNL d   1     -47.415  31.338  34.887  0.00  0.00     0.293 A 
ATOM      2  N   UNL d   1     -47.998  31.767  34.480  0.00  0.00    -0.223 N 
ATOM      3  C   UNL d   1     -47.528  30.522  35.037  0.00  0.00     0.113 A 
ATOM      4  C   UNL d   1     -48.695  31.381  34.223  0.00  0.00     0.356 A 
ATOM      5  N   UNL d   1     -48.809  30.564  34.372  0.00  0.00    -0.192 NA
ATOM      6  C   UNL d   1     -48.226  30.135  34.780  0.00  0.00     0.094 A 
ATOM      7  O   UNL d   1     -49.269  31.824  33.817  0.00  0.00    -0.244 OA
ATOM      8  O   UNL d   1     -46.731  31.092  35.300  0.00  0.00    -0.267 OA
ATOM      9  C   UNL d   1     -47.896  32.566  34.328  0.00  0.00     0.106 C 
ENDROOT
BRANCH   3  10
ATOM     10  C   UNL d   1     -46.945  30.092  35.445  0.00  0.00     0.207 C 
ATOM     11  O   UNL d   1     -46.411  29.621  35.032  0.00  0.00    -0.286 OA
BRANCH  10  12
ATOM     12  C   UNL d   1     -46.900  30.140  36.280  0.00  0.00     0.069 A 
ATOM     13  S   UNL d   1     -47.447  30.363  36.863  0.00  0.00    -0.083 SA
ATOM     14  C   UNL d   1     -47.069  30.294  37.596  0.00  0.00     0.035 A 
ATOM     15  C   UNL d   1     -46.306  30.038  37.509  0.00  0.00     0.008 A 
ATOM     16  C   UNL d   1     -46.186  29.938  36.690  0.00  0.00     0.010 A 
ENDBRANCH  10  12
ENDBRANCH   3  10
BRANCH   1  17
ATOM     17  C   UNL d   1     -47.119  32.100  34.844  0.00  0.00     0.469 C 
ATOM     18  F   UNL d   1     -47.262  32.495  35.374  0.00  0.00    -0.162 F 
ATOM     19  F   UNL d   1     -46.807  32.880  34.784  0.00  0.00    -0.162 F 
ATOM     20  F   UNL d   1     -46.725  32.323  34.259  0.00  0.00    -0.162 F 
ENDBRANCH   1  17
BRANCH   6  21
ATOM     21  C   UNL d   1     -48.335  29.338  34.928  0.00  0.00     0.021 A 
ATOM     22  C   UNL d   1     -48.783  29.094  35.567  0.00  0.00     0.043 A 
ATOM     23  C   UNL d   1     -48.893  28.282  35.717  0.00  0.00     0.196 A 
ATOM     24  O   UNL d   1     -49.340  28.044  36.355  0.00  0.00    -0.287 OA
ATOM     25  C   UNL d   1     -48.552  27.732  35.222  0.00  0.00     0.042 A 
ATOM     26  C   UNL d   1     -48.103  27.971  34.581  0.00  0.00     0.003 A 
ATOM     27  C   UNL d   1     -47.995  28.773  34.435  0.00  0.00     0.002 A 
ENDBRANCH   6  21
TORSDOF 4
ENDMDL
