MODEL 1
REMARK VINA RESULT:      -5.7      0.000      0.000
REMARK  2 active torsions:
REMARK  status: ('A' for Active; 'I' for Inactive)
REMARK    1  A    between atoms: S_2  and  C_1 
REMARK    2  A    between atoms: N_3  and  S_2 
ROOT
ATOM      1  C   UNL d   1      57.018  -0.385  31.469  0.00  0.00     0.125 A 
ATOM      2  C   UNL d   1      56.663  -0.804  31.984  0.00  0.00    -0.009 A 
ATOM      3  C   UNL d   1      56.784  -1.154  31.835  0.00  0.00    -0.009 A 
ATOM      4  C   UNL d   1      56.929   0.367  31.554  0.00  0.00     0.031 A 
ATOM      5  C   UNL d   1      56.361  -1.030  32.415  0.00  0.00    -0.007 A 
ATOM      6  C   UNL d   1      56.124  -0.633  32.722  0.00  0.00    -0.007 A 
ATOM      7  C   UNL d   1      56.430   0.531  32.236  0.00  0.00     0.045 A 
ATOM      8  C   UNL d   1      55.877  -1.405  33.105  0.00  0.00    -0.001 A 
ATOM      9  C   UNL d   1      56.037   0.097  32.805  0.00  0.00    -0.022 A 
ATOM     10  C   UNL d   1      56.231  -0.055  32.543  0.00  0.00    -0.022 A 
ENDROOT
BRANCH   1  11
ATOM     11  S   UNL d   1      57.566   0.109  30.683  0.00  0.00     0.141 S 
ATOM     12  O   UNL d   1      57.008   0.682  30.367  0.00  0.00    -0.233 OA
BRANCH  11  13
ATOM     13  N   UNL d   1      58.365   0.048  30.347  0.00  0.00    -0.254 N 
ATOM     14  C   UNL d   1      58.464  -0.548  29.791  0.00  0.00     0.089 A 
ATOM     15  C   UNL d   1      59.149  -0.748  29.373  0.00  0.00     0.020 A 
ATOM     16  C   UNL d   1      59.888  -0.405  29.412  0.00  0.00     0.002 A 
ATOM     17  C   UNL d   1      60.142   0.228  29.876  0.00  0.00     0.002 A 
ATOM     18  C   UNL d   1      59.712   0.680  30.424  0.00  0.00     0.020 A 
ATOM     19  C   UNL d   1      58.921   0.596  30.630  0.00  0.00     0.089 A 
ENDBRANCH  11  13
ENDBRANCH   1  11
TORSDOF 2
ENDMDL
MODEL 2
REMARK VINA RESULT:      -5.7      0.769      1.399
REMARK  2 active torsions:
REMARK  status: ('A' for Active; 'I' for Inactive)
REMARK    1  A    between atoms: S_2  and  C_1 
REMARK    2  A    between atoms: N_3  and  S_2 
ROOT
ATOM      1  C   UNL d   1      56.916  -0.173  31.802  0.00  0.00     0.125 A 
ATOM      2  C   UNL d   1      56.454   0.175  32.284  0.00  0.00    -0.009 A 
ATOM      3  C   UNL d   1      56.523   0.541  32.141  0.00  0.00    -0.009 A 
ATOM      4  C   UNL d   1      56.953  -0.929  31.887  0.00  0.00     0.031 A 
ATOM      5  C   UNL d   1      56.085   0.343  32.688  0.00  0.00    -0.007 A 
ATOM      6  C   UNL d   1      55.898  -0.091  32.981  0.00  0.00    -0.007 A 
ATOM      7  C   UNL d   1      56.440  -1.182  32.530  0.00  0.00     0.045 A 
ATOM      8  C   UNL d   1      55.491   0.624  33.336  0.00  0.00    -0.001 A 
ATOM      9  C   UNL d   1      55.934  -0.826  33.063  0.00  0.00    -0.022 A 
ATOM     10  C   UNL d   1      56.118  -0.641  32.816  0.00  0.00    -0.022 A 
ENDROOT
BRANCH   1  11
ATOM     11  S   UNL d   1      57.601  -0.560  31.065  0.00  0.00     0.141 S 
ATOM     12  O   UNL d   1      57.505  -1.413  31.117  0.00  0.00    -0.233 OA
BRANCH  11  13
ATOM     13  N   UNL d   1      58.163  -0.219  30.497  0.00  0.00    -0.254 N 
ATOM     14  C   UNL d   1      58.852   0.081  30.828  0.00  0.00     0.089 A 
ATOM     15  C   UNL d   1      59.491   0.438  30.442  0.00  0.00     0.020 A 
ATOM     16  C   UNL d   1      59.589   0.579  29.644  0.00  0.00     0.002 A 
ATOM     17  C   UNL d   1      59.081   0.402  29.020  0.00  0.00     0.002 A 
ATOM     18  C   UNL d   1      58.336   0.034  29.039  0.00  0.00     0.020 A 
ATOM     19  C   UNL d   1      57.933  -0.240  29.700  0.00  0.00     0.089 A 
ENDBRANCH  11  13
ENDBRANCH   1  11
TORSDOF 2
ENDMDL
MODEL 3
REMARK VINA RESULT:      -5.3      1.650      3.943
REMARK  2 active torsions:
REMARK  status: ('A' for Active; 'I' for Inactive)
REMARK    1  A    between atoms: S_2  and  C_1 
REMARK    2  A    between atoms: N_3  and  S_2 
ROOT
ATOM      1  C   UNL d   1      57.028  -0.035  31.725  0.00  0.00     0.125 A 
ATOM      2  C   UNL d   1      57.449   0.287  31.191  0.00  0.00    -0.009 A 
ATOM      3  C   UNL d   1      57.378   0.661  31.311  0.00  0.00    -0.009 A 
ATOM      4  C   UNL d   1      57.008  -0.796  31.697  0.00  0.00     0.031 A 
ATOM      5  C   UNL d   1      57.787   0.435  30.753  0.00  0.00    -0.007 A 
ATOM      6  C   UNL d   1      57.968  -0.015  30.481  0.00  0.00    -0.007 A 
ATOM      7  C   UNL d   1      57.487  -1.083  31.042  0.00  0.00     0.045 A 
ATOM      8  C   UNL d   1      58.331   0.682  30.050  0.00  0.00    -0.001 A 
ATOM      9  C   UNL d   1      57.948  -0.754  30.454  0.00  0.00    -0.022 A 
ATOM     10  C   UNL d   1      57.774  -0.556  30.698  0.00  0.00    -0.022 A 
ENDROOT
BRANCH   1  11
ATOM     11  S   UNL d   1      56.401  -0.384  32.530  0.00  0.00     0.141 S 
ATOM     12  O   UNL d   1      56.250  -1.208  32.336  0.00  0.00    -0.233 OA
BRANCH  11  13
ATOM     13  N   UNL d   1      56.061  -0.037  33.250  0.00  0.00    -0.254 N 
ATOM     14  C   UNL d   1      55.253   0.105  33.218  0.00  0.00     0.089 A 
ATOM     15  C   UNL d   1      54.767   0.428  33.806  0.00  0.00     0.020 A 
ATOM     16  C   UNL d   1      54.973   0.682  34.553  0.00  0.00     0.002 A 
ATOM     17  C   UNL d   1      55.713   0.682  34.915  0.00  0.00     0.002 A 
ATOM     18  C   UNL d   1      56.443   0.424  34.614  0.00  0.00     0.020 A 
ATOM     19  C   UNL d   1      56.592   0.105  33.872  0.00  0.00     0.089 A 
ENDBRANCH  11  13
ENDBRANCH   1  11
TORSDOF 2
ENDMDL
MODEL 4
REMARK VINA RESULT:      -5.1      0.727      3.714
REMARK  2 active torsions:
REMARK  status: ('A' for Active; 'I' for Inactive)
REMARK    1  A    between atoms: S_2  and  C_1 
REMARK    2  A    between atoms: N_3  and  S_2 
ROOT
ATOM      1  C   UNL d   1      58.345   0.417  30.895  0.00  0.00     0.125 A 
ATOM      2  C   UNL d   1      59.085   0.537  30.837  0.00  0.00    -0.009 A 
ATOM      3  C   UNL d   1      59.127   0.679  31.208  0.00  0.00    -0.009 A 
ATOM      4  C   UNL d   1      58.019   0.130  30.269  0.00  0.00     0.031 A 
ATOM      5  C   UNL d   1      59.637   0.591  30.696  0.00  0.00    -0.007 A 
ATOM      6  C   UNL d   1      59.727   0.420  30.175  0.00  0.00    -0.007 A 
ATOM      7  C   UNL d   1      58.609   0.020  29.651  0.00  0.00     0.045 A 
ATOM      8  C   UNL d   1      60.529   0.682  30.477  0.00  0.00    -0.001 A 
ATOM      9  C   UNL d   1      59.411   0.141  29.567  0.00  0.00    -0.022 A 
ATOM     10  C   UNL d   1      59.234   0.217  29.870  0.00  0.00    -0.022 A 
ENDROOT
BRANCH   1  11
ATOM     11  S   UNL d   1      57.292   0.289  31.092  0.00  0.00     0.141 S 
ATOM     12  O   UNL d   1      56.913   0.492  30.348  0.00  0.00    -0.233 OA
BRANCH  11  13
ATOM     13  N   UNL d   1      56.811   0.048  31.774  0.00  0.00    -0.254 N 
ATOM     14  C   UNL d   1      56.697  -0.761  31.851  0.00  0.00     0.089 A 
ATOM     15  C   UNL d   1      56.270  -1.164  32.435  0.00  0.00     0.020 A 
ATOM     16  C   UNL d   1      55.863  -0.857  33.071  0.00  0.00     0.002 A 
ATOM     17  C   UNL d   1      55.771  -0.069  33.296  0.00  0.00     0.002 A 
ATOM     18  C   UNL d   1      56.069   0.617  32.934  0.00  0.00     0.020 A 
ATOM     19  C   UNL d   1      56.532   0.663  32.257  0.00  0.00     0.089 A 
ENDBRANCH  11  13
ENDBRANCH   1  11
TORSDOF 2
ENDMDL
MODEL 5
REMARK VINA RESULT:      -4.4      8.792      9.566
REMARK  2 active torsions:
REMARK  status: ('A' for Active; 'I' for Inactive)
REMARK    1  A    between atoms: S_2  and  C_1 
REMARK    2  A    between atoms: N_3  and  S_2 
ROOT
ATOM      1  C   UNL d   1      59.628  -8.268  35.102  0.00  0.00     0.125 A 
ATOM      2  C   UNL d   1      59.556  -7.616  35.470  0.00  0.00    -0.009 A 
ATOM      3  C   UNL d   1      59.222  -7.506  35.281  0.00  0.00    -0.009 A 
ATOM      4  C   UNL d   1      60.234  -8.683  35.305  0.00  0.00     0.031 A 
ATOM      5  C   UNL d   1      59.588  -7.149  35.800  0.00  0.00    -0.007 A 
ATOM      6  C   UNL d   1      60.033  -7.171  36.132  0.00  0.00    -0.007 A 
ATOM      7  C   UNL d   1      60.680  -8.275  35.919  0.00  0.00     0.045 A 
ATOM      8  C   UNL d   1      59.632  -6.393  36.326  0.00  0.00    -0.001 A 
ATOM      9  C   UNL d   1      60.621  -7.573  36.330  0.00  0.00    -0.022 A 
ATOM     10  C   UNL d   1      60.383  -7.672  36.080  0.00  0.00    -0.022 A 
ENDROOT
BRANCH   1  11
ATOM     11  S   UNL d   1      59.629  -9.173  34.514  0.00  0.00     0.141 S 
ATOM     12  O   UNL d   1      59.896  -9.779  35.063  0.00  0.00    -0.233 OA
BRANCH  11  13
ATOM     13  N   UNL d   1      59.437  -9.383  33.694  0.00  0.00    -0.254 N 
ATOM     14  C   UNL d   1      60.085  -9.469  33.196  0.00  0.00     0.089 A 
ATOM     15  C   UNL d   1      60.089  -9.664  32.391  0.00  0.00     0.020 A 
ATOM     16  C   UNL d   1      59.455  -9.817  31.902  0.00  0.00     0.002 A 
ATOM     17  C   UNL d   1      58.650  -9.817  32.080  0.00  0.00     0.002 A 
ATOM     18  C   UNL d   1      58.274  -9.661  32.805  0.00  0.00     0.020 A 
ATOM     19  C   UNL d   1      58.630  -9.468  33.519  0.00  0.00     0.089 A 
ENDBRANCH  11  13
ENDBRANCH   1  11
TORSDOF 2
ENDMDL
MODEL 6
REMARK VINA RESULT:      -2.9      1.800      4.154
REMARK  2 active torsions:
REMARK  status: ('A' for Active; 'I' for Inactive)
REMARK    1  A    between atoms: S_2  and  C_1 
REMARK    2  A    between atoms: N_3  and  S_2 
ROOT
ATOM      1  C   UNL d   1      59.381  -1.722  29.217  0.00  0.00     0.125 A 
ATOM      2  C   UNL d   1      59.985  -2.158  29.104  0.00  0.00    -0.009 A 
ATOM      3  C   UNL d   1      60.247  -1.893  29.246  0.00  0.00    -0.009 A 
ATOM      4  C   UNL d   1      58.719  -2.036  29.009  0.00  0.00     0.031 A 
ATOM      5  C   UNL d   1      60.374  -2.559  28.980  0.00  0.00    -0.007 A 
ATOM      6  C   UNL d   1      60.134  -3.010  28.763  0.00  0.00    -0.007 A 
ATOM      7  C   UNL d   1      58.851  -2.825  28.692  0.00  0.00     0.045 A 
ATOM      8  C   UNL d   1      61.010  -3.198  28.785  0.00  0.00    -0.001 A 
ATOM      9  C   UNL d   1      59.491  -3.314  28.560  0.00  0.00    -0.022 A 
ATOM     10  C   UNL d   1      59.523  -2.986  28.702  0.00  0.00    -0.022 A 
ENDROOT
BRANCH   1  11
ATOM     11  S   UNL d   1      58.595  -1.014  29.424  0.00  0.00     0.141 S 
ATOM     12  O   UNL d   1      58.163  -0.959  28.682  0.00  0.00    -0.233 OA
BRANCH  11  13
ATOM     13  N   UNL d   1      58.343  -0.546  30.110  0.00  0.00    -0.254 N 
ATOM     14  C   UNL d   1      57.685  -0.837  30.507  0.00  0.00     0.089 A 
ATOM     15  C   UNL d   1      57.310  -0.522  31.175  0.00  0.00     0.020 A 
ATOM     16  C   UNL d   1      57.503   0.147  31.598  0.00  0.00     0.002 A 
ATOM     17  C   UNL d   1      58.118   0.682  31.471  0.00  0.00     0.002 A 
ATOM     18  C   UNL d   1      58.701   0.679  30.880  0.00  0.00     0.020 A 
ATOM     19  C   UNL d   1      58.796   0.129  30.277  0.00  0.00     0.089 A 
ENDBRANCH  11  13
ENDBRANCH   1  11
TORSDOF 2
ENDMDL
