MODEL 1
REMARK VINA RESULT:      42.2      0.000      0.000
REMARK  8 active torsions:
REMARK  status: ('A' for Active; 'I' for Inactive)
REMARK    1  A    between atoms: C_5  and  C_1 
REMARK    2  A    between atoms: N_6  and  C_2 
REMARK    3  A    between atoms: C_7  and  C_5 
REMARK    4  A    between atoms: C_8  and  C_5 
REMARK    5  A    between atoms: O_12  and  C_7 
REMARK    6  A    between atoms: C_14  and  O_12 
REMARK    7  A    between atoms: C_19  and  C_14 
REMARK    8  A    between atoms: C_20  and  C_19 
ROOT
ATOM      1  C   UNL d   1      14.774  14.291  -1.643  0.00  0.00     0.122 A 
ATOM      2  C   UNL d   1      14.786  14.118  -0.840  0.00  0.00     0.166 A 
ATOM      3  N   UNL d   1      14.947  14.721  -0.296  0.00  0.00    -0.225 NA
ATOM      4  N   UNL d   1      14.922  15.060  -1.908  0.00  0.00    -0.241 NA
ATOM      5  C   UNL d   1      15.094  15.486  -0.557  0.00  0.00     0.101 A 
ATOM      6  C   UNL d   1      15.081  15.656  -1.365  0.00  0.00     0.099 A 
ATOM      7  C   UNL d   1      15.253  16.081  -0.014  0.00  0.00     0.021 A 
ATOM      8  C   UNL d   1      15.228  16.420  -1.627  0.00  0.00     0.021 A 
ATOM      9  C   UNL d   1      15.389  17.025  -1.091  0.00  0.00     0.002 A 
ATOM     10  C   UNL d   1      15.400  16.850  -0.279  0.00  0.00     0.002 A 
ENDROOT
BRANCH   1  11
ATOM     11  C   UNL d   1      14.613  13.689  -2.197  0.00  0.00     0.105 C 
BRANCH  11  12
ATOM     12  C   UNL d   1      14.168  13.852  -2.868  0.00  0.00     0.303 C 
ATOM     13  O   UNL d   1      14.181  14.604  -3.202  0.00  0.00    -0.259 OA
BRANCH  12  14
ATOM     14  O   UNL d   1      13.704  13.256  -3.209  0.00  0.00    -0.271 OA
BRANCH  14  15
ATOM     15  C   UNL d   1      13.149  13.024  -3.765  0.00  0.00     0.126 C 
BRANCH  15  16
ATOM     16  C   UNL d   1      12.919  12.240  -3.806  0.00  0.00     0.025 C 
ATOM     17  C   UNL d   1      12.824  11.811  -3.117  0.00  0.00     0.002 C 
BRANCH  16  18
ATOM     18  C   UNL d   1      12.785  11.890  -4.540  0.00  0.00     0.002 C 
ATOM     19  C   UNL d   1      12.948  12.305  -5.234  0.00  0.00     0.000 C 
ENDBRANCH  16  18
ENDBRANCH  15  16
ENDBRANCH  14  15
ENDBRANCH  12  14
ENDBRANCH  11  12
BRANCH  11  20
ATOM     20  C   UNL d   1      14.903  12.918  -2.068  0.00  0.00     0.129 C 
ATOM     21  N   UNL d   1      15.589  12.533  -2.610  0.00  0.00    -0.146 N 
ENDBRANCH  11  20
ENDBRANCH   1  11
BRANCH   2  22
ATOM     22  N   UNL d   1      14.638  13.348  -0.571  0.00  0.00    -0.288 N 
ATOM     23  C   UNL d   1      13.861  13.109  -0.440  0.00  0.00     0.082 A 
ATOM     24  C   UNL d   1      13.717  12.336  -0.170  0.00  0.00     0.019 A 
ATOM     25  C   UNL d   1      14.348  11.815  -0.036  0.00  0.00     0.003 A 
ATOM     26  C   UNL d   1      15.124  12.065  -0.171  0.00  0.00     0.019 A 
ATOM     27  C   UNL d   1      15.270  12.827  -0.437  0.00  0.00     0.082 A 
ENDBRANCH   2  22
TORSDOF 8
ENDMDL
MODEL 2
REMARK VINA RESULT:      42.5      1.144      3.784
REMARK  8 active torsions:
REMARK  status: ('A' for Active; 'I' for Inactive)
REMARK    1  A    between atoms: C_5  and  C_1 
REMARK    2  A    between atoms: N_6  and  C_2 
REMARK    3  A    between atoms: C_7  and  C_5 
REMARK    4  A    between atoms: C_8  and  C_5 
REMARK    5  A    between atoms: O_12  and  C_7 
REMARK    6  A    between atoms: C_14  and  O_12 
REMARK    7  A    between atoms: C_19  and  C_14 
REMARK    8  A    between atoms: C_20  and  C_19 
ROOT
ATOM      1  C   UNL d   1      14.106  13.403  -2.242  0.00  0.00     0.122 A 
ATOM      2  C   UNL d   1      14.163  12.598  -2.087  0.00  0.00     0.166 A 
ATOM      3  N   UNL d   1      13.855  12.056  -2.633  0.00  0.00    -0.225 NA
ATOM      4  N   UNL d   1      13.745  13.672  -2.934  0.00  0.00    -0.241 NA
ATOM      5  C   UNL d   1      13.495  12.322  -3.321  0.00  0.00     0.101 A 
ATOM      6  C   UNL d   1      13.440  13.132  -3.473  0.00  0.00     0.099 A 
ATOM      7  C   UNL d   1      13.190  11.782  -3.859  0.00  0.00     0.021 A 
ATOM      8  C   UNL d   1      13.080  13.398  -4.161  0.00  0.00     0.021 A 
ATOM      9  C   UNL d   1      12.771  12.864  -4.708  0.00  0.00     0.002 A 
ATOM     10  C   UNL d   1      12.828  12.051  -4.552  0.00  0.00     0.002 A 
ENDROOT
BRANCH   1  11
ATOM     11  C   UNL d   1      14.415  13.954  -1.697  0.00  0.00     0.105 C 
BRANCH  11  12
ATOM     12  C   UNL d   1      14.963  14.516  -1.942  0.00  0.00     0.303 C 
ATOM     13  O   UNL d   1      15.769  14.351  -1.911  0.00  0.00    -0.259 OA
BRANCH  12  14
ATOM     14  O   UNL d   1      14.701  15.250  -2.222  0.00  0.00    -0.271 OA
BRANCH  14  15
ATOM     15  C   UNL d   1      14.573  16.049  -2.095  0.00  0.00     0.126 C 
BRANCH  15  16
ATOM     16  C   UNL d   1      15.012  16.601  -2.509  0.00  0.00     0.025 C 
ATOM     17  C   UNL d   1      15.342  16.398  -3.229  0.00  0.00     0.002 C 
BRANCH  16  18
ATOM     18  C   UNL d   1      15.118  17.358  -2.199  0.00  0.00     0.002 C 
ATOM     19  C   UNL d   1      14.746  17.573  -1.494  0.00  0.00     0.000 C 
ENDBRANCH  16  18
ENDBRANCH  15  16
ENDBRANCH  14  15
ENDBRANCH  12  14
ENDBRANCH  11  12
BRANCH  11  20
ATOM     20  C   UNL d   1      14.167  13.936  -0.902  0.00  0.00     0.129 C 
ATOM     21  N   UNL d   1      13.964  14.729  -0.410  0.00  0.00    -0.146 N 
ENDBRANCH  11  20
ENDBRANCH   1  11
BRANCH   2  22
ATOM     22  N   UNL d   1      14.526  12.325  -1.394  0.00  0.00    -0.288 N 
ATOM     23  C   UNL d   1      14.074  12.236  -0.711  0.00  0.00     0.082 A 
ATOM     24  C   UNL d   1      14.440  11.962  -0.018  0.00  0.00     0.019 A 
ATOM     25  C   UNL d   1      15.250  11.781  -0.015  0.00  0.00     0.003 A 
ATOM     26  C   UNL d   1      15.694  11.874  -0.706  0.00  0.00     0.019 A 
ATOM     27  C   UNL d   1      15.336  12.144  -1.392  0.00  0.00     0.082 A 
ENDBRANCH   2  22
TORSDOF 8
ENDMDL
