MODEL 1
REMARK VINA RESULT:      23.6      0.000      0.000
REMARK  7 active torsions:
REMARK  status: ('A' for Active; 'I' for Inactive)
REMARK    1  A    between atoms: N_6  and  C_1 
REMARK    2  A    between atoms: S_9  and  C_3 
REMARK       I    between atoms: C_7  and  N_6 
REMARK    3  A    between atoms: C_14  and  C_7 
REMARK    4  A    between atoms: C_8  and  C_13 
REMARK       I    between atoms: N_10  and  C_8 
REMARK    5  A    between atoms: C_13  and  S_9 
REMARK    6  A    between atoms: C_15  and  N_10 
REMARK    7  A    between atoms: C_22  and  C_14 
ROOT
ATOM      1  C   UNL d   1      45.559 -16.143  44.776  0.00  0.00     0.219 A 
ATOM      2  S   UNL d   1      46.188 -16.657  44.678  0.00  0.00    -0.019 SA
ATOM      3  C   UNL d   1      45.924 -17.392  44.770  0.00  0.00     0.165 A 
ATOM      4  N   UNL d   1      44.895 -16.617  44.935  0.00  0.00    -0.120 NA
ATOM      5  N   UNL d   1      45.114 -17.368  44.931  0.00  0.00    -0.133 NA
ENDROOT
BRANCH   3   6
ATOM      6  S   UNL d   1      46.456 -18.045  44.698  0.00  0.00    -0.054 SA
BRANCH   6   7
ATOM      7  C   UNL d   1      46.380 -18.571  44.065  0.00  0.00     0.100 C 
BRANCH   7   8
ATOM      8  C   UNL d   1      46.518 -19.378  44.172  0.00  0.00     0.286 C 
ATOM      9  N   UNL d   1      46.623 -19.860  43.537  0.00  0.00    -0.208 NA
ATOM     10  O   UNL d   1      46.549 -19.702  44.955  0.00  0.00    -0.265 OA
BRANCH   9  11
ATOM     11  C   UNL d   1      46.591 -19.528  42.750  0.00  0.00     0.085 A 
ATOM     12  C   UNL d   1      46.647 -18.716  42.685  0.00  0.00     0.021 A 
ATOM     13  C   UNL d   1      46.617 -18.383  41.931  0.00  0.00     0.031 A 
ATOM     14  C   UNL d   1      46.535 -18.839  41.268  0.00  0.00     0.140 A 
ATOM     15  C   UNL d   1      46.477 -19.675  41.340  0.00  0.00     0.031 A 
ATOM     16  F   UNL d   1      46.508 -18.530  40.579  0.00  0.00    -0.204 F 
ATOM     17  C   UNL d   1      46.506 -20.020  42.093  0.00  0.00     0.021 A 
ENDBRANCH   9  11
ENDBRANCH   7   8
ENDBRANCH   6   7
ENDBRANCH   3   6
BRANCH   1  18
ATOM     18  N   UNL d   1      45.544 -15.310  44.735  0.00  0.00    -0.181 NA
ATOM     19  C   UNL d   1      45.058 -14.616  44.720  0.00  0.00     0.281 C 
ATOM     20  O   UNL d   1      44.240 -14.700  44.757  0.00  0.00    -0.265 OA
BRANCH  19  21
ATOM     21  C   UNL d   1      45.288 -13.825  44.671  0.00  0.00     0.063 C 
BRANCH  21  22
ATOM     22  C   UNL d   1      45.000 -13.353  43.960  0.00  0.00     0.005 C 
ATOM     23  C   UNL d   1      45.458 -12.683  43.754  0.00  0.00     0.000 C 
ATOM     24  C   UNL d   1      44.457 -13.454  43.553  0.00  0.00     0.000 C 
ENDBRANCH  21  22
ENDBRANCH  19  21
ENDBRANCH   1  18
TORSDOF 7
ENDMDL
