MODEL 1
REMARK VINA RESULT:      25.5      0.000      0.000
REMARK  4 active torsions:
REMARK  status: ('A' for Active; 'I' for Inactive)
REMARK    1  A    between atoms: N_7  and  C_1 
REMARK    2  A    between atoms: S_2  and  C_8 
REMARK    3  A    between atoms: C_10  and  S_2 
REMARK       I    between atoms: C_9  and  N_7 
REMARK    4  A    between atoms: C_8  and  C_9 
ROOT
ATOM      1  N   UNL d   1      46.406 -17.111  44.612  0.00  0.00    -0.182 NA
ATOM      2  C   UNL d   1      45.866 -16.504  44.483  0.00  0.00     0.293 C 
ATOM      3  O   UNL d   1      45.312 -16.555  43.872  0.00  0.00    -0.264 OA
ENDROOT
BRANCH   2   4
ATOM      4  C   UNL d   1      45.864 -15.837  44.955  0.00  0.00     0.161 C 
BRANCH   4   5
ATOM      5  S   UNL d   1      45.670 -15.094  44.610  0.00  0.00     0.215 S 
ATOM      6  O   UNL d   1      46.483 -14.915  44.536  0.00  0.00    -0.217 OA
ATOM      7  O   UNL d   1      44.866 -15.275  44.686  0.00  0.00    -0.217 OA
BRANCH   5   8
ATOM      8  C   UNL d   1      45.481 -14.359  44.269  0.00  0.00     0.088 A 
ATOM      9  C   UNL d   1      44.696 -14.176  44.097  0.00  0.00     0.012 A 
ATOM     10  C   UNL d   1      44.511 -13.452  43.762  0.00  0.00     0.012 A 
ATOM     11  C   UNL d   1      45.110 -12.910  43.598  0.00  0.00     0.058 A 
ATOM     12  C   UNL d   1      45.889 -13.087  43.766  0.00  0.00     0.012 A 
ATOM     13 CL   UNL d   1      44.920 -12.181  43.259  0.00  0.00    -0.082 Cl
ATOM     14  C   UNL d   1      46.074 -13.817  44.105  0.00  0.00     0.012 A 
ENDBRANCH   5   8
ENDBRANCH   4   5
ENDBRANCH   2   4
BRANCH   1  15
ATOM     15  C   UNL d   1      46.399 -17.752  44.149  0.00  0.00     0.197 A 
ATOM     16  N   UNL d   1      46.506 -17.751  43.313  0.00  0.00    -0.221 NA
ATOM     17  C   UNL d   1      46.458 -18.540  43.047  0.00  0.00     0.090 A 
ATOM     18  C   UNL d   1      46.520 -18.875  42.293  0.00  0.00     0.018 A 
ATOM     19  C   UNL d   1      46.324 -19.026  43.715  0.00  0.00     0.060 A 
ATOM     20  C   UNL d   1      46.447 -19.700  42.199  0.00  0.00     0.002 A 
ATOM     21  C   UNL d   1      46.647 -18.412  41.664  0.00  0.00     0.002 C 
ATOM     22  C   UNL d   1      46.311 -20.201  42.867  0.00  0.00     0.012 A 
ATOM     23  C   UNL d   1      46.250 -19.854  43.624  0.00  0.00     0.065 A 
ATOM     24 CL   UNL d   1      46.118 -20.327  44.282  0.00  0.00    -0.082 Cl
ATOM     25  S   UNL d   1      46.289 -18.529  44.394  0.00  0.00    -0.046 SA
ENDBRANCH   1  15
TORSDOF 4
ENDMDL
MODEL 2
REMARK VINA RESULT:      27.4      1.246      5.174
REMARK  4 active torsions:
REMARK  status: ('A' for Active; 'I' for Inactive)
REMARK    1  A    between atoms: N_7  and  C_1 
REMARK    2  A    between atoms: S_2  and  C_8 
REMARK    3  A    between atoms: C_10  and  S_2 
REMARK       I    between atoms: C_9  and  N_7 
REMARK    4  A    between atoms: C_8  and  C_9 
ROOT
ATOM      1  N   UNL d   1      45.218 -15.515  44.348  0.00  0.00    -0.182 NA
ATOM      2  C   UNL d   1      45.871 -15.914  44.649  0.00  0.00     0.293 C 
ATOM      3  O   UNL d   1      46.610 -15.547  44.686  0.00  0.00    -0.264 OA
ENDROOT
BRANCH   2   4
ATOM      4  C   UNL d   1      45.806 -16.683  44.919  0.00  0.00     0.161 C 
BRANCH   4   5
ATOM      5  S   UNL d   1      45.875 -17.316  44.369  0.00  0.00     0.215 S 
ATOM      6  O   UNL d   1      45.134 -17.614  44.617  0.00  0.00    -0.217 OA
ATOM      7  O   UNL d   1      46.608 -17.018  44.127  0.00  0.00    -0.217 OA
BRANCH   5   8
ATOM      8  C   UNL d   1      45.942 -17.943  43.826  0.00  0.00     0.088 A 
ATOM      9  C   UNL d   1      46.118 -18.701  44.094  0.00  0.00     0.012 A 
ATOM     10  C   UNL d   1      46.183 -19.317  43.558  0.00  0.00     0.012 A 
ATOM     11  C   UNL d   1      46.072 -19.176  42.754  0.00  0.00     0.058 A 
ATOM     12  C   UNL d   1      45.898 -18.426  42.483  0.00  0.00     0.012 A 
ATOM     13 CL   UNL d   1      46.139 -19.799  42.215  0.00  0.00    -0.082 Cl
ATOM     14  C   UNL d   1      45.832 -17.806  43.025  0.00  0.00     0.012 A 
ENDBRANCH   5   8
ENDBRANCH   4   5
ENDBRANCH   2   4
BRANCH   1  15
ATOM     15  C   UNL d   1      45.293 -14.771  44.089  0.00  0.00     0.197 A 
ATOM     16  N   UNL d   1      45.569 -14.121  44.549  0.00  0.00    -0.221 NA
ATOM     17  C   UNL d   1      45.561 -13.443  44.064  0.00  0.00     0.090 A 
ATOM     18  C   UNL d   1      45.769 -12.656  44.210  0.00  0.00     0.018 A 
ATOM     19  C   UNL d   1      45.282 -13.672  43.309  0.00  0.00     0.060 A 
ATOM     20  C   UNL d   1      45.701 -12.089  43.603  0.00  0.00     0.002 A 
ATOM     21  C   UNL d   1      46.033 -12.442  44.925  0.00  0.00     0.002 C 
ATOM     22  C   UNL d   1      45.420 -12.310  42.836  0.00  0.00     0.012 A 
ATOM     23  C   UNL d   1      45.212 -13.106  42.698  0.00  0.00     0.065 A 
ATOM     24 CL   UNL d   1      44.938 -13.335  41.958  0.00  0.00    -0.082 Cl
ATOM     25  S   UNL d   1      45.119 -14.498  43.334  0.00  0.00    -0.046 SA
ENDBRANCH   1  15
TORSDOF 4
ENDMDL
