MODEL 1
REMARK VINA RESULT:      -8.8      0.000      0.000
REMARK  3 active torsions:
REMARK  status: ('A' for Active; 'I' for Inactive)
REMARK    1  A    between atoms: C_9  and  N_1 
REMARK    2  A    between atoms: C_5  and  C_9 
REMARK       I    between atoms: N_8  and  C_5 
REMARK    3  A    between atoms: O_14  and  C_12 
ROOT
ATOM      1  N   UNL d   1      51.886  33.751  52.898  0.00  0.00    -0.268 N 
ATOM      2  C   UNL d   1      52.246  33.015  52.865  0.00  0.00     0.265 A 
ATOM      3  C   UNL d   1      52.931  32.873  53.310  0.00  0.00     0.059 A 
ATOM      4  C   UNL d   1      53.246  33.469  53.782  0.00  0.00     0.028 A 
ATOM      5  C   UNL d   1      52.886  34.206  53.815  0.00  0.00     0.021 A 
ATOM      6  C   UNL d   1      52.208  34.350  53.376  0.00  0.00     0.083 A 
ATOM      7  O   UNL d   1      51.931  32.418  52.393  0.00  0.00    -0.267 OA
ATOM      8  C   UNL d   1      53.927  33.323  54.222  0.00  0.00     0.094 A 
ATOM      9  C   UNL d   1      53.288  32.131  53.271  0.00  0.00     0.005 A 
ATOM     10  C   UNL d   1      53.972  31.982  53.713  0.00  0.00     0.002 A 
ATOM     11  C   UNL d   1      54.290  32.574  54.185  0.00  0.00     0.024 A 
ENDROOT
BRANCH   1  12
ATOM     12  C   UNL d   1      51.208  33.895  52.459  0.00  0.00     0.144 C 
BRANCH  12  13
ATOM     13  C   UNL d   1      50.580  34.329  52.788  0.00  0.00     0.283 C 
ATOM     14  N   UNL d   1      49.929  34.513  52.320  0.00  0.00    -0.271 N 
ATOM     15  C   UNL d   1      49.327  34.962  52.734  0.00  0.00     0.083 A 
ATOM     16  C   UNL d   1      49.977  34.259  51.623  0.00  0.00     0.083 A 
ATOM     17  C   UNL d   1      48.687  35.234  52.551  0.00  0.00     0.019 A 
ATOM     18  C   UNL d   1      48.308  35.186  51.807  0.00  0.00     0.002 A 
ATOM     19  C   UNL d   1      48.627  34.784  51.088  0.00  0.00     0.002 A 
ATOM     20  C   UNL d   1      49.401  34.352  50.998  0.00  0.00     0.019 A 
ATOM     21  O   UNL d   1      50.604  34.572  53.564  0.00  0.00    -0.265 OA
ENDBRANCH  12  13
ENDBRANCH   1  12
BRANCH   8  22
ATOM     22  O   UNL d   1      54.252  33.909  54.697  0.00  0.00    -0.328 OA
ATOM     23  C   UNL d   1      54.912  33.752  55.152  0.00  0.00     0.181 C 
ENDBRANCH   8  22
TORSDOF 3
ENDMDL
MODEL 2
REMARK VINA RESULT:      -8.1      0.981      4.674
REMARK  3 active torsions:
REMARK  status: ('A' for Active; 'I' for Inactive)
REMARK    1  A    between atoms: C_9  and  N_1 
REMARK    2  A    between atoms: C_5  and  C_9 
REMARK       I    between atoms: N_8  and  C_5 
REMARK    3  A    between atoms: O_14  and  C_12 
ROOT
ATOM      1  N   UNL d   1      51.197  34.164  52.929  0.00  0.00    -0.268 N 
ATOM      2  C   UNL d   1      50.855  34.093  52.187  0.00  0.00     0.265 A 
ATOM      3  C   UNL d   1      50.102  34.410  52.052  0.00  0.00     0.059 A 
ATOM      4  C   UNL d   1      49.700  34.793  52.659  0.00  0.00     0.028 A 
ATOM      5  C   UNL d   1      50.042  34.864  53.402  0.00  0.00     0.021 A 
ATOM      6  C   UNL d   1      50.788  34.552  53.540  0.00  0.00     0.083 A 
ATOM      7  O   UNL d   1      51.256  33.709  51.579  0.00  0.00    -0.267 OA
ATOM      8  C   UNL d   1      48.951  35.106  52.519  0.00  0.00     0.094 A 
ATOM      9  C   UNL d   1      49.764  34.335  51.303  0.00  0.00     0.005 A 
ATOM     10  C   UNL d   1      49.011  34.649  51.160  0.00  0.00     0.002 A 
ATOM     11  C   UNL d   1      48.607  35.032  51.764  0.00  0.00     0.024 A 
ENDROOT
BRANCH   1  12
ATOM     12  C   UNL d   1      51.943  33.851  53.068  0.00  0.00     0.144 C 
BRANCH  12  13
ATOM     13  C   UNL d   1      52.456  34.215  53.612  0.00  0.00     0.283 C 
ATOM     14  N   UNL d   1      53.051  33.769  53.964  0.00  0.00    -0.271 N 
ATOM     15  C   UNL d   1      53.534  34.218  54.511  0.00  0.00     0.083 A 
ATOM     16  C   UNL d   1      53.065  33.058  53.746  0.00  0.00     0.083 A 
ATOM     17  C   UNL d   1      54.098  34.061  54.930  0.00  0.00     0.019 A 
ATOM     18  C   UNL d   1      54.482  33.323  55.012  0.00  0.00     0.002 A 
ATOM     19  C   UNL d   1      54.265  32.578  54.590  0.00  0.00     0.002 A 
ATOM     20  C   UNL d   1      53.608  32.450  54.002  0.00  0.00     0.019 A 
ATOM     21  O   UNL d   1      52.374  35.002  53.798  0.00  0.00    -0.265 OA
ENDBRANCH  12  13
ENDBRANCH   1  12
BRANCH   8  22
ATOM     22  O   UNL d   1      48.540  35.491  53.117  0.00  0.00    -0.328 OA
ATOM     23  C   UNL d   1      47.859  35.907  52.946  0.00  0.00     0.181 C 
ENDBRANCH   8  22
TORSDOF 3
ENDMDL
MODEL 3
REMARK VINA RESULT:      -7.8      2.467      3.794
REMARK  3 active torsions:
REMARK  status: ('A' for Active; 'I' for Inactive)
REMARK    1  A    between atoms: C_9  and  N_1 
REMARK    2  A    between atoms: C_5  and  C_9 
REMARK       I    between atoms: N_8  and  C_5 
REMARK    3  A    between atoms: O_14  and  C_12 
ROOT
ATOM      1  N   UNL d   1      53.397  31.981  53.612  0.00  0.00    -0.268 N 
ATOM      2  C   UNL d   1      53.072  31.484  53.047  0.00  0.00     0.265 A 
ATOM      3  C   UNL d   1      53.019  30.671  53.199  0.00  0.00     0.059 A 
ATOM      4  C   UNL d   1      53.291  30.366  53.913  0.00  0.00     0.028 A 
ATOM      5  C   UNL d   1      53.617  30.865  54.479  0.00  0.00     0.021 A 
ATOM      6  C   UNL d   1      53.671  31.670  54.332  0.00  0.00     0.083 A 
ATOM      7  O   UNL d   1      52.799  31.787  52.332  0.00  0.00    -0.267 OA
ATOM      8  C   UNL d   1      53.236  29.557  54.059  0.00  0.00     0.094 A 
ATOM      9  C   UNL d   1      52.691  30.176  52.627  0.00  0.00     0.005 A 
ATOM     10  C   UNL d   1      52.635  29.363  52.771  0.00  0.00     0.002 A 
ATOM     11  C   UNL d   1      52.906  29.055  53.483  0.00  0.00     0.024 A 
ENDROOT
BRANCH   1  12
ATOM     12  C   UNL d   1      53.451  32.787  53.465  0.00  0.00     0.144 C 
BRANCH  12  13
ATOM     13  C   UNL d   1      53.705  33.306  54.063  0.00  0.00     0.283 C 
ATOM     14  N   UNL d   1      53.372  34.056  54.112  0.00  0.00    -0.271 N 
ATOM     15  C   UNL d   1      53.688  34.528  54.755  0.00  0.00     0.083 A 
ATOM     16  C   UNL d   1      52.858  34.194  53.593  0.00  0.00     0.083 A 
ATOM     17  C   UNL d   1      53.565  35.194  54.998  0.00  0.00     0.019 A 
ATOM     18  C   UNL d   1      53.024  35.755  54.695  0.00  0.00     0.002 A 
ATOM     19  C   UNL d   1      52.489  35.636  54.002  0.00  0.00     0.002 A 
ATOM     20  C   UNL d   1      52.409  34.913  53.488  0.00  0.00     0.019 A 
ATOM     21  O   UNL d   1      54.275  33.079  54.596  0.00  0.00    -0.265 OA
ENDBRANCH  12  13
ENDBRANCH   1  12
BRANCH   8  22
ATOM     22  O   UNL d   1      53.505  29.241  54.769  0.00  0.00    -0.328 OA
ATOM     23  C   UNL d   1      53.406  28.447  54.928  0.00  0.00     0.181 C 
ENDBRANCH   8  22
TORSDOF 3
ENDMDL
MODEL 4
REMARK VINA RESULT:      -7.1      2.144      4.489
REMARK  3 active torsions:
REMARK  status: ('A' for Active; 'I' for Inactive)
REMARK    1  A    between atoms: C_9  and  N_1 
REMARK    2  A    between atoms: C_5  and  C_9 
REMARK       I    between atoms: N_8  and  C_5 
REMARK    3  A    between atoms: O_14  and  C_12 
ROOT
ATOM      1  N   UNL d   1      53.279  32.452  53.624  0.00  0.00    -0.268 N 
ATOM      2  C   UNL d   1      52.752  32.871  53.154  0.00  0.00     0.265 A 
ATOM      3  C   UNL d   1      52.643  33.682  53.285  0.00  0.00     0.059 A 
ATOM      4  C   UNL d   1      53.060  34.063  53.883  0.00  0.00     0.028 A 
ATOM      5  C   UNL d   1      53.587  33.643  54.353  0.00  0.00     0.021 A 
ATOM      6  C   UNL d   1      53.698  32.840  54.227  0.00  0.00     0.083 A 
ATOM      7  O   UNL d   1      52.335  32.490  52.555  0.00  0.00    -0.267 OA
ATOM      8  C   UNL d   1      52.947  34.869  54.009  0.00  0.00     0.094 A 
ATOM      9  C   UNL d   1      52.113  34.097  52.809  0.00  0.00     0.005 A 
ATOM     10  C   UNL d   1      51.997  34.907  52.934  0.00  0.00     0.002 A 
ATOM     11  C   UNL d   1      52.412  35.291  53.530  0.00  0.00     0.024 A 
ENDROOT
BRANCH   1  12
ATOM     12  C   UNL d   1      53.390  31.649  53.497  0.00  0.00     0.144 C 
BRANCH  12  13
ATOM     13  C   UNL d   1      53.500  31.134  54.140  0.00  0.00     0.283 C 
ATOM     14  N   UNL d   1      53.357  30.330  54.042  0.00  0.00    -0.271 N 
ATOM     15  C   UNL d   1      53.494  29.870  54.752  0.00  0.00     0.083 A 
ATOM     16  C   UNL d   1      53.135  30.145  53.357  0.00  0.00     0.083 A 
ATOM     17  C   UNL d   1      53.442  29.172  54.917  0.00  0.00     0.019 A 
ATOM     18  C   UNL d   1      53.208  28.545  54.414  0.00  0.00     0.002 A 
ATOM     19  C   UNL d   1      52.977  28.623  53.565  0.00  0.00     0.002 A 
ATOM     20  C   UNL d   1      52.941  29.363  53.070  0.00  0.00     0.019 A 
ATOM     21  O   UNL d   1      53.747  31.418  54.861  0.00  0.00    -0.265 OA
ENDBRANCH  12  13
ENDBRANCH   1  12
BRANCH   8  22
ATOM     22  O   UNL d   1      53.358  35.261  54.603  0.00  0.00    -0.328 OA
ATOM     23  C   UNL d   1      53.196  36.044  54.767  0.00  0.00     0.181 C 
ENDBRANCH   8  22
TORSDOF 3
ENDMDL
MODEL 5
REMARK VINA RESULT:      -6.9      1.521      5.434
REMARK  3 active torsions:
REMARK  status: ('A' for Active; 'I' for Inactive)
REMARK    1  A    between atoms: C_9  and  N_1 
REMARK    2  A    between atoms: C_5  and  C_9 
REMARK       I    between atoms: N_8  and  C_5 
REMARK    3  A    between atoms: O_14  and  C_12 
ROOT
ATOM      1  N   UNL d   1      49.370  35.054  52.618  0.00  0.00    -0.268 N 
ATOM      2  C   UNL d   1      48.863  35.568  53.007  0.00  0.00     0.265 A 
ATOM      3  C   UNL d   1      48.116  35.727  52.685  0.00  0.00     0.059 A 
ATOM      4  C   UNL d   1      47.887  35.370  51.980  0.00  0.00     0.028 A 
ATOM      5  C   UNL d   1      48.395  34.855  51.591  0.00  0.00     0.021 A 
ATOM      6  C   UNL d   1      49.135  34.695  51.907  0.00  0.00     0.083 A 
ATOM      7  O   UNL d   1      49.092  35.925  53.712  0.00  0.00    -0.267 OA
ATOM      8  C   UNL d   1      47.143  35.532  51.664  0.00  0.00     0.094 A 
ATOM      9  C   UNL d   1      47.611  36.245  53.080  0.00  0.00     0.005 A 
ATOM     10  C   UNL d   1      46.863  36.409  52.765  0.00  0.00     0.002 A 
ATOM     11  C   UNL d   1      46.630  36.055  52.061  0.00  0.00     0.024 A 
ENDROOT
BRANCH   1  12
ATOM     12  C   UNL d   1      50.110  34.894  52.934  0.00  0.00     0.144 C 
BRANCH  12  13
ATOM     13  C   UNL d   1      50.427  34.126  52.894  0.00  0.00     0.283 C 
ATOM     14  N   UNL d   1      51.228  34.012  53.038  0.00  0.00    -0.271 N 
ATOM     15  C   UNL d   1      51.473  33.193  52.976  0.00  0.00     0.083 A 
ATOM     16  C   UNL d   1      51.599  34.637  53.195  0.00  0.00     0.083 A 
ATOM     17  C   UNL d   1      52.099  32.847  53.054  0.00  0.00     0.019 A 
ATOM     18  C   UNL d   1      52.843  33.178  53.247  0.00  0.00     0.002 A 
ATOM     19  C   UNL d   1      53.006  34.034  53.394  0.00  0.00     0.002 A 
ATOM     20  C   UNL d   1      52.431  34.715  53.371  0.00  0.00     0.019 A 
ATOM     21  O   UNL d   1      49.952  33.490  52.714  0.00  0.00    -0.265 OA
ENDBRANCH  12  13
ENDBRANCH   1  12
BRANCH   8  22
ATOM     22  O   UNL d   1      46.902  35.182  50.961  0.00  0.00    -0.328 OA
ATOM     23  C   UNL d   1      46.150  35.315  50.672  0.00  0.00     0.181 C 
ENDBRANCH   8  22
TORSDOF 3
ENDMDL
MODEL 6
REMARK VINA RESULT:      -6.8      0.897      1.473
REMARK  3 active torsions:
REMARK  status: ('A' for Active; 'I' for Inactive)
REMARK    1  A    between atoms: C_9  and  N_1 
REMARK    2  A    between atoms: C_5  and  C_9 
REMARK       I    between atoms: N_8  and  C_5 
REMARK    3  A    between atoms: O_14  and  C_12 
ROOT
ATOM      1  N   UNL d   1      51.986  33.497  52.659  0.00  0.00    -0.268 N 
ATOM      2  C   UNL d   1      52.739  33.686  52.925  0.00  0.00     0.265 A 
ATOM      3  C   UNL d   1      53.222  33.091  53.241  0.00  0.00     0.059 A 
ATOM      4  C   UNL d   1      52.947  32.317  53.287  0.00  0.00     0.028 A 
ATOM      5  C   UNL d   1      52.193  32.128  53.021  0.00  0.00     0.021 A 
ATOM      6  C   UNL d   1      51.712  32.714  52.707  0.00  0.00     0.083 A 
ATOM      7  O   UNL d   1      53.014  34.460  52.880  0.00  0.00    -0.267 OA
ATOM      8  C   UNL d   1      53.432  31.730  53.602  0.00  0.00     0.094 A 
ATOM      9  C   UNL d   1      53.977  33.288  53.507  0.00  0.00     0.005 A 
ATOM     10  C   UNL d   1      54.466  32.700  53.824  0.00  0.00     0.002 A 
ATOM     11  C   UNL d   1      54.195  31.925  53.871  0.00  0.00     0.024 A 
ENDROOT
BRANCH   1  12
ATOM     12  C   UNL d   1      51.504  34.082  52.346  0.00  0.00     0.144 C 
BRANCH  12  13
ATOM     13  C   UNL d   1      50.788  34.281  52.718  0.00  0.00     0.283 C 
ATOM     14  N   UNL d   1      50.128  34.451  52.258  0.00  0.00    -0.271 N 
ATOM     15  C   UNL d   1      49.432  34.645  52.718  0.00  0.00     0.083 A 
ATOM     16  C   UNL d   1      50.252  34.408  51.525  0.00  0.00     0.083 A 
ATOM     17  C   UNL d   1      48.755  34.825  52.555  0.00  0.00     0.019 A 
ATOM     18  C   UNL d   1      48.418  34.905  51.793  0.00  0.00     0.002 A 
ATOM     19  C   UNL d   1      48.839  34.781  51.027  0.00  0.00     0.002 A 
ATOM     20  C   UNL d   1      49.690  34.550  50.897  0.00  0.00     0.019 A 
ATOM     21  O   UNL d   1      50.735  34.306  53.529  0.00  0.00    -0.265 OA
ENDBRANCH  12  13
ENDBRANCH   1  12
BRANCH   8  22
ATOM     22  O   UNL d   1      53.168  30.953  53.653  0.00  0.00    -0.328 OA
ATOM     23  C   UNL d   1      53.676  30.362  53.897  0.00  0.00     0.181 C 
ENDBRANCH   8  22
TORSDOF 3
ENDMDL
MODEL 7
REMARK VINA RESULT:      -6.3      9.698     10.627
REMARK  3 active torsions:
REMARK  status: ('A' for Active; 'I' for Inactive)
REMARK    1  A    between atoms: C_9  and  N_1 
REMARK    2  A    between atoms: C_5  and  C_9 
REMARK       I    between atoms: N_8  and  C_5 
REMARK    3  A    between atoms: O_14  and  C_12 
ROOT
ATOM      1  N   UNL d   1      44.989  28.203  57.570  0.00  0.00    -0.268 N 
ATOM      2  C   UNL d   1      45.128  28.680  58.223  0.00  0.00     0.265 A 
ATOM      3  C   UNL d   1      45.050  29.502  58.152  0.00  0.00     0.059 A 
ATOM      4  C   UNL d   1      44.834  29.836  57.432  0.00  0.00     0.028 A 
ATOM      5  C   UNL d   1      44.696  29.358  56.778  0.00  0.00     0.021 A 
ATOM      6  C   UNL d   1      44.772  28.544  56.844  0.00  0.00     0.083 A 
ATOM      7  O   UNL d   1      45.343  28.347  58.944  0.00  0.00    -0.267 OA
ATOM      8  C   UNL d   1      44.758  30.654  57.368  0.00  0.00     0.094 A 
ATOM      9  C   UNL d   1      45.190  29.976  58.812  0.00  0.00     0.005 A 
ATOM     10  C   UNL d   1      45.114  30.798  58.750  0.00  0.00     0.002 A 
ATOM     11  C   UNL d   1      44.899  31.136  58.032  0.00  0.00     0.024 A 
ENDROOT
BRANCH   1  12
ATOM     12  C   UNL d   1      45.066  27.389  57.635  0.00  0.00     0.144 C 
BRANCH  12  13
ATOM     13  C   UNL d   1      45.145  26.919  56.954  0.00  0.00     0.283 C 
ATOM     14  N   UNL d   1      44.910  26.131  56.978  0.00  0.00    -0.271 N 
ATOM     15  C   UNL d   1      45.025  25.718  56.236  0.00  0.00     0.083 A 
ATOM     16  C   UNL d   1      44.640  25.917  57.637  0.00  0.00     0.083 A 
ATOM     17  C   UNL d   1      44.902  25.046  56.010  0.00  0.00     0.019 A 
ATOM     18  C   UNL d   1      44.580  24.411  56.450  0.00  0.00     0.002 A 
ATOM     19  C   UNL d   1      44.323  24.445  57.294  0.00  0.00     0.002 A 
ATOM     20  C   UNL d   1      44.349  25.142  57.850  0.00  0.00     0.019 A 
ATOM     21  O   UNL d   1      45.451  27.230  56.268  0.00  0.00    -0.265 OA
ENDBRANCH  12  13
ENDBRANCH   1  12
BRANCH   8  22
ATOM     22  O   UNL d   1      44.544  30.999  56.653  0.00  0.00    -0.328 OA
ATOM     23  C   UNL d   1      44.427  31.806  56.605  0.00  0.00     0.181 C 
ENDBRANCH   8  22
TORSDOF 3
ENDMDL
MODEL 8
REMARK VINA RESULT:      -6.0      9.855     10.517
REMARK  3 active torsions:
REMARK  status: ('A' for Active; 'I' for Inactive)
REMARK    1  A    between atoms: C_9  and  N_1 
REMARK    2  A    between atoms: C_5  and  C_9 
REMARK       I    between atoms: N_8  and  C_5 
REMARK    3  A    between atoms: O_14  and  C_12 
ROOT
ATOM      1  N   UNL d   1      45.012  27.864  57.627  0.00  0.00    -0.268 N 
ATOM      2  C   UNL d   1      44.930  27.373  58.279  0.00  0.00     0.265 A 
ATOM      3  C   UNL d   1      44.830  26.558  58.167  0.00  0.00     0.059 A 
ATOM      4  C   UNL d   1      44.814  26.245  57.406  0.00  0.00     0.028 A 
ATOM      5  C   UNL d   1      44.896  26.737  56.754  0.00  0.00     0.021 A 
ATOM      6  C   UNL d   1      44.995  27.544  56.860  0.00  0.00     0.083 A 
ATOM      7  O   UNL d   1      44.946  27.685  59.040  0.00  0.00    -0.267 OA
ATOM      8  C   UNL d   1      44.715  25.434  57.301  0.00  0.00     0.094 A 
ATOM      9  C   UNL d   1      44.748  26.070  58.826  0.00  0.00     0.005 A 
ATOM     10  C   UNL d   1      44.648  25.255  58.724  0.00  0.00     0.002 A 
ATOM     11  C   UNL d   1      44.631  24.938  57.965  0.00  0.00     0.024 A 
ENDROOT
BRANCH   1  12
ATOM     12  C   UNL d   1      45.111  28.672  57.733  0.00  0.00     0.144 C 
BRANCH  12  13
ATOM     13  C   UNL d   1      44.890  29.204  57.134  0.00  0.00     0.283 C 
ATOM     14  N   UNL d   1      44.837  30.006  57.307  0.00  0.00    -0.271 N 
ATOM     15  C   UNL d   1      44.604  30.485  56.635  0.00  0.00     0.083 A 
ATOM     16  C   UNL d   1      45.001  30.174  58.013  0.00  0.00     0.083 A 
ATOM     17  C   UNL d   1      44.492  31.189  56.534  0.00  0.00     0.019 A 
ATOM     18  C   UNL d   1      44.564  31.803  57.097  0.00  0.00     0.002 A 
ATOM     19  C   UNL d   1      44.797  31.703  57.944  0.00  0.00     0.002 A 
ATOM     20  C   UNL d   1      45.001  30.949  58.373  0.00  0.00     0.019 A 
ATOM     21  O   UNL d   1      44.726  28.939  56.383  0.00  0.00    -0.265 OA
ENDBRANCH  12  13
ENDBRANCH   1  12
BRANCH   8  22
ATOM     22  O   UNL d   1      44.697  25.109  56.546  0.00  0.00    -0.328 OA
ATOM     23  C   UNL d   1      44.543  24.314  56.445  0.00  0.00     0.181 C 
ENDBRANCH   8  22
TORSDOF 3
ENDMDL
