MODEL 1
REMARK VINA RESULT:      -9.5      0.000      0.000
REMARK  4 active torsions:
REMARK  status: ('A' for Active; 'I' for Inactive)
REMARK    1  A    between atoms: C_11  and  N_2 
REMARK    2  A    between atoms: N_3  and  C_14 
REMARK    3  A    between atoms: C_16  and  C_11 
REMARK    4  A    between atoms: C_14  and  C_16 
ROOT
ATOM      1  C   UNL d   1      51.674  33.536  53.018  0.00  0.00     0.231 C 
ATOM      2  O   UNL d   1      51.191  32.942  53.328  0.00  0.00    -0.283 OA
ENDROOT
BRANCH   1   3
ATOM      3  C   UNL d   1      52.454  33.367  52.803  0.00  0.00     0.124 C 
BRANCH   3   4
ATOM      4  N   UNL d   1      52.928  32.906  53.301  0.00  0.00    -0.303 N 
ATOM      5  C   UNL d   1      53.004  32.075  53.279  0.00  0.00     0.064 A 
ATOM      6  C   UNL d   1      53.533  31.854  53.876  0.00  0.00     0.018 A 
ATOM      7  C   UNL d   1      52.618  31.566  52.754  0.00  0.00     0.019 C 
ATOM      8  C   UNL d   1      53.768  31.085  54.050  0.00  0.00     0.002 C 
ATOM      9  C   UNL d   1      53.786  32.539  54.267  0.00  0.00     0.018 A 
ATOM     10  C   UNL d   1      53.410  33.193  53.910  0.00  0.00     0.064 A 
ATOM     11  C   UNL d   1      54.309  32.660  54.903  0.00  0.00     0.002 A 
ATOM     12  C   UNL d   1      53.561  33.960  54.192  0.00  0.00     0.018 A 
ATOM     13  C   UNL d   1      54.079  34.075  54.821  0.00  0.00     0.002 A 
ATOM     14  C   UNL d   1      54.452  33.429  55.174  0.00  0.00     0.000 A 
ENDBRANCH   3   4
ENDBRANCH   1   3
BRANCH   1  15
ATOM     15  C   UNL d   1      51.378  34.294  52.924  0.00  0.00     0.138 C 
BRANCH  15  16
ATOM     16  N   UNL d   1      50.665  34.420  52.519  0.00  0.00    -0.194 N 
ATOM     17  S   UNL d   1      49.962  34.699  52.846  0.00  0.00     0.274 S 
ATOM     18  C   UNL d   1      49.401  34.737  52.244  0.00  0.00     0.109 A 
ATOM     19  O   UNL d   1      50.362  34.733  53.567  0.00  0.00    -0.200 OA
ATOM     20  O   UNL d   1      49.196  34.960  53.006  0.00  0.00    -0.200 OA
ATOM     21  C   UNL d   1      49.759  34.482  51.547  0.00  0.00     0.069 A 
ATOM     22  C   UNL d   1      48.616  34.968  52.234  0.00  0.00     0.013 A 
ATOM     23  C   UNL d   1      49.333  34.459  50.848  0.00  0.00     0.005 A 
ATOM     24  C   UNL d   1      50.542  34.285  51.717  0.00  0.00     0.275 A 
ATOM     25  C   UNL d   1      48.548  34.691  50.843  0.00  0.00     0.000 A 
ATOM     26  C   UNL d   1      48.190  34.946  51.539  0.00  0.00     0.001 A 
ATOM     27  O   UNL d   1      51.100  34.005  51.181  0.00  0.00    -0.266 OA
ENDBRANCH  15  16
ENDBRANCH   1  15
TORSDOF 4
ENDMDL
MODEL 2
REMARK VINA RESULT:      -9.4      0.295      1.455
REMARK  4 active torsions:
REMARK  status: ('A' for Active; 'I' for Inactive)
REMARK    1  A    between atoms: C_11  and  N_2 
REMARK    2  A    between atoms: N_3  and  C_14 
REMARK    3  A    between atoms: C_16  and  C_11 
REMARK    4  A    between atoms: C_14  and  C_16 
ROOT
ATOM      1  C   UNL d   1      51.526  33.598  53.072  0.00  0.00     0.231 C 
ATOM      2  O   UNL d   1      51.063  33.061  53.496  0.00  0.00    -0.283 OA
ENDROOT
BRANCH   1   3
ATOM      3  C   UNL d   1      52.271  33.373  52.792  0.00  0.00     0.124 C 
BRANCH   3   4
ATOM      4  N   UNL d   1      52.797  32.978  53.295  0.00  0.00    -0.303 N 
ATOM      5  C   UNL d   1      53.264  33.327  53.893  0.00  0.00     0.064 A 
ATOM      6  C   UNL d   1      53.703  32.724  54.253  0.00  0.00     0.018 A 
ATOM      7  C   UNL d   1      53.283  34.130  54.087  0.00  0.00     0.019 C 
ATOM      8  C   UNL d   1      54.238  32.823  54.871  0.00  0.00     0.002 C 
ATOM      9  C   UNL d   1      53.514  32.007  53.885  0.00  0.00     0.018 A 
ATOM     10  C   UNL d   1      52.951  32.164  53.290  0.00  0.00     0.064 A 
ATOM     11  C   UNL d   1      53.776  31.227  54.009  0.00  0.00     0.002 A 
ATOM     12  C   UNL d   1      52.657  31.541  52.826  0.00  0.00     0.018 A 
ATOM     13  C   UNL d   1      52.919  30.771  52.952  0.00  0.00     0.002 A 
ATOM     14  C   UNL d   1      53.476  30.615  53.541  0.00  0.00     0.000 A 
ENDBRANCH   3   4
ENDBRANCH   1   3
BRANCH   1  15
ATOM     15  C   UNL d   1      51.245  34.354  52.929  0.00  0.00     0.138 C 
BRANCH  15  16
ATOM     16  N   UNL d   1      50.543  34.468  52.502  0.00  0.00    -0.194 N 
ATOM     17  S   UNL d   1      49.837  34.771  52.799  0.00  0.00     0.274 S 
ATOM     18  C   UNL d   1      49.290  34.785  52.182  0.00  0.00     0.109 A 
ATOM     19  O   UNL d   1      50.221  34.837  53.526  0.00  0.00    -0.200 OA
ATOM     20  O   UNL d   1      49.071  35.049  52.927  0.00  0.00    -0.200 OA
ATOM     21  C   UNL d   1      49.660  34.491  51.507  0.00  0.00     0.069 A 
ATOM     22  C   UNL d   1      48.508  35.025  52.143  0.00  0.00     0.013 A 
ATOM     23  C   UNL d   1      49.249  34.439  50.801  0.00  0.00     0.005 A 
ATOM     24  C   UNL d   1      50.436  34.295  51.705  0.00  0.00     0.275 A 
ATOM     25  C   UNL d   1      48.468  34.680  50.766  0.00  0.00     0.000 A 
ATOM     26  C   UNL d   1      48.098  34.974  51.441  0.00  0.00     0.001 A 
ATOM     27  O   UNL d   1      51.002  33.981  51.196  0.00  0.00    -0.266 OA
ENDBRANCH  15  16
ENDBRANCH   1  15
TORSDOF 4
ENDMDL
MODEL 3
REMARK VINA RESULT:      -8.2      1.158      4.923
REMARK  4 active torsions:
REMARK  status: ('A' for Active; 'I' for Inactive)
REMARK    1  A    between atoms: C_11  and  N_2 
REMARK    2  A    between atoms: N_3  and  C_14 
REMARK    3  A    between atoms: C_16  and  C_11 
REMARK    4  A    between atoms: C_14  and  C_16 
ROOT
ATOM      1  C   UNL d   1      50.868  34.023  52.853  0.00  0.00     0.231 C 
ATOM      2  O   UNL d   1      50.416  33.491  53.295  0.00  0.00    -0.283 OA
ENDROOT
BRANCH   1   3
ATOM      3  C   UNL d   1      50.571  34.774  52.677  0.00  0.00     0.124 C 
BRANCH   3   4
ATOM      4  N   UNL d   1      49.813  34.852  52.353  0.00  0.00    -0.303 N 
ATOM      5  C   UNL d   1      49.571  34.588  51.598  0.00  0.00     0.064 A 
ATOM      6  C   UNL d   1      48.770  34.782  51.509  0.00  0.00     0.018 A 
ATOM      7  C   UNL d   1      50.046  34.203  51.043  0.00  0.00     0.019 C 
ATOM      8  C   UNL d   1      48.308  34.623  50.847  0.00  0.00     0.002 C 
ATOM      9  C   UNL d   1      48.515  35.163  52.199  0.00  0.00     0.018 A 
ATOM     10  C   UNL d   1      49.163  35.206  52.723  0.00  0.00     0.064 A 
ATOM     11  C   UNL d   1      47.779  35.478  52.425  0.00  0.00     0.002 A 
ATOM     12  C   UNL d   1      49.067  35.564  53.467  0.00  0.00     0.018 A 
ATOM     13  C   UNL d   1      48.338  35.874  53.687  0.00  0.00     0.002 A 
ATOM     14  C   UNL d   1      47.697  35.831  53.168  0.00  0.00     0.000 A 
ENDBRANCH   3   4
ENDBRANCH   1   3
BRANCH   1  15
ATOM     15  C   UNL d   1      51.612  33.805  52.588  0.00  0.00     0.138 C 
BRANCH  15  16
ATOM     16  N   UNL d   1      52.213  33.623  53.130  0.00  0.00    -0.194 N 
ATOM     17  S   UNL d   1      52.582  32.891  53.220  0.00  0.00     0.274 S 
ATOM     18  C   UNL d   1      53.143  32.964  53.820  0.00  0.00     0.109 A 
ATOM     19  O   UNL d   1      52.092  32.618  52.615  0.00  0.00    -0.200 OA
ATOM     20  O   UNL d   1      53.044  32.244  53.439  0.00  0.00    -0.200 OA
ATOM     21  C   UNL d   1      53.119  33.740  54.097  0.00  0.00     0.069 A 
ATOM     22  C   UNL d   1      53.670  32.432  54.150  0.00  0.00     0.013 A 
ATOM     23  C   UNL d   1      53.619  33.978  54.700  0.00  0.00     0.005 A 
ATOM     24  C   UNL d   1      52.544  34.147  53.670  0.00  0.00     0.275 A 
ATOM     25  C   UNL d   1      54.145  33.442  55.027  0.00  0.00     0.000 A 
ATOM     26  C   UNL d   1      54.169  32.668  54.750  0.00  0.00     0.001 A 
ATOM     27  O   UNL d   1      52.336  34.938  53.767  0.00  0.00    -0.266 OA
ENDBRANCH  15  16
ENDBRANCH   1  15
TORSDOF 4
ENDMDL
MODEL 4
REMARK VINA RESULT:      -7.4      2.146      4.759
REMARK  4 active torsions:
REMARK  status: ('A' for Active; 'I' for Inactive)
REMARK    1  A    between atoms: C_11  and  N_2 
REMARK    2  A    between atoms: N_3  and  C_14 
REMARK    3  A    between atoms: C_16  and  C_11 
REMARK    4  A    between atoms: C_14  and  C_16 
ROOT
ATOM      1  C   UNL d   1      52.640  32.234  53.009  0.00  0.00     0.231 C 
ATOM      2  O   UNL d   1      52.010  32.065  53.516  0.00  0.00    -0.283 OA
ENDROOT
BRANCH   1   3
ATOM      3  C   UNL d   1      52.667  32.956  52.607  0.00  0.00     0.124 C 
BRANCH   3   4
ATOM      4  N   UNL d   1      52.256  33.610  52.905  0.00  0.00    -0.303 N 
ATOM      5  C   UNL d   1      51.448  33.782  52.781  0.00  0.00     0.064 A 
ATOM      6  C   UNL d   1      51.277  34.486  53.182  0.00  0.00     0.018 A 
ATOM      7  C   UNL d   1      50.918  33.330  52.337  0.00  0.00     0.019 C 
ATOM      8  C   UNL d   1      50.543  34.858  53.207  0.00  0.00     0.002 C 
ATOM      9  C   UNL d   1      51.968  34.751  53.553  0.00  0.00     0.018 A 
ATOM     10  C   UNL d   1      52.576  34.206  53.382  0.00  0.00     0.064 A 
ATOM     11  C   UNL d   1      52.130  35.415  54.027  0.00  0.00     0.002 A 
ATOM     12  C   UNL d   1      53.340  34.332  53.685  0.00  0.00     0.018 A 
ATOM     13  C   UNL d   1      53.496  34.991  54.153  0.00  0.00     0.002 A 
ATOM     14  C   UNL d   1      52.894  35.530  54.323  0.00  0.00     0.000 A 
ENDBRANCH   3   4
ENDBRANCH   1   3
BRANCH   1  15
ATOM     15  C   UNL d   1      53.239  31.685  52.905  0.00  0.00     0.138 C 
BRANCH  15  16
ATOM     16  N   UNL d   1      53.237  30.975  53.334  0.00  0.00    -0.194 N 
ATOM     17  S   UNL d   1      52.989  30.240  53.057  0.00  0.00     0.274 S 
ATOM     18  C   UNL d   1      53.083  29.695  53.668  0.00  0.00     0.109 A 
ATOM     19  O   UNL d   1      52.823  30.614  52.340  0.00  0.00    -0.200 OA
ATOM     20  O   UNL d   1      52.785  29.448  52.944  0.00  0.00    -0.200 OA
ATOM     21  C   UNL d   1      53.388  30.095  54.320  0.00  0.00     0.069 A 
ATOM     22  C   UNL d   1      52.932  28.892  53.719  0.00  0.00     0.013 A 
ATOM     23  C   UNL d   1      53.541  29.693  55.017  0.00  0.00     0.005 A 
ATOM     24  C   UNL d   1      53.484  30.888  54.114  0.00  0.00     0.275 A 
ATOM     25  C   UNL d   1      53.389  28.889  55.064  0.00  0.00     0.000 A 
ATOM     26  C   UNL d   1      53.084  28.490  54.412  0.00  0.00     0.001 A 
ATOM     27  O   UNL d   1      53.774  31.485  54.601  0.00  0.00    -0.266 OA
ENDBRANCH  15  16
ENDBRANCH   1  15
TORSDOF 4
ENDMDL
