MODEL 1
REMARK VINA RESULT:      -7.9      0.000      0.000
REMARK  4 active torsions:
REMARK  status: ('A' for Active; 'I' for Inactive)
REMARK    1  A    between atoms: C_2  and  C_1 
REMARK       I    between atoms: N_6  and  C_2 
REMARK    2  A    between atoms: C_4  and  C_11 
REMARK    3  A    between atoms: N_8  and  N_6 
REMARK    4  A    between atoms: C_11  and  N_8 
ROOT
ATOM      1  C   UNL d   1     -49.488  11.628  23.365  0.00  0.00     0.300 C 
ATOM      2  O   UNL d   1     -49.998  11.072  23.698  0.00  0.00    -0.264 OA
ATOM      3  N   UNL d   1     -48.708  11.699  23.642  0.00  0.00    -0.105 NA
ENDROOT
BRANCH   3   4
ATOM      4  N   UNL d   1     -48.196  12.255  23.311  0.00  0.00    -0.143 NA
BRANCH   4   5
ATOM      5  C   UNL d   1     -47.422  12.357  23.620  0.00  0.00     0.126 C 
BRANCH   5   6
ATOM      6  C   UNL d   1     -46.905  12.890  23.273  0.00  0.00     0.060 A 
ATOM      7  C   UNL d   1     -46.183  12.630  22.947  0.00  0.00     0.197 A 
ATOM      8  O   UNL d   1     -45.993  11.834  22.977  0.00  0.00    -0.286 OA
ATOM      9  C   UNL d   1     -45.667  13.162  22.600  0.00  0.00     0.042 A 
ATOM     10  C   UNL d   1     -45.856  13.960  22.569  0.00  0.00     0.003 A 
ATOM     11  C   UNL d   1     -46.585  14.233  22.897  0.00  0.00     0.000 A 
ATOM     12  C   UNL d   1     -47.104  13.699  23.246  0.00  0.00     0.005 A 
ENDBRANCH   5   6
ENDBRANCH   4   5
ENDBRANCH   3   4
BRANCH   1  13
ATOM     13  C   UNL d   1     -49.752  12.118  22.755  0.00  0.00     0.098 A 
ATOM     14  C   UNL d   1     -50.291  12.719  22.927  0.00  0.00     0.200 A 
ATOM     15  O   UNL d   1     -50.556  12.822  23.696  0.00  0.00    -0.286 OA
ATOM     16  C   UNL d   1     -50.568  13.220  22.328  0.00  0.00     0.042 A 
ATOM     17  C   UNL d   1     -50.302  13.117  21.556  0.00  0.00     0.003 A 
ATOM     18  C   UNL d   1     -49.757  12.512  21.374  0.00  0.00     0.000 A 
ATOM     19  C   UNL d   1     -49.480  12.012  21.964  0.00  0.00     0.008 A 
ENDBRANCH   1  13
TORSDOF 4
ENDMDL
MODEL 2
REMARK VINA RESULT:      -7.6      1.408      2.043
REMARK  4 active torsions:
REMARK  status: ('A' for Active; 'I' for Inactive)
REMARK    1  A    between atoms: C_2  and  C_1 
REMARK       I    between atoms: N_6  and  C_2 
REMARK    2  A    between atoms: C_4  and  C_11 
REMARK    3  A    between atoms: N_8  and  N_6 
REMARK    4  A    between atoms: C_11  and  N_8 
ROOT
ATOM      1  C   UNL d   1     -49.260  14.876  22.645  0.00  0.00     0.300 C 
ATOM      2  O   UNL d   1     -49.642  15.606  22.690  0.00  0.00    -0.264 OA
ATOM      3  N   UNL d   1     -48.463  14.807  22.866  0.00  0.00    -0.105 NA
ENDROOT
BRANCH   3   4
ATOM      4  N   UNL d   1     -48.079  14.077  22.822  0.00  0.00    -0.143 NA
BRANCH   4   5
ATOM      5  C   UNL d   1     -47.250  14.025  22.948  0.00  0.00     0.126 C 
BRANCH   5   6
ATOM      6  C   UNL d   1     -46.896  13.296  23.073  0.00  0.00     0.060 A 
ATOM      7  C   UNL d   1     -46.173  13.108  22.706  0.00  0.00     0.197 A 
ATOM      8  O   UNL d   1     -45.815  13.658  22.217  0.00  0.00    -0.286 OA
ATOM      9  C   UNL d   1     -45.819  12.379  22.830  0.00  0.00     0.042 A 
ATOM     10  C   UNL d   1     -46.176  11.826  23.320  0.00  0.00     0.003 A 
ATOM     11  C   UNL d   1     -46.910  12.008  23.697  0.00  0.00     0.000 A 
ATOM     12  C   UNL d   1     -47.266  12.740  23.571  0.00  0.00     0.005 A 
ENDBRANCH   5   6
ENDBRANCH   4   5
ENDBRANCH   3   4
BRANCH   1  13
ATOM     13  C   UNL d   1     -49.671  14.211  22.380  0.00  0.00     0.098 A 
ATOM     14  C   UNL d   1     -50.232  13.861  22.875  0.00  0.00     0.200 A 
ATOM     15  O   UNL d   1     -50.372  14.176  23.619  0.00  0.00    -0.286 OA
ATOM     16  C   UNL d   1     -50.654  13.193  22.627  0.00  0.00     0.042 A 
ATOM     17  C   UNL d   1     -50.514  12.876  21.881  0.00  0.00     0.003 A 
ATOM     18  C   UNL d   1     -49.948  13.224  21.374  0.00  0.00     0.000 A 
ATOM     19  C   UNL d   1     -49.527  13.887  21.616  0.00  0.00     0.008 A 
ENDBRANCH   1  13
TORSDOF 4
ENDMDL
MODEL 3
REMARK VINA RESULT:      -7.4      1.573      2.259
REMARK  4 active torsions:
REMARK  status: ('A' for Active; 'I' for Inactive)
REMARK    1  A    between atoms: C_2  and  C_1 
REMARK       I    between atoms: N_6  and  C_2 
REMARK    2  A    between atoms: C_4  and  C_11 
REMARK    3  A    between atoms: N_8  and  N_6 
REMARK    4  A    between atoms: C_11  and  N_8 
ROOT
ATOM      1  C   UNL d   1     -50.334  13.625  21.826  0.00  0.00     0.300 C 
ATOM      2  O   UNL d   1     -51.039  13.592  21.399  0.00  0.00    -0.264 OA
ATOM      3  N   UNL d   1     -49.738  13.062  21.695  0.00  0.00    -0.105 NA
ENDROOT
BRANCH   3   4
ATOM      4  N   UNL d   1     -49.032  13.093  22.122  0.00  0.00    -0.143 NA
BRANCH   4   5
ATOM      5  C   UNL d   1     -48.435  12.516  21.999  0.00  0.00     0.126 C 
BRANCH   5   6
ATOM      6  C   UNL d   1     -47.818  12.439  22.534  0.00  0.00     0.060 A 
ATOM      7  C   UNL d   1     -47.796  11.800  23.067  0.00  0.00     0.197 A 
ATOM      8  O   UNL d   1     -48.398  11.246  23.056  0.00  0.00    -0.286 OA
ATOM      9  C   UNL d   1     -47.179  11.724  23.601  0.00  0.00     0.042 A 
ATOM     10  C   UNL d   1     -46.574  12.279  23.615  0.00  0.00     0.003 A 
ATOM     11  C   UNL d   1     -46.588  12.931  23.077  0.00  0.00     0.000 A 
ATOM     12  C   UNL d   1     -47.208  13.007  22.541  0.00  0.00     0.005 A 
ENDBRANCH   5   6
ENDBRANCH   4   5
ENDBRANCH   3   4
BRANCH   1  13
ATOM     13  C   UNL d   1     -50.219  14.220  22.387  0.00  0.00     0.098 A 
ATOM     14  C   UNL d   1     -50.590  14.157  23.122  0.00  0.00     0.200 A 
ATOM     15  O   UNL d   1     -51.064  13.508  23.285  0.00  0.00    -0.286 OA
ATOM     16  C   UNL d   1     -50.487  14.744  23.698  0.00  0.00     0.042 A 
ATOM     17  C   UNL d   1     -50.012  15.394  23.535  0.00  0.00     0.003 A 
ATOM     18  C   UNL d   1     -49.633  15.466  22.795  0.00  0.00     0.000 A 
ATOM     19  C   UNL d   1     -49.732  14.887  22.220  0.00  0.00     0.008 A 
ENDBRANCH   1  13
TORSDOF 4
ENDMDL
MODEL 4
REMARK VINA RESULT:      -6.1      8.783     10.143
REMARK  4 active torsions:
REMARK  status: ('A' for Active; 'I' for Inactive)
REMARK    1  A    between atoms: C_2  and  C_1 
REMARK       I    between atoms: N_6  and  C_2 
REMARK    2  A    between atoms: C_4  and  C_11 
REMARK    3  A    between atoms: N_8  and  N_6 
REMARK    4  A    between atoms: C_11  and  N_8 
ROOT
ATOM      1  C   UNL d   1     -40.698  15.071  17.361  0.00  0.00     0.300 C 
ATOM      2  O   UNL d   1     -41.191  15.173  16.707  0.00  0.00    -0.264 OA
ATOM      3  N   UNL d   1     -40.942  15.327  18.113  0.00  0.00    -0.105 NA
ENDROOT
BRANCH   3   4
ATOM      4  N   UNL d   1     -40.451  15.226  18.768  0.00  0.00    -0.143 NA
BRANCH   4   5
ATOM      5  C   UNL d   1     -40.733  15.394  19.541  0.00  0.00     0.126 C 
BRANCH   5   6
ATOM      6  C   UNL d   1     -40.219  15.389  20.179  0.00  0.00     0.060 A 
ATOM      7  C   UNL d   1     -40.331  14.858  20.811  0.00  0.00     0.197 A 
ATOM      8  O   UNL d   1     -40.962  14.336  20.790  0.00  0.00    -0.286 OA
ATOM      9  C   UNL d   1     -39.817  14.853  21.448  0.00  0.00     0.042 A 
ATOM     10  C   UNL d   1     -39.184  15.375  21.471  0.00  0.00     0.003 A 
ATOM     11  C   UNL d   1     -39.061  15.917  20.835  0.00  0.00     0.000 A 
ATOM     12  C   UNL d   1     -39.578  15.922  20.194  0.00  0.00     0.005 A 
ENDBRANCH   5   6
ENDBRANCH   4   5
ENDBRANCH   3   4
BRANCH   1  13
ATOM     13  C   UNL d   1     -39.960  14.714  17.270  0.00  0.00     0.098 A 
ATOM     14  C   UNL d   1     -39.349  15.138  16.909  0.00  0.00     0.200 A 
ATOM     15  O   UNL d   1     -39.484  15.903  16.649  0.00  0.00    -0.286 OA
ATOM     16  C   UNL d   1     -38.601  14.796  16.809  0.00  0.00     0.042 A 
ATOM     17  C   UNL d   1     -38.467  14.028  17.070  0.00  0.00     0.003 A 
ATOM     18  C   UNL d   1     -39.078  13.592  17.435  0.00  0.00     0.000 A 
ATOM     19  C   UNL d   1     -39.822  13.926  17.537  0.00  0.00     0.008 A 
ENDBRANCH   1  13
TORSDOF 4
ENDMDL
MODEL 5
REMARK VINA RESULT:      -6.0      7.893      9.470
REMARK  4 active torsions:
REMARK  status: ('A' for Active; 'I' for Inactive)
REMARK    1  A    between atoms: C_2  and  C_1 
REMARK       I    between atoms: N_6  and  C_2 
REMARK    2  A    between atoms: C_4  and  C_11 
REMARK    3  A    between atoms: N_8  and  N_6 
REMARK    4  A    between atoms: C_11  and  N_8 
ROOT
ATOM      1  C   UNL d   1     -41.155  14.225  20.582  0.00  0.00     0.300 C 
ATOM      2  O   UNL d   1     -41.740  13.975  21.108  0.00  0.00    -0.264 OA
ATOM      3  N   UNL d   1     -41.208  14.034  19.775  0.00  0.00    -0.105 NA
ENDROOT
BRANCH   3   4
ATOM      4  N   UNL d   1     -40.624  14.282  19.248  0.00  0.00    -0.143 NA
BRANCH   4   5
ATOM      5  C   UNL d   1     -40.597  13.973  18.468  0.00  0.00     0.126 C 
BRANCH   5   6
ATOM      6  C   UNL d   1     -40.187  14.371  17.879  0.00  0.00     0.060 A 
ATOM      7  C   UNL d   1     -39.560  14.000  17.476  0.00  0.00     0.197 A 
ATOM      8  O   UNL d   1     -39.354  13.232  17.670  0.00  0.00    -0.286 OA
ATOM      9  C   UNL d   1     -39.149  14.397  16.888  0.00  0.00     0.042 A 
ATOM     10  C   UNL d   1     -39.353  15.168  16.691  0.00  0.00     0.003 A 
ATOM     11  C   UNL d   1     -39.988  15.552  17.095  0.00  0.00     0.000 A 
ATOM     12  C   UNL d   1     -40.400  15.153  17.686  0.00  0.00     0.005 A 
ENDBRANCH   5   6
ENDBRANCH   4   5
ENDBRANCH   3   4
BRANCH   1  13
ATOM     13  C   UNL d   1     -40.514  14.666  20.857  0.00  0.00     0.098 A 
ATOM     14  C   UNL d   1     -40.626  15.461  21.050  0.00  0.00     0.200 A 
ATOM     15  O   UNL d   1     -41.368  15.800  20.967  0.00  0.00    -0.286 OA
ATOM     16  C   UNL d   1     -39.995  15.921  21.328  0.00  0.00     0.042 A 
ATOM     17  C   UNL d   1     -39.251  15.581  21.411  0.00  0.00     0.003 A 
ATOM     18  C   UNL d   1     -39.128  14.778  21.218  0.00  0.00     0.000 A 
ATOM     19  C   UNL d   1     -39.751  14.318  20.942  0.00  0.00     0.008 A 
ENDBRANCH   1  13
TORSDOF 4
ENDMDL
MODEL 6
REMARK VINA RESULT:      -5.5      1.081      3.800
REMARK  4 active torsions:
REMARK  status: ('A' for Active; 'I' for Inactive)
REMARK    1  A    between atoms: C_2  and  C_1 
REMARK       I    between atoms: N_6  and  C_2 
REMARK    2  A    between atoms: C_4  and  C_11 
REMARK    3  A    between atoms: N_8  and  N_6 
REMARK    4  A    between atoms: C_11  and  N_8 
ROOT
ATOM      1  C   UNL d   1     -46.390  11.967  23.397  0.00  0.00     0.300 C 
ATOM      2  O   UNL d   1     -45.730  11.572  23.698  0.00  0.00    -0.264 OA
ATOM      3  N   UNL d   1     -47.122  11.578  23.342  0.00  0.00    -0.105 NA
ENDROOT
BRANCH   3   4
ATOM      4  N   UNL d   1     -47.782  11.971  23.041  0.00  0.00    -0.143 NA
BRANCH   4   5
ATOM      5  C   UNL d   1     -48.441  11.537  22.756  0.00  0.00     0.126 C 
BRANCH   5   6
ATOM      6  C   UNL d   1     -49.199  11.840  22.829  0.00  0.00     0.060 A 
ATOM      7  C   UNL d   1     -49.595  12.157  22.168  0.00  0.00     0.197 A 
ATOM      8  O   UNL d   1     -49.220  12.164  21.440  0.00  0.00    -0.286 OA
ATOM      9  C   UNL d   1     -50.353  12.460  22.242  0.00  0.00     0.042 A 
ATOM     10  C   UNL d   1     -50.730  12.455  22.971  0.00  0.00     0.003 A 
ATOM     11  C   UNL d   1     -50.337  12.135  23.646  0.00  0.00     0.000 A 
ATOM     12  C   UNL d   1     -49.576  11.831  23.573  0.00  0.00     0.005 A 
ENDBRANCH   5   6
ENDBRANCH   4   5
ENDBRANCH   3   4
BRANCH   1  13
ATOM     13  C   UNL d   1     -46.323  12.751  23.149  0.00  0.00     0.098 A 
ATOM     14  C   UNL d   1     -45.888  12.922  22.467  0.00  0.00     0.200 A 
ATOM     15  O   UNL d   1     -45.531  12.314  22.049  0.00  0.00    -0.286 OA
ATOM     16  C   UNL d   1     -45.810  13.703  22.202  0.00  0.00     0.042 A 
ATOM     17  C   UNL d   1     -46.168  14.313  22.622  0.00  0.00     0.003 A 
ATOM     18  C   UNL d   1     -46.609  14.149  23.311  0.00  0.00     0.000 A 
ATOM     19  C   UNL d   1     -46.690  13.376  23.579  0.00  0.00     0.008 A 
ENDBRANCH   1  13
TORSDOF 4
ENDMDL
