MODEL 1
REMARK VINA RESULT:      -4.2      0.000      0.000
REMARK  5 active torsions:
REMARK  status: ('A' for Active; 'I' for Inactive)
REMARK    1  A    between atoms: C_2  and  N_1 
REMARK    2  A    between atoms: C_4  and  C_7 
REMARK    3  A    between atoms: N_17  and  C_10 
REMARK    4  A    between atoms: C_20  and  N_17 
REMARK    5  A    between atoms: C_21  and  C_20 
ROOT
ATOM      1  C   UNL d   1     -42.686-123.153 -49.939  0.00  0.00     0.144 A 
ATOM      2  C   UNL d   1     -42.534-123.131 -50.756  0.00  0.00     0.027 A 
ATOM      3  C   UNL d   1     -41.749-123.170 -51.031  0.00  0.00     0.021 A 
ATOM      4  C   UNL d   1     -42.063-123.213 -49.405  0.00  0.00     0.103 A 
ATOM      5  C   UNL d   1     -41.124-123.231 -50.488  0.00  0.00     0.003 A 
ATOM      6  C   UNL d   1     -41.287-123.251 -49.677  0.00  0.00     0.021 A 
ENDROOT
BRANCH   3   7
ATOM      7  C   UNL d   1     -41.594-123.149 -51.839  0.00  0.00     0.103 A 
ATOM      8  N   UNL d   1     -41.752-123.811 -52.309  0.00  0.00    -0.145 NA
ATOM      9  N   UNL d   1     -41.598-123.790 -53.117  0.00  0.00    -0.106 NA
ATOM     10  C   UNL d   1     -41.285-123.108 -53.460  0.00  0.00     0.297 A 
ATOM     11  C   UNL d   1     -41.127-122.445 -52.991  0.00  0.00     0.066 A 
ATOM     12  O   UNL d   1     -41.130-123.086 -54.268  0.00  0.00    -0.264 OA
ATOM     13  C   UNL d   1     -41.282-122.463 -52.175  0.00  0.00     0.024 A 
ATOM     14  C   UNL d   1     -41.124-121.802 -51.711  0.00  0.00     0.002 C 
ENDBRANCH   3   7
BRANCH   1  15
ATOM     15  N   UNL d   1     -43.470-123.114 -49.672  0.00  0.00    -0.112 N 
ATOM     16  O   UNL d   1     -43.882-123.817 -49.518  0.00  0.00    -0.532 OA
ATOM     17  O   UNL d   1     -43.840-122.386 -49.560  0.00  0.00    -0.532 OA
ENDBRANCH   1  15
BRANCH   4  18
ATOM     18  N   UNL d   1     -42.218-123.234 -48.596  0.00  0.00    -0.239 NA
BRANCH  18  19
ATOM     19  C   UNL d   1     -41.622-123.455 -48.066  0.00  0.00     0.144 C 
BRANCH  19  20
ATOM     20  C   UNL d   1     -41.673-123.251 -47.270  0.00  0.00     0.255 C 
ATOM     21  O   UNL d   1     -41.467-123.790 -46.683  0.00  0.00    -0.281 OA
ENDBRANCH  19  20
ENDBRANCH  18  19
ENDBRANCH   4  18
TORSDOF 5
ENDMDL
MODEL 2
REMARK VINA RESULT:      -3.9      1.284      4.274
REMARK  5 active torsions:
REMARK  status: ('A' for Active; 'I' for Inactive)
REMARK    1  A    between atoms: C_2  and  N_1 
REMARK    2  A    between atoms: C_4  and  C_7 
REMARK    3  A    between atoms: N_17  and  C_10 
REMARK    4  A    between atoms: C_20  and  N_17 
REMARK    5  A    between atoms: C_21  and  C_20 
ROOT
ATOM      1  C   UNL d   1     -41.625-122.333 -51.289  0.00  0.00     0.144 A 
ATOM      2  C   UNL d   1     -41.779-122.450 -50.481  0.00  0.00     0.027 A 
ATOM      3  C   UNL d   1     -41.641-123.195 -50.137  0.00  0.00     0.021 A 
ATOM      4  C   UNL d   1     -41.337-122.952 -51.748  0.00  0.00     0.103 A 
ATOM      5  C   UNL d   1     -41.350-123.817 -50.604  0.00  0.00     0.003 A 
ATOM      6  C   UNL d   1     -41.200-123.690 -51.407  0.00  0.00     0.021 A 
ENDROOT
BRANCH   3   7
ATOM      7  C   UNL d   1     -41.793-123.314 -49.337  0.00  0.00     0.103 A 
ATOM      8  N   UNL d   1     -41.204-123.163 -48.777  0.00  0.00    -0.145 NA
ATOM      9  N   UNL d   1     -41.355-123.282 -47.976  0.00  0.00    -0.106 NA
ATOM     10  C   UNL d   1     -42.095-123.553 -47.732  0.00  0.00     0.297 A 
ATOM     11  C   UNL d   1     -42.685-123.705 -48.292  0.00  0.00     0.066 A 
ATOM     12  O   UNL d   1     -42.248-123.672 -46.932  0.00  0.00    -0.264 OA
ATOM     13  C   UNL d   1     -42.535-123.585 -49.100  0.00  0.00     0.024 A 
ATOM     14  C   UNL d   1     -43.124-123.737 -49.656  0.00  0.00     0.002 C 
ENDBRANCH   3   7
BRANCH   1  15
ATOM     15  N   UNL d   1     -41.764-121.588 -51.625  0.00  0.00    -0.112 N 
ATOM     16  O   UNL d   1     -42.546-121.324 -51.716  0.00  0.00    -0.532 OA
ATOM     17  O   UNL d   1     -41.137-121.112 -51.866  0.00  0.00    -0.532 OA
ENDBRANCH   1  15
BRANCH   4  18
ATOM     18  N   UNL d   1     -41.185-122.833 -52.549  0.00  0.00    -0.239 NA
BRANCH  18  19
ATOM     19  C   UNL d   1     -41.267-123.459 -53.083  0.00  0.00     0.144 C 
BRANCH  19  20
ATOM     20  C   UNL d   1     -41.124-123.345 -53.887  0.00  0.00     0.255 C 
ATOM     21  O   UNL d   1     -41.494-123.817 -54.451  0.00  0.00    -0.281 OA
ENDBRANCH  19  20
ENDBRANCH  18  19
ENDBRANCH   4  18
TORSDOF 5
ENDMDL
MODEL 3
REMARK VINA RESULT:      -2.3      1.153      1.507
REMARK  5 active torsions:
REMARK  status: ('A' for Active; 'I' for Inactive)
REMARK    1  A    between atoms: C_2  and  N_1 
REMARK    2  A    between atoms: C_4  and  C_7 
REMARK    3  A    between atoms: N_17  and  C_10 
REMARK    4  A    between atoms: C_20  and  N_17 
REMARK    5  A    between atoms: C_21  and  C_20 
ROOT
ATOM      1  C   UNL d   1     -42.551-122.678 -50.895  0.00  0.00     0.144 A 
ATOM      2  C   UNL d   1     -42.561-122.566 -51.718  0.00  0.00     0.027 A 
ATOM      3  C   UNL d   1     -41.843-122.495 -52.136  0.00  0.00     0.021 A 
ATOM      4  C   UNL d   1     -41.834-122.719 -50.493  0.00  0.00     0.103 A 
ATOM      5  C   UNL d   1     -41.123-122.537 -51.726  0.00  0.00     0.003 A 
ATOM      6  C   UNL d   1     -41.124-122.650 -50.906  0.00  0.00     0.021 A 
ENDROOT
BRANCH   3   7
ATOM      7  C   UNL d   1     -41.850-122.384 -52.951  0.00  0.00     0.103 A 
ATOM      8  N   UNL d   1     -42.170-121.692 -53.272  0.00  0.00    -0.145 NA
ATOM      9  N   UNL d   1     -42.177-121.580 -54.088  0.00  0.00    -0.106 NA
ATOM     10  C   UNL d   1     -41.864-122.159 -54.586  0.00  0.00     0.297 A 
ATOM     11  C   UNL d   1     -41.543-122.851 -54.266  0.00  0.00     0.066 A 
ATOM     12  O   UNL d   1     -41.870-122.048 -55.402  0.00  0.00    -0.264 OA
ATOM     13  C   UNL d   1     -41.535-122.966 -53.443  0.00  0.00     0.024 A 
ATOM     14  C   UNL d   1     -41.216-123.656 -53.126  0.00  0.00     0.002 C 
ENDBRANCH   3   7
BRANCH   1  15
ATOM     15  N   UNL d   1     -43.269-122.747 -50.487  0.00  0.00    -0.112 N 
ATOM     16  O   UNL d   1     -43.554-123.502 -50.293  0.00  0.00    -0.532 OA
ATOM     17  O   UNL d   1     -43.698-122.076 -50.275  0.00  0.00    -0.532 OA
ENDBRANCH   1  15
BRANCH   4  18
ATOM     18  N   UNL d   1     -41.828-122.831 -49.677  0.00  0.00    -0.239 NA
BRANCH  18  19
ATOM     19  C   UNL d   1     -41.171-123.177 -49.312  0.00  0.00     0.144 C 
BRANCH  19  20
ATOM     20  C   UNL d   1     -41.198-123.389 -48.516  0.00  0.00     0.255 C 
ATOM     21  O   UNL d   1     -41.544-122.890 -47.960  0.00  0.00    -0.281 OA
ENDBRANCH  19  20
ENDBRANCH  18  19
ENDBRANCH   4  18
TORSDOF 5
ENDMDL
