MODEL 1
REMARK VINA RESULT:      12.9      0.000      0.000
REMARK  2 active torsions:
REMARK  status: ('A' for Active; 'I' for Inactive)
REMARK    1  A    between atoms: C_2  and  CA_1 
REMARK    2  A    between atoms: C_3  and  CA_1 
ROOT
ATOM      1  C   UNL d   1      57.585  49.668  50.204  0.00  0.00     0.025 A 
ATOM      2  C   UNL d   1      56.815  49.621  50.512  0.00  0.00     0.002 A 
ATOM      3  C   UNL d   1      57.699  49.703  49.388  0.00  0.00     0.002 A 
ATOM      4  C   UNL d   1      56.701  49.586  51.329  0.00  0.00     0.000 C 
ATOM      5  C   UNL d   1      56.167  49.609  50.004  0.00  0.00     0.000 A 
ATOM      6  C   UNL d   1      57.043  49.691  48.880  0.00  0.00     0.000 A 
ATOM      7  C   UNL d   1      56.281  49.644  49.188  0.00  0.00     0.000 A 
ENDROOT
BRANCH   1   8
ATOM      8  CA  UNL d   1      58.233  49.680  50.717  0.00  0.00     0.167 C 
ATOM      9  N   UNL d   1      58.117  49.694  51.530  0.00  0.00    -0.142 N 
BRANCH   8  10
ATOM     10  C   UNL d   1      58.998  49.678  50.408  0.00  0.00     0.231 C 
ATOM     11  O   UNL d   1      59.124  49.681  49.595  0.00  0.00    -0.643 OA
ATOM     12  OXT UNL d   1      59.650  49.673  50.919  0.00  0.00    -0.643 OA
ENDBRANCH   8  10
ENDBRANCH   1   8
TORSDOF 2
ENDMDL
MODEL 2
REMARK VINA RESULT:      14.6      1.760      3.411
REMARK  2 active torsions:
REMARK  status: ('A' for Active; 'I' for Inactive)
REMARK    1  A    between atoms: C_2  and  CA_1 
REMARK    2  A    between atoms: C_3  and  CA_1 
ROOT
ATOM      1  C   UNL d   1      59.793  49.697  51.027  0.00  0.00     0.025 A 
ATOM      2  C   UNL d   1      60.581  49.704  50.765  0.00  0.00     0.002 A 
ATOM      3  C   UNL d   1      59.631  49.693  51.836  0.00  0.00     0.002 A 
ATOM      4  C   UNL d   1      60.744  49.707  49.956  0.00  0.00     0.000 C 
ATOM      5  C   UNL d   1      61.198  49.708  51.310  0.00  0.00     0.000 A 
ATOM      6  C   UNL d   1      60.256  49.698  52.382  0.00  0.00     0.000 A 
ATOM      7  C   UNL d   1      61.036  49.705  52.119  0.00  0.00     0.000 A 
ENDROOT
BRANCH   1   8
ATOM      8  CA  UNL d   1      59.176  49.693  50.478  0.00  0.00     0.167 C 
ATOM      9  N   UNL d   1      59.339  49.685  49.672  0.00  0.00    -0.142 N 
BRANCH   8  10
ATOM     10  C   UNL d   1      58.395  49.696  50.741  0.00  0.00     0.231 C 
ATOM     11  O   UNL d   1      57.770  49.707  50.205  0.00  0.00    -0.643 OA
ATOM     12  OXT UNL d   1      58.232  49.689  51.553  0.00  0.00    -0.643 OA
ENDBRANCH   8  10
ENDBRANCH   1   8
TORSDOF 2
ENDMDL
