MODEL 1
REMARK VINA RESULT:      56.6      0.000      0.000
REMARK  5 active torsions:
REMARK  status: ('A' for Active; 'I' for Inactive)
REMARK    1  A    between atoms: C_6  and  C_1 
REMARK       I    between atoms: C_7  and  N_8 
REMARK    2  A    between atoms: C_16  and  C_7 
REMARK    3  A    between atoms: N_8  and  C_14 
REMARK    4  A    between atoms: O_15  and  C_16 
REMARK    5  A    between atoms: C_21  and  O_15 
ROOT
ATOM      1  C   UNL d   1      13.886  14.318  -3.661  0.00  0.00     0.024 A 
ATOM      2  C   UNL d   1      14.093  15.103  -3.526  0.00  0.00     0.004 A 
ATOM      3  C   UNL d   1      13.587  14.056  -4.361  0.00  0.00     0.004 A 
ATOM      4  C   UNL d   1      13.677  15.402  -4.878  0.00  0.00     0.085 A 
ATOM      5  C   UNL d   1      13.473  14.600  -4.997  0.00  0.00     0.019 A 
ATOM      6  C   UNL d   1      13.979  15.647  -4.162  0.00  0.00     0.019 A 
ENDROOT
BRANCH   4   7
ATOM      7  N   UNL d   1      13.558  15.969  -5.541  0.00  0.00    -0.206 NA
ATOM      8  C   UNL d   1      14.049  16.660  -5.561  0.00  0.00     0.304 C 
ATOM      9  O   UNL d   1      14.620  16.823  -5.001  0.00  0.00    -0.263 OA
BRANCH   8  10
ATOM     10  C   UNL d   1      13.936  17.199  -6.192  0.00  0.00     0.185 C 
BRANCH  10  11
ATOM     11  O   UNL d   1      13.322  17.740  -6.149  0.00  0.00    -0.300 OA
BRANCH  11  12
ATOM     12  C   UNL d   1      13.495  18.561  -6.204  0.00  0.00     0.100 A 
ATOM     13  C   UNL d   1      12.895  19.111  -6.335  0.00  0.00     0.025 A 
ATOM     14  C   UNL d   1      13.063  19.904  -6.388  0.00  0.00     0.002 A 
ATOM     15  C   UNL d   1      13.834  20.168  -6.311  0.00  0.00     0.000 A 
ATOM     16  C   UNL d   1      14.443  19.628  -6.180  0.00  0.00     0.002 A 
ATOM     17  C   UNL d   1      14.276  18.834  -6.127  0.00  0.00     0.025 A 
ENDBRANCH  11  12
ENDBRANCH  10  11
ENDBRANCH   8  10
ENDBRANCH   4   7
BRANCH   1  18
ATOM     18  C   UNL d   1      13.999  13.780  -3.031  0.00  0.00     0.111 A 
ATOM     19  N   UNL d   1      13.710  13.028  -3.004  0.00  0.00    -0.239 NA
ATOM     20  C   UNL d   1      13.941  12.691  -2.305  0.00  0.00     0.088 A 
ATOM     21  C   UNL d   1      13.822  11.953  -1.964  0.00  0.00     0.020 A 
ATOM     22  C   UNL d   1      14.393  13.272  -1.890  0.00  0.00     0.049 A 
ATOM     23  C   UNL d   1      14.132  11.780  -1.239  0.00  0.00     0.002 A 
ATOM     24  C   UNL d   1      14.584  12.361  -0.824  0.00  0.00     0.001 A 
ATOM     25  C   UNL d   1      14.715  13.101  -1.143  0.00  0.00     0.008 A 
ATOM     26  C   UNL d   1      14.906  12.190  -0.077  0.00  0.00     0.000 C 
ATOM     27  S   UNL d   1      14.424  13.945  -2.348  0.00  0.00    -0.066 SA
ENDBRANCH   1  18
TORSDOF 5
ENDMDL
MODEL 2
REMARK VINA RESULT:      58.1      1.413      1.861
REMARK  5 active torsions:
REMARK  status: ('A' for Active; 'I' for Inactive)
REMARK    1  A    between atoms: C_6  and  C_1 
REMARK       I    between atoms: C_7  and  N_8 
REMARK    2  A    between atoms: C_16  and  C_7 
REMARK    3  A    between atoms: N_8  and  C_14 
REMARK    4  A    between atoms: O_15  and  C_16 
REMARK    5  A    between atoms: C_21  and  O_15 
ROOT
ATOM      1  C   UNL d   1      14.820  15.640  -2.347  0.00  0.00     0.024 A 
ATOM      2  C   UNL d   1      14.386  15.603  -3.045  0.00  0.00     0.004 A 
ATOM      3  C   UNL d   1      15.234  16.293  -2.121  0.00  0.00     0.004 A 
ATOM      4  C   UNL d   1      14.796  16.961  -3.325  0.00  0.00     0.085 A 
ATOM      5  C   UNL d   1      15.232  16.981  -2.611  0.00  0.00     0.019 A 
ATOM      6  C   UNL d   1      14.385  16.290  -3.535  0.00  0.00     0.019 A 
ENDROOT
BRANCH   4   7
ATOM      7  N   UNL d   1      14.795  17.677  -3.836  0.00  0.00    -0.206 NA
ATOM      8  C   UNL d   1      15.217  17.639  -4.570  0.00  0.00     0.304 C 
ATOM      9  O   UNL d   1      15.621  16.976  -4.822  0.00  0.00    -0.263 OA
BRANCH   8  10
ATOM     10  C   UNL d   1      15.216  18.320  -5.056  0.00  0.00     0.185 C 
BRANCH  10  11
ATOM     11  O   UNL d   1      14.702  18.355  -5.693  0.00  0.00    -0.300 OA
BRANCH  11  12
ATOM     12  C   UNL d   1      14.384  19.099  -5.922  0.00  0.00     0.100 A 
ATOM     13  C   UNL d   1      13.598  19.166  -6.162  0.00  0.00     0.025 A 
ATOM     14  C   UNL d   1      13.291  19.885  -6.384  0.00  0.00     0.002 A 
ATOM     15  C   UNL d   1      13.761  20.555  -6.372  0.00  0.00     0.000 A 
ATOM     16  C   UNL d   1      14.549  20.500  -6.134  0.00  0.00     0.002 A 
ATOM     17  C   UNL d   1      14.857  19.781  -5.912  0.00  0.00     0.025 A 
ENDBRANCH  11  12
ENDBRANCH  10  11
ENDBRANCH   8  10
ENDBRANCH   4   7
BRANCH   1  18
ATOM     18  C   UNL d   1      14.822  14.960  -1.862  0.00  0.00     0.111 A 
ATOM     19  N   UNL d   1      15.139  14.916  -1.122  0.00  0.00    -0.239 NA
ATOM     20  C   UNL d   1      15.028  14.166  -0.840  0.00  0.00     0.088 A 
ATOM     21  C   UNL d   1      15.223  13.788  -0.137  0.00  0.00     0.020 A 
ATOM     22  C   UNL d   1      14.621  13.735  -1.443  0.00  0.00     0.049 A 
ATOM     23  C   UNL d   1      15.030  13.014  -0.018  0.00  0.00     0.002 A 
ATOM     24  C   UNL d   1      14.624  12.583  -0.621  0.00  0.00     0.001 A 
ATOM     25  C   UNL d   1      14.419  12.937  -1.328  0.00  0.00     0.008 A 
ATOM     26  C   UNL d   1      14.422  11.785  -0.506  0.00  0.00     0.000 C 
ATOM     27  S   UNL d   1      14.498  14.236  -2.073  0.00  0.00    -0.066 SA
ENDBRANCH   1  18
TORSDOF 5
ENDMDL
