MODEL 1
REMARK VINA RESULT:      61.0      0.000      0.000
REMARK  5 active torsions:
REMARK  status: ('A' for Active; 'I' for Inactive)
REMARK       I    between atoms: C_8  and  N_1 
REMARK    1  A    between atoms: C_7  and  C_3 
REMARK    2  A    between atoms: S_4  and  N_9 
REMARK    3  A    between atoms: C_21  and  S_4 
REMARK    4  A    between atoms: C_11  and  C_5 
REMARK    5  A    between atoms: N_9  and  C_20 
ROOT
ATOM      1  N   UNL d   1      13.676  13.035  -3.000  0.00  0.00    -0.194 N 
ATOM      2  N   UNL d   1      13.943  13.604  -2.439  0.00  0.00    -0.163 NA
ATOM      3  C   UNL d   1      13.722  13.359  -3.735  0.00  0.00     0.093 A 
ATOM      4  C   UNL d   1      14.152  14.280  -2.855  0.00  0.00     0.103 A 
ATOM      5  C   UNL d   1      14.019  14.142  -3.666  0.00  0.00     0.041 A 
ATOM      6  C   UNL d   1      13.413  12.279  -2.825  0.00  0.00     0.281 C 
ATOM      7  O   UNL d   1      13.166  11.779  -3.429  0.00  0.00    -0.265 OA
ATOM      8  C   UNL d   1      13.394  12.018  -2.041  0.00  0.00     0.068 C 
ENDROOT
BRANCH   4   9
ATOM      9  C   UNL d   1      14.445  14.989  -2.561  0.00  0.00     0.019 A 
ATOM     10  C   UNL d   1      14.791  15.007  -1.808  0.00  0.00     0.003 A 
ATOM     11  C   UNL d   1      15.082  15.712  -1.516  0.00  0.00     0.020 A 
ATOM     12  C   UNL d   1      15.034  16.403  -1.963  0.00  0.00     0.094 A 
ATOM     13  C   UNL d   1      14.690  16.384  -2.711  0.00  0.00     0.020 A 
ATOM     14  C   UNL d   1      14.393  15.674  -3.014  0.00  0.00     0.003 A 
BRANCH  12  15
ATOM     15  N   UNL d   1      15.328  17.125  -1.673  0.00  0.00    -0.158 NA
BRANCH  15  16
ATOM     16  S   UNL d   1      15.509  17.198  -0.881  0.00  0.00     0.286 S 
ATOM     17  O   UNL d   1      15.684  17.290  -0.064  0.00  0.00    -0.198 OA
ATOM     18  O   UNL d   1      15.982  16.519  -0.920  0.00  0.00    -0.198 OA
BRANCH  16  19
ATOM     19  C   UNL d   1      15.032  17.884  -0.838  0.00  0.00     0.117 C 
ATOM     20  C   UNL d   1      15.281  18.538  -0.413  0.00  0.00     0.014 C 
ENDBRANCH  16  19
ENDBRANCH  15  16
ENDBRANCH  12  15
ENDBRANCH   4   9
BRANCH   3  21
ATOM     21  C   UNL d   1      13.513  12.986  -4.433  0.00  0.00     0.047 A 
ATOM     22  S   UNL d   1      12.770  12.670  -4.616  0.00  0.00    -0.085 SA
ATOM     23  C   UNL d   1      12.806  12.348  -5.374  0.00  0.00     0.035 A 
ATOM     24  C   UNL d   1      13.569  12.462  -5.664  0.00  0.00     0.007 A 
ATOM     25  C   UNL d   1      14.007  12.855  -5.085  0.00  0.00     0.009 A 
ENDBRANCH   3  21
TORSDOF 5
ENDMDL
MODEL 2
REMARK VINA RESULT:      61.5      2.463      3.316
REMARK  5 active torsions:
REMARK  status: ('A' for Active; 'I' for Inactive)
REMARK       I    between atoms: C_8  and  N_1 
REMARK    1  A    between atoms: C_7  and  C_3 
REMARK    2  A    between atoms: S_4  and  N_9 
REMARK    3  A    between atoms: C_21  and  S_4 
REMARK    4  A    between atoms: C_11  and  C_5 
REMARK    5  A    between atoms: N_9  and  C_20 
ROOT
ATOM      1  N   UNL d   1      14.921  14.312  -1.202  0.00  0.00    -0.194 N 
ATOM      2  N   UNL d   1      15.010  15.031  -1.634  0.00  0.00    -0.163 NA
ATOM      3  C   UNL d   1      14.547  13.776  -1.670  0.00  0.00     0.093 A 
ATOM      4  C   UNL d   1      14.679  14.914  -2.375  0.00  0.00     0.103 A 
ATOM      5  C   UNL d   1      14.386  14.134  -2.413  0.00  0.00     0.041 A 
ATOM      6  C   UNL d   1      15.174  14.183  -0.433  0.00  0.00     0.281 C 
ATOM      7  O   UNL d   1      15.052  13.453  -0.077  0.00  0.00    -0.265 OA
ATOM      8  C   UNL d   1      15.553  14.786  -0.014  0.00  0.00     0.068 C 
ENDROOT
BRANCH   4   9
ATOM      9  C   UNL d   1      14.626  15.446  -2.999  0.00  0.00     0.019 A 
ATOM     10  C   UNL d   1      14.961  16.200  -2.921  0.00  0.00     0.003 A 
ATOM     11  C   UNL d   1      14.908  16.729  -3.542  0.00  0.00     0.020 A 
ATOM     12  C   UNL d   1      14.527  16.518  -4.241  0.00  0.00     0.094 A 
ATOM     13  C   UNL d   1      14.195  15.768  -4.317  0.00  0.00     0.020 A 
ATOM     14  C   UNL d   1      14.243  15.227  -3.694  0.00  0.00     0.003 A 
BRANCH  12  15
ATOM     15  N   UNL d   1      14.469  17.051  -4.878  0.00  0.00    -0.158 NA
BRANCH  15  16
ATOM     16  S   UNL d   1      15.033  17.632  -4.970  0.00  0.00     0.286 S 
ATOM     17  O   UNL d   1      15.601  18.244  -5.071  0.00  0.00    -0.198 OA
ATOM     18  O   UNL d   1      15.624  17.106  -4.721  0.00  0.00    -0.198 OA
BRANCH  16  19
ATOM     19  C   UNL d   1      14.440  18.165  -5.221  0.00  0.00     0.117 C 
ATOM     20  C   UNL d   1      14.630  18.937  -5.420  0.00  0.00     0.014 C 
ENDBRANCH  16  19
ENDBRANCH  15  16
ENDBRANCH  12  15
ENDBRANCH   4   9
BRANCH   3  21
ATOM     21  C   UNL d   1      14.356  13.009  -1.457  0.00  0.00     0.047 A 
ATOM     22  S   UNL d   1      13.858  12.495  -1.874  0.00  0.00    -0.085 SA
ATOM     23  C   UNL d   1      13.822  11.782  -1.462  0.00  0.00     0.035 A 
ATOM     24  C   UNL d   1      14.295  11.850  -0.792  0.00  0.00     0.007 A 
ATOM     25  C   UNL d   1      14.625  12.606  -0.787  0.00  0.00     0.009 A 
ENDBRANCH   3  21
TORSDOF 5
ENDMDL
MODEL 3
REMARK VINA RESULT:      62.0      2.510      4.064
REMARK  5 active torsions:
REMARK  status: ('A' for Active; 'I' for Inactive)
REMARK       I    between atoms: C_8  and  N_1 
REMARK    1  A    between atoms: C_7  and  C_3 
REMARK    2  A    between atoms: S_4  and  N_9 
REMARK    3  A    between atoms: C_21  and  S_4 
REMARK    4  A    between atoms: C_11  and  C_5 
REMARK    5  A    between atoms: N_9  and  C_20 
ROOT
ATOM      1  N   UNL d   1      14.623  14.208  -1.340  0.00  0.00    -0.194 N 
ATOM      2  N   UNL d   1      14.484  14.712  -2.001  0.00  0.00    -0.163 NA
ATOM      3  C   UNL d   1      14.417  13.457  -1.542  0.00  0.00     0.093 A 
ATOM      4  C   UNL d   1      14.188  14.246  -2.607  0.00  0.00     0.103 A 
ATOM      5  C   UNL d   1      14.141  13.459  -2.335  0.00  0.00     0.041 A 
ATOM      6  C   UNL d   1      14.919  14.444  -0.613  0.00  0.00     0.281 C 
ATOM      7  O   UNL d   1      15.028  13.892  -0.014  0.00  0.00    -0.265 OA
ATOM      8  C   UNL d   1      15.109  15.237  -0.481  0.00  0.00     0.068 C 
ENDROOT
BRANCH   4   9
ATOM      9  C   UNL d   1      13.966  14.475  -3.364  0.00  0.00     0.019 A 
ATOM     10  C   UNL d   1      13.245  14.210  -3.675  0.00  0.00     0.003 A 
ATOM     11  C   UNL d   1      13.024  14.438  -4.428  0.00  0.00     0.020 A 
ATOM     12  C   UNL d   1      13.511  14.927  -4.878  0.00  0.00     0.094 A 
ATOM     13  C   UNL d   1      14.227  15.190  -4.567  0.00  0.00     0.020 A 
ATOM     14  C   UNL d   1      14.459  14.964  -3.806  0.00  0.00     0.003 A 
BRANCH  12  15
ATOM     15  N   UNL d   1      13.294  15.165  -5.645  0.00  0.00    -0.158 NA
BRANCH  15  16
ATOM     16  S   UNL d   1      13.708  15.762  -6.014  0.00  0.00     0.286 S 
ATOM     17  O   UNL d   1      14.123  16.392  -6.387  0.00  0.00    -0.198 OA
ATOM     18  O   UNL d   1      14.214  15.205  -6.362  0.00  0.00    -0.198 OA
BRANCH  16  19
ATOM     19  C   UNL d   1      13.200  16.327  -5.666  0.00  0.00     0.117 C 
ATOM     20  C   UNL d   1      13.274  17.123  -5.847  0.00  0.00     0.014 C 
ENDBRANCH  16  19
ENDBRANCH  15  16
ENDBRANCH  12  15
ENDBRANCH   4   9
BRANCH   3  21
ATOM     21  C   UNL d   1      14.468  12.801  -1.054  0.00  0.00     0.047 A 
ATOM     22  S   UNL d   1      15.163  12.409  -0.834  0.00  0.00    -0.085 SA
ATOM     23  C   UNL d   1      14.959  11.782  -0.340  0.00  0.00     0.035 A 
ATOM     24  C   UNL d   1      14.140  11.782  -0.252  0.00  0.00     0.007 A 
ATOM     25  C   UNL d   1      13.835  12.410  -0.692  0.00  0.00     0.009 A 
ENDBRANCH   3  21
TORSDOF 5
ENDMDL
MODEL 4
REMARK VINA RESULT:      62.5      3.064      3.656
REMARK  5 active torsions:
REMARK  status: ('A' for Active; 'I' for Inactive)
REMARK       I    between atoms: C_8  and  N_1 
REMARK    1  A    between atoms: C_7  and  C_3 
REMARK    2  A    between atoms: S_4  and  N_9 
REMARK    3  A    between atoms: C_21  and  S_4 
REMARK    4  A    between atoms: C_11  and  C_5 
REMARK    5  A    between atoms: N_9  and  C_20 
ROOT
ATOM      1  N   UNL d   1      13.417  13.171  -5.173  0.00  0.00    -0.194 N 
ATOM      2  N   UNL d   1      13.416  13.853  -5.668  0.00  0.00    -0.163 NA
ATOM      3  C   UNL d   1      13.374  13.410  -4.406  0.00  0.00     0.093 A 
ATOM      4  C   UNL d   1      13.372  14.511  -5.180  0.00  0.00     0.103 A 
ATOM      5  C   UNL d   1      13.345  14.250  -4.388  0.00  0.00     0.041 A 
ATOM      6  C   UNL d   1      13.456  12.394  -5.430  0.00  0.00     0.281 C 
ATOM      7  O   UNL d   1      13.452  11.779  -4.886  0.00  0.00    -0.265 OA
ATOM      8  C   UNL d   1      13.498  12.227  -6.239  0.00  0.00     0.068 C 
ENDROOT
BRANCH   4   9
ATOM      9  C   UNL d   1      13.354  15.304  -5.394  0.00  0.00     0.019 A 
ATOM     10  C   UNL d   1      12.787  15.804  -5.056  0.00  0.00     0.003 A 
ATOM     11  C   UNL d   1      12.769  16.593  -5.269  0.00  0.00     0.020 A 
ATOM     12  C   UNL d   1      13.309  16.892  -5.814  0.00  0.00     0.094 A 
ATOM     13  C   UNL d   1      13.873  16.393  -6.149  0.00  0.00     0.020 A 
ATOM     14  C   UNL d   1      13.897  15.594  -5.940  0.00  0.00     0.003 A 
BRANCH  12  15
ATOM     15  N   UNL d   1      13.299  17.694  -6.037  0.00  0.00    -0.158 NA
BRANCH  15  16
ATOM     16  S   UNL d   1      13.901  18.188  -5.793  0.00  0.00     0.286 S 
ATOM     17  O   UNL d   1      14.516  18.710  -5.555  0.00  0.00    -0.198 OA
ATOM     18  O   UNL d   1      14.125  17.639  -5.213  0.00  0.00    -0.198 OA
BRANCH  16  19
ATOM     19  C   UNL d   1      13.678  18.743  -6.376  0.00  0.00     0.117 C 
ATOM     20  C   UNL d   1      13.850  19.539  -6.282  0.00  0.00     0.014 C 
ENDBRANCH  16  19
ENDBRANCH  15  16
ENDBRANCH  12  15
ENDBRANCH   4   9
BRANCH   3  21
ATOM     21  C   UNL d   1      13.362  12.917  -3.753  0.00  0.00     0.047 A 
ATOM     22  S   UNL d   1      12.880  12.252  -3.652  0.00  0.00    -0.085 SA
ATOM     23  C   UNL d   1      13.049  11.920  -2.917  0.00  0.00     0.035 A 
ATOM     24  C   UNL d   1      13.634  12.376  -2.559  0.00  0.00     0.007 A 
ATOM     25  C   UNL d   1      13.828  12.992  -3.074  0.00  0.00     0.009 A 
ENDBRANCH   3  21
TORSDOF 5
ENDMDL
MODEL 5
REMARK VINA RESULT:      64.0      2.849      5.376
REMARK  5 active torsions:
REMARK  status: ('A' for Active; 'I' for Inactive)
REMARK       I    between atoms: C_8  and  N_1 
REMARK    1  A    between atoms: C_7  and  C_3 
REMARK    2  A    between atoms: S_4  and  N_9 
REMARK    3  A    between atoms: C_21  and  S_4 
REMARK    4  A    between atoms: C_11  and  C_5 
REMARK    5  A    between atoms: N_9  and  C_20 
ROOT
ATOM      1  N   UNL d   1      14.765  17.133  -5.117  0.00  0.00    -0.194 N 
ATOM      2  N   UNL d   1      14.737  16.332  -4.857  0.00  0.00    -0.163 NA
ATOM      3  C   UNL d   1      14.051  17.325  -5.435  0.00  0.00     0.093 A 
ATOM      4  C   UNL d   1      13.987  16.045  -5.027  0.00  0.00     0.103 A 
ATOM      5  C   UNL d   1      13.547  16.654  -5.389  0.00  0.00     0.041 A 
ATOM      6  C   UNL d   1      15.411  17.633  -5.055  0.00  0.00     0.281 C 
ATOM      7  O   UNL d   1      15.363  18.405  -5.332  0.00  0.00    -0.265 OA
ATOM      8  C   UNL d   1      16.114  17.361  -4.714  0.00  0.00     0.068 C 
ENDROOT
BRANCH   4   9
ATOM      9  C   UNL d   1      13.684  15.295  -4.883  0.00  0.00     0.019 A 
ATOM     10  C   UNL d   1      13.580  14.769  -5.514  0.00  0.00     0.003 A 
ATOM     11  C   UNL d   1      13.278  14.023  -5.371  0.00  0.00     0.020 A 
ATOM     12  C   UNL d   1      13.078  13.792  -4.605  0.00  0.00     0.094 A 
ATOM     13  C   UNL d   1      13.182  14.316  -3.978  0.00  0.00     0.020 A 
ATOM     14  C   UNL d   1      13.487  15.073  -4.115  0.00  0.00     0.003 A 
BRANCH  12  15
ATOM     15  N   UNL d   1      12.770  13.035  -4.450  0.00  0.00    -0.158 NA
BRANCH  15  16
ATOM     16  S   UNL d   1      13.279  12.418  -4.290  0.00  0.00     0.286 S 
ATOM     17  O   UNL d   1      13.801  11.784  -4.107  0.00  0.00    -0.198 OA
ATOM     18  O   UNL d   1      13.410  12.309  -5.102  0.00  0.00    -0.198 OA
BRANCH  16  19
ATOM     19  C   UNL d   1      13.150  12.525  -3.471  0.00  0.00     0.117 C 
ATOM     20  C   UNL d   1      13.510  12.033  -2.924  0.00  0.00     0.014 C 
ENDBRANCH  16  19
ENDBRANCH  15  16
ENDBRANCH  12  15
ENDBRANCH   4   9
BRANCH   3  21
ATOM     21  C   UNL d   1      13.851  18.053  -5.752  0.00  0.00     0.047 A 
ATOM     22  S   UNL d   1      14.316  18.738  -5.735  0.00  0.00    -0.085 SA
ATOM     23  C   UNL d   1      13.901  19.339  -6.116  0.00  0.00     0.035 A 
ATOM     24  C   UNL d   1      13.181  19.032  -6.370  0.00  0.00     0.007 A 
ATOM     25  C   UNL d   1      13.148  18.238  -6.146  0.00  0.00     0.009 A 
ENDBRANCH   3  21
TORSDOF 5
ENDMDL
