MODEL 1
REMARK VINA RESULT:      -3.7      0.000      0.000
REMARK  3 active torsions:
REMARK  status: ('A' for Active; 'I' for Inactive)
REMARK       I    between atoms: C_6  and  N_1 
REMARK    1  A    between atoms: C_7  and  C_3 
REMARK    2  A    between atoms: C_8  and  C_4 
REMARK    3  A    between atoms: C_20  and  C_18 
ROOT
ATOM      1  N   UNL d   1     -42.704-123.376 -49.378  0.00  0.00    -0.193 N 
ATOM      2  N   UNL d   1     -42.736-123.300 -50.189  0.00  0.00    -0.163 NA
ATOM      3  C   UNL d   1     -41.945-123.168 -49.126  0.00  0.00     0.110 A 
ATOM      4  C   UNL d   1     -41.994-123.044 -50.441  0.00  0.00     0.103 A 
ATOM      5  C   UNL d   1     -41.519-122.966 -49.790  0.00  0.00     0.042 A 
ATOM      6  C   UNL d   1     -43.342-123.626 -48.872  0.00  0.00     0.281 C 
ATOM      7  O   UNL d   1     -43.232-123.676 -48.077  0.00  0.00    -0.265 OA
ATOM      8  C   UNL d   1     -44.068-123.815 -49.215  0.00  0.00     0.068 C 
ENDROOT
BRANCH   4   9
ATOM      9  C   UNL d   1     -41.778-122.895 -51.221  0.00  0.00     0.019 A 
ATOM     10  C   UNL d   1     -41.761-122.121 -51.509  0.00  0.00     0.002 A 
ATOM     11  C   UNL d   1     -41.544-121.972 -52.289  0.00  0.00     0.000 A 
ATOM     12  C   UNL d   1     -41.343-122.602 -52.789  0.00  0.00     0.000 A 
ATOM     13  C   UNL d   1     -41.359-123.375 -52.504  0.00  0.00     0.000 A 
ATOM     14  C   UNL d   1     -41.576-123.525 -51.721  0.00  0.00     0.002 A 
BRANCH  12  15
ATOM     15  C   UNL d   1     -41.126-122.452 -53.572  0.00  0.00     0.000 C 
ATOM     16  C   UNL d   1     -41.658-122.595 -54.185  0.00  0.00     0.000 C 
ENDBRANCH  12  15
ENDBRANCH   4   9
BRANCH   3  17
ATOM     17  C   UNL d   1     -41.681-123.169 -48.339  0.00  0.00     0.118 A 
ATOM     18  O   UNL d   1     -41.609-122.509 -47.857  0.00  0.00    -0.304 OA
ATOM     19  C   UNL d   1     -41.324-122.751 -47.106  0.00  0.00     0.123 A 
ATOM     20  C   UNL d   1     -41.223-123.571 -47.135  0.00  0.00     0.029 A 
ATOM     21  C   UNL d   1     -41.449-123.817 -47.908  0.00  0.00     0.028 A 
ENDBRANCH   3  17
TORSDOF 3
ENDMDL
MODEL 2
REMARK VINA RESULT:      -2.6      1.561      2.779
REMARK  3 active torsions:
REMARK  status: ('A' for Active; 'I' for Inactive)
REMARK       I    between atoms: C_6  and  N_1 
REMARK    1  A    between atoms: C_7  and  C_3 
REMARK    2  A    between atoms: C_8  and  C_4 
REMARK    3  A    between atoms: C_20  and  C_18 
ROOT
ATOM      1  N   UNL d   1     -41.498-121.824 -51.387  0.00  0.00    -0.193 N 
ATOM      2  N   UNL d   1     -41.482-121.592 -52.169  0.00  0.00    -0.163 NA
ATOM      3  C   UNL d   1     -41.667-122.632 -51.358  0.00  0.00     0.110 A 
ATOM      4  C   UNL d   1     -41.641-122.259 -52.626  0.00  0.00     0.103 A 
ATOM      5  C   UNL d   1     -41.753-122.887 -52.127  0.00  0.00     0.042 A 
ATOM      6  C   UNL d   1     -41.365-121.322 -50.712  0.00  0.00     0.281 C 
ATOM      7  O   UNL d   1     -41.398-121.627 -49.969  0.00  0.00    -0.265 OA
ATOM      8  C   UNL d   1     -41.202-120.523 -50.838  0.00  0.00     0.068 C 
ENDROOT
BRANCH   4   9
ATOM      9  C   UNL d   1     -41.679-122.278 -53.448  0.00  0.00     0.019 A 
ATOM     10  C   UNL d   1     -41.167-122.763 -53.878  0.00  0.00     0.002 A 
ATOM     11  C   UNL d   1     -41.205-122.782 -54.701  0.00  0.00     0.000 A 
ATOM     12  C   UNL d   1     -41.761-122.313 -55.099  0.00  0.00     0.000 A 
ATOM     13  C   UNL d   1     -42.272-121.829 -54.672  0.00  0.00     0.000 A 
ATOM     14  C   UNL d   1     -42.235-121.809 -53.847  0.00  0.00     0.002 A 
BRANCH  12  15
ATOM     15  C   UNL d   1     -41.799-122.333 -55.924  0.00  0.00     0.000 C 
ATOM     16  C   UNL d   1     -42.335-121.853 -56.326  0.00  0.00     0.000 C 
ENDBRANCH  12  15
ENDBRANCH   4   9
BRANCH   3  17
ATOM     17  C   UNL d   1     -41.734-123.086 -50.667  0.00  0.00     0.118 A 
ATOM     18  O   UNL d   1     -42.436-123.307 -50.304  0.00  0.00    -0.304 OA
ATOM     19  C   UNL d   1     -42.259-123.761 -49.623  0.00  0.00     0.123 A 
ATOM     20  C   UNL d   1     -41.435-123.817 -49.572  0.00  0.00     0.029 A 
ATOM     21  C   UNL d   1     -41.123-123.392 -50.229  0.00  0.00     0.028 A 
ENDBRANCH   3  17
TORSDOF 3
ENDMDL
MODEL 3
REMARK VINA RESULT:      -2.3      2.036      4.623
REMARK  3 active torsions:
REMARK  status: ('A' for Active; 'I' for Inactive)
REMARK       I    between atoms: C_6  and  N_1 
REMARK    1  A    between atoms: C_7  and  C_3 
REMARK    2  A    between atoms: C_8  and  C_4 
REMARK    3  A    between atoms: C_20  and  C_18 
ROOT
ATOM      1  N   UNL d   1     -41.547-122.200 -52.087  0.00  0.00    -0.193 N 
ATOM      2  N   UNL d   1     -41.586-122.147 -51.274  0.00  0.00    -0.163 NA
ATOM      3  C   UNL d   1     -41.733-122.973 -52.308  0.00  0.00     0.110 A 
ATOM      4  C   UNL d   1     -41.797-122.892 -50.991  0.00  0.00     0.103 A 
ATOM      5  C   UNL d   1     -41.884-123.389 -51.624  0.00  0.00     0.042 A 
ATOM      6  C   UNL d   1     -41.349-121.567 -52.621  0.00  0.00     0.281 C 
ATOM      7  O   UNL d   1     -41.331-121.697 -53.414  0.00  0.00    -0.265 OA
ATOM      8  C   UNL d   1     -41.176-120.823 -52.308  0.00  0.00     0.068 C 
ENDROOT
BRANCH   4   9
ATOM      9  C   UNL d   1     -41.900-123.092 -50.199  0.00  0.00     0.019 A 
ATOM     10  C   UNL d   1     -41.247-123.272 -49.725  0.00  0.00     0.002 A 
ATOM     11  C   UNL d   1     -41.350-123.472 -48.933  0.00  0.00     0.000 A 
ATOM     12  C   UNL d   1     -42.112-123.492 -48.608  0.00  0.00     0.000 A 
ATOM     13  C   UNL d   1     -42.764-123.312 -49.078  0.00  0.00     0.000 A 
ATOM     14  C   UNL d   1     -42.662-123.112 -49.873  0.00  0.00     0.002 A 
BRANCH  12  15
ATOM     15  C   UNL d   1     -42.215-123.692 -47.814  0.00  0.00     0.000 C 
ATOM     16  C   UNL d   1     -42.314-123.103 -47.246  0.00  0.00     0.000 C 
ENDBRANCH  12  15
ENDBRANCH   4   9
BRANCH   3  17
ATOM     17  C   UNL d   1     -41.757-123.260 -53.087  0.00  0.00     0.118 A 
ATOM     18  O   UNL d   1     -41.127-123.590 -53.495  0.00  0.00    -0.304 OA
ATOM     19  C   UNL d   1     -41.384-123.807 -54.263  0.00  0.00     0.123 A 
ATOM     20  C   UNL d   1     -42.184-123.604 -54.320  0.00  0.00     0.029 A 
ATOM     21  C   UNL d   1     -42.402-123.265 -53.580  0.00  0.00     0.028 A 
ENDBRANCH   3  17
TORSDOF 3
ENDMDL
