MODEL 1
REMARK VINA RESULT:      -9.9      0.000      0.000
REMARK  2 active torsions:
REMARK  status: ('A' for Active; 'I' for Inactive)
REMARK    1  A    between atoms: C_7  and  C_4 
REMARK    2  A    between atoms: O_13  and  C_11 
ROOT
ATOM      1  N   UNL d   1      53.911  32.294  54.303  0.00  0.00    -0.211 NA
ATOM      2  C   UNL d   1      53.998  33.103  54.486  0.00  0.00     0.140 A 
ATOM      3  C   UNL d   1      53.468  33.651  54.178  0.00  0.00     0.051 A 
ATOM      4  C   UNL d   1      53.290  32.051  53.811  0.00  0.00     0.183 A 
ATOM      5  C   UNL d   1      52.852  33.405  53.690  0.00  0.00     0.104 A 
ATOM      6  O   UNL d   1      52.762  32.605  53.505  0.00  0.00    -0.289 OA
ATOM      7  S   UNL d   1      54.613  33.353  54.975  0.00  0.00    -0.057 SA
ATOM      8  C   UNL d   1      53.550  34.453  54.357  0.00  0.00     0.004 A 
ATOM      9  C   UNL d   1      52.320  33.949  53.380  0.00  0.00     0.025 A 
ATOM     10  C   UNL d   1      53.018  35.011  54.049  0.00  0.00     0.000 A 
ATOM     11  C   UNL d   1      52.405  34.753  53.561  0.00  0.00     0.002 A 
ENDROOT
BRANCH   4  12
ATOM     12  C   UNL d   1      53.210  31.253  53.635  0.00  0.00     0.043 A 
ATOM     13  C   UNL d   1      53.151  30.695  54.226  0.00  0.00     0.028 A 
ATOM     14  C   UNL d   1      53.072  29.901  54.045  0.00  0.00     0.094 A 
ATOM     15  C   UNL d   1      53.051  29.657  53.256  0.00  0.00     0.024 A 
ATOM     16  C   UNL d   1      53.110  30.223  52.655  0.00  0.00     0.002 A 
ATOM     17  C   UNL d   1      53.190  31.021  52.835  0.00  0.00     0.004 A 
BRANCH  14  18
ATOM     18  O   UNL d   1      53.013  29.341  54.645  0.00  0.00    -0.328 OA
ATOM     19  C   UNL d   1      53.534  28.703  54.671  0.00  0.00     0.181 C 
ENDBRANCH  14  18
ENDBRANCH   4  12
TORSDOF 2
ENDMDL
MODEL 2
REMARK VINA RESULT:      -9.6      2.083      3.707
REMARK  2 active torsions:
REMARK  status: ('A' for Active; 'I' for Inactive)
REMARK    1  A    between atoms: C_7  and  C_4 
REMARK    2  A    between atoms: O_13  and  C_11 
ROOT
ATOM      1  N   UNL d   1      52.595  32.765  53.229  0.00  0.00    -0.211 NA
ATOM      2  C   UNL d   1      53.237  32.458  53.666  0.00  0.00     0.140 A 
ATOM      3  C   UNL d   1      53.640  32.943  54.194  0.00  0.00     0.051 A 
ATOM      4  C   UNL d   1      52.371  33.555  53.333  0.00  0.00     0.183 A 
ATOM      5  C   UNL d   1      53.414  33.729  54.293  0.00  0.00     0.104 A 
ATOM      6  O   UNL d   1      52.779  34.036  53.862  0.00  0.00    -0.289 OA
ATOM      7  S   UNL d   1      53.466  31.672  53.569  0.00  0.00    -0.057 SA
ATOM      8  C   UNL d   1      54.276  32.645  54.628  0.00  0.00     0.004 A 
ATOM      9  C   UNL d   1      53.813  34.218  54.819  0.00  0.00     0.025 A 
ATOM     10  C   UNL d   1      54.686  33.130  55.162  0.00  0.00     0.000 A 
ATOM     11  C   UNL d   1      54.451  33.915  55.253  0.00  0.00     0.002 A 
ENDROOT
BRANCH   4  12
ATOM     12  C   UNL d   1      51.739  33.850  52.899  0.00  0.00     0.043 A 
ATOM     13  C   UNL d   1      51.033  34.039  53.261  0.00  0.00     0.028 A 
ATOM     14  C   UNL d   1      50.406  34.333  52.824  0.00  0.00     0.094 A 
ATOM     15  C   UNL d   1      50.483  34.439  52.009  0.00  0.00     0.024 A 
ATOM     16  C   UNL d   1      51.199  34.247  51.641  0.00  0.00     0.002 A 
ATOM     17  C   UNL d   1      51.830  33.952  52.078  0.00  0.00     0.004 A 
BRANCH  14  18
ATOM     18  O   UNL d   1      49.695  34.523  53.193  0.00  0.00    -0.328 OA
ATOM     19  C   UNL d   1      49.177  35.060  52.843  0.00  0.00     0.181 C 
ENDBRANCH  14  18
ENDBRANCH   4  12
TORSDOF 2
ENDMDL
MODEL 3
REMARK VINA RESULT:      -9.4      1.443      3.863
REMARK  2 active torsions:
REMARK  status: ('A' for Active; 'I' for Inactive)
REMARK    1  A    between atoms: C_7  and  C_4 
REMARK    2  A    between atoms: O_13  and  C_11 
ROOT
ATOM      1  N   UNL d   1      53.007  32.909  53.637  0.00  0.00    -0.211 NA
ATOM      2  C   UNL d   1      53.497  32.296  53.919  0.00  0.00     0.140 A 
ATOM      3  C   UNL d   1      53.373  31.524  53.664  0.00  0.00     0.051 A 
ATOM      4  C   UNL d   1      52.401  32.734  53.101  0.00  0.00     0.183 A 
ATOM      5  C   UNL d   1      52.768  31.354  53.130  0.00  0.00     0.104 A 
ATOM      6  O   UNL d   1      52.281  31.959  52.848  0.00  0.00    -0.289 OA
ATOM      7  S   UNL d   1      54.103  32.462  54.453  0.00  0.00    -0.057 SA
ATOM      8  C   UNL d   1      53.855  30.913  53.940  0.00  0.00     0.004 A 
ATOM      9  C   UNL d   1      52.641  30.585  52.872  0.00  0.00     0.025 A 
ATOM     10  C   UNL d   1      53.735  30.133  53.686  0.00  0.00     0.000 A 
ATOM     11  C   UNL d   1      53.126  29.974  53.152  0.00  0.00     0.002 A 
ENDROOT
BRANCH   4  12
ATOM     12  C   UNL d   1      51.923  33.343  52.827  0.00  0.00     0.043 A 
ATOM     13  C   UNL d   1      51.186  33.478  53.150  0.00  0.00     0.028 A 
ATOM     14  C   UNL d   1      50.714  34.086  52.874  0.00  0.00     0.094 A 
ATOM     15  C   UNL d   1      50.981  34.571  52.262  0.00  0.00     0.024 A 
ATOM     16  C   UNL d   1      51.728  34.436  51.933  0.00  0.00     0.002 A 
ATOM     17  C   UNL d   1      52.204  33.825  52.209  0.00  0.00     0.004 A 
BRANCH  14  18
ATOM     18  O   UNL d   1      49.971  34.219  53.203  0.00  0.00    -0.328 OA
ATOM     19  C   UNL d   1      49.487  34.818  52.908  0.00  0.00     0.181 C 
ENDBRANCH  14  18
ENDBRANCH   4  12
TORSDOF 2
ENDMDL
MODEL 4
REMARK VINA RESULT:      -9.1      1.384      3.996
REMARK  2 active torsions:
REMARK  status: ('A' for Active; 'I' for Inactive)
REMARK    1  A    between atoms: C_7  and  C_4 
REMARK    2  A    between atoms: O_13  and  C_11 
ROOT
ATOM      1  N   UNL d   1      53.086  32.533  53.452  0.00  0.00    -0.211 NA
ATOM      2  C   UNL d   1      52.753  31.878  53.058  0.00  0.00     0.140 A 
ATOM      3  C   UNL d   1      52.951  31.115  53.295  0.00  0.00     0.051 A 
ATOM      4  C   UNL d   1      53.612  32.409  54.079  0.00  0.00     0.183 A 
ATOM      5  C   UNL d   1      53.476  30.996  53.919  0.00  0.00     0.104 A 
ATOM      6  O   UNL d   1      53.807  31.643  54.312  0.00  0.00    -0.289 OA
ATOM      7  S   UNL d   1      52.228  31.993  52.433  0.00  0.00    -0.057 SA
ATOM      8  C   UNL d   1      52.624  30.463  52.908  0.00  0.00     0.004 A 
ATOM      9  C   UNL d   1      53.676  30.237  54.159  0.00  0.00     0.025 A 
ATOM     10  C   UNL d   1      52.820  29.692  53.142  0.00  0.00     0.000 A 
ATOM     11  C   UNL d   1      53.347  29.585  53.768  0.00  0.00     0.002 A 
ENDROOT
BRANCH   4  12
ATOM     12  C   UNL d   1      53.936  33.059  54.462  0.00  0.00     0.043 A 
ATOM     13  C   UNL d   1      53.471  33.690  54.687  0.00  0.00     0.028 A 
ATOM     14  C   UNL d   1      53.798  34.336  55.068  0.00  0.00     0.094 A 
ATOM     15  C   UNL d   1      54.608  34.353  55.231  0.00  0.00     0.024 A 
ATOM     16  C   UNL d   1      55.081  33.713  55.004  0.00  0.00     0.002 A 
ATOM     17  C   UNL d   1      54.754  33.064  54.620  0.00  0.00     0.004 A 
BRANCH  14  18
ATOM     18  O   UNL d   1      53.325  34.971  55.293  0.00  0.00    -0.328 OA
ATOM     19  C   UNL d   1      53.144  35.565  54.752  0.00  0.00     0.181 C 
ENDBRANCH  14  18
ENDBRANCH   4  12
TORSDOF 2
ENDMDL
