MODEL 1
REMARK VINA RESULT:      32.0      0.000      0.000
REMARK  3 active torsions:
REMARK  status: ('A' for Active; 'I' for Inactive)
REMARK    1  A    between atoms: N_2  and  C_1 
REMARK    2  A    between atoms: N_3  and  C_1 
REMARK       I    between atoms: C_4  and  N_3 
REMARK    3  A    between atoms: C_5  and  C_4 
ROOT
ATOM      1  C   UNL d   1      44.506 -15.463  36.526  0.00  0.00     0.209 C 
ATOM      2  S   UNL d   1      44.487 -14.661  36.761  0.00  0.00    -0.038 SA
ENDROOT
BRANCH   1   3
ATOM      3  N   UNL d   1      43.794 -15.891  36.477  0.00  0.00    -0.282 N 
ATOM      4  C   UNL d   1      43.043 -15.562  36.431  0.00  0.00     0.066 A 
ATOM      5  C   UNL d   1      42.502 -16.186  36.391  0.00  0.00     0.018 A 
ATOM      6  C   UNL d   1      42.772 -14.784  36.421  0.00  0.00     0.018 A 
ATOM      7  C   UNL d   1      41.690 -16.031  36.341  0.00  0.00     0.002 A 
ATOM      8  C   UNL d   1      42.925 -16.893  36.412  0.00  0.00     0.021 A 
ATOM      9  C   UNL d   1      41.422 -15.245  36.330  0.00  0.00     0.000 A 
ATOM     10  C   UNL d   1      41.962 -14.621  36.370  0.00  0.00     0.002 A 
ATOM     11  C   UNL d   1      43.726 -16.707  36.465  0.00  0.00     0.082 A 
ENDBRANCH   1   3
BRANCH   1  12
ATOM     12  N   UNL d   1      45.219 -15.824  36.345  0.00  0.00    -0.178 NA
ATOM     13  C   UNL d   1      45.928 -15.483  36.605  0.00  0.00     0.304 C 
ATOM     14  O   UNL d   1      46.647 -15.848  36.422  0.00  0.00    -0.263 OA
BRANCH  13  15
ATOM     15  C   UNL d   1      45.928 -14.785  37.044  0.00  0.00     0.158 A 
ATOM     16  O   UNL d   1      45.668 -14.610  37.798  0.00  0.00    -0.296 OA
ATOM     17  C   UNL d   1      45.815 -13.804  37.939  0.00  0.00     0.134 A 
ATOM     18 BR   UNL d   1      45.649 -13.359  38.629  0.00  0.00    -0.022 Br
ATOM     19  C   UNL d   1      46.166 -13.494  37.262  0.00  0.00     0.034 A 
ATOM     20  C   UNL d   1      46.235 -14.101  36.712  0.00  0.00     0.032 A 
ENDBRANCH  13  15
ENDBRANCH   1  12
TORSDOF 3
ENDMDL
MODEL 2
REMARK VINA RESULT:      33.1      5.929      7.221
REMARK  3 active torsions:
REMARK  status: ('A' for Active; 'I' for Inactive)
REMARK    1  A    between atoms: N_2  and  C_1 
REMARK    2  A    between atoms: N_3  and  C_1 
REMARK       I    between atoms: C_4  and  N_3 
REMARK    3  A    between atoms: C_5  and  C_4 
ROOT
ATOM      1  C   UNL d   1      45.265 -12.429  43.205  0.00  0.00     0.209 C 
ATOM      2  S   UNL d   1      44.609 -12.868  43.481  0.00  0.00    -0.038 SA
ENDROOT
BRANCH   1   3
ATOM      3  N   UNL d   1      45.377 -12.331  42.387  0.00  0.00    -0.282 N 
ATOM      4  C   UNL d   1      44.777 -12.256  41.830  0.00  0.00     0.066 A 
ATOM      5  C   UNL d   1      45.136 -12.170  41.091  0.00  0.00     0.018 A 
ATOM      6  C   UNL d   1      43.955 -12.254  41.890  0.00  0.00     0.018 A 
ATOM      7  C   UNL d   1      44.672 -12.081  40.411  0.00  0.00     0.002 A 
ATOM      8  C   UNL d   1      45.953 -12.192  41.199  0.00  0.00     0.021 A 
ATOM      9  C   UNL d   1      43.844 -12.080  40.475  0.00  0.00     0.000 A 
ATOM     10  C   UNL d   1      43.485 -12.166  41.214  0.00  0.00     0.002 A 
ATOM     11  C   UNL d   1      46.099 -12.292  42.003  0.00  0.00     0.082 A 
ENDBRANCH   1   3
BRANCH   1  12
ATOM     12  N   UNL d   1      45.794 -12.098  43.737  0.00  0.00    -0.178 NA
ATOM     13  C   UNL d   1      46.006 -12.519  44.419  0.00  0.00     0.304 C 
ATOM     14  O   UNL d   1      46.539 -12.185  44.955  0.00  0.00    -0.263 OA
BRANCH  13  15
ATOM     15  C   UNL d   1      45.693 -13.267  44.571  0.00  0.00     0.158 A 
ATOM     16  O   UNL d   1      46.019 -14.015  44.546  0.00  0.00    -0.296 OA
ATOM     17  C   UNL d   1      45.428 -14.560  44.758  0.00  0.00     0.134 A 
ATOM     18 BR   UNL d   1      45.487 -15.393  44.814  0.00  0.00    -0.022 Br
ATOM     19  C   UNL d   1      44.742 -14.133  44.911  0.00  0.00     0.034 A 
ATOM     20  C   UNL d   1      44.908 -13.336  44.796  0.00  0.00     0.032 A 
ENDBRANCH  13  15
ENDBRANCH   1  12
TORSDOF 3
ENDMDL
MODEL 3
REMARK VINA RESULT:      34.8      6.787      7.667
REMARK  3 active torsions:
REMARK  status: ('A' for Active; 'I' for Inactive)
REMARK    1  A    between atoms: N_2  and  C_1 
REMARK    2  A    between atoms: N_3  and  C_1 
REMARK       I    between atoms: C_4  and  N_3 
REMARK    3  A    between atoms: C_5  and  C_4 
ROOT
ATOM      1  C   UNL d   1      45.938 -18.140  43.280  0.00  0.00     0.209 C 
ATOM      2  S   UNL d   1      46.008 -17.939  42.472  0.00  0.00    -0.038 SA
ENDROOT
BRANCH   1   3
ATOM      3  N   UNL d   1      46.021 -17.548  43.858  0.00  0.00    -0.282 N 
ATOM      4  C   UNL d   1      45.670 -16.805  43.833  0.00  0.00     0.066 A 
ATOM      5  C   UNL d   1      45.901 -16.400  44.514  0.00  0.00     0.018 A 
ATOM      6  C   UNL d   1      45.173 -16.440  43.286  0.00  0.00     0.018 A 
ATOM      7  C   UNL d   1      45.635 -15.628  44.650  0.00  0.00     0.002 A 
ATOM      8  C   UNL d   1      46.392 -16.896  44.954  0.00  0.00     0.021 A 
ATOM      9  C   UNL d   1      45.133 -15.263  44.097  0.00  0.00     0.000 A 
ATOM     10  C   UNL d   1      44.903 -15.668  43.415  0.00  0.00     0.002 A 
ATOM     11  C   UNL d   1      46.464 -17.606  44.544  0.00  0.00     0.082 A 
ENDBRANCH   1   3
BRANCH   1  12
ATOM     12  N   UNL d   1      45.789 -18.915  43.501  0.00  0.00    -0.178 NA
ATOM     13  C   UNL d   1      45.892 -19.525  42.950  0.00  0.00     0.304 C 
ATOM     14  O   UNL d   1      45.741 -20.307  43.174  0.00  0.00    -0.263 OA
BRANCH  13  15
ATOM     15  C   UNL d   1      46.142 -19.365  42.181  0.00  0.00     0.158 A 
ATOM     16  O   UNL d   1      46.162 -18.678  41.741  0.00  0.00    -0.296 OA
ATOM     17  C   UNL d   1      46.476 -18.861  40.994  0.00  0.00     0.134 A 
ATOM     18 BR   UNL d   1      46.608 -18.345  40.347  0.00  0.00    -0.022 Br
ATOM     19  C   UNL d   1      46.646 -19.666  40.987  0.00  0.00     0.034 A 
ATOM     20  C   UNL d   1      46.440 -19.974  41.720  0.00  0.00     0.032 A 
ENDBRANCH  13  15
ENDBRANCH   1  12
TORSDOF 3
ENDMDL
