MODEL 1
REMARK VINA RESULT:      -5.6      0.000      0.000
REMARK  5 active torsions:
REMARK  status: ('A' for Active; 'I' for Inactive)
REMARK    1  A    between atoms: C_2  and  C_1 
REMARK       I    between atoms: N_5  and  C_2 
REMARK    2  A    between atoms: C_10  and  N_5 
REMARK    3  A    between atoms: C_11  and  C_6 
REMARK    4  A    between atoms: S_9  and  C_11 
REMARK    5  A    between atoms: C_13  and  S_9 
ROOT
ATOM      1  C   UNL d   1     -39.939  15.405  19.003  0.00  0.00     0.158 A 
ATOM      2  O   UNL d   1     -39.830  14.829  19.582  0.00  0.00    -0.302 OA
ATOM      3  C   UNL d   1     -39.273  15.899  19.015  0.00  0.00     0.032 A 
ATOM      4  C   UNL d   1     -39.111  14.961  19.948  0.00  0.00     0.107 A 
ATOM      5  C   UNL d   1     -38.761  15.624  19.600  0.00  0.00     0.027 A 
ENDROOT
BRANCH   1   6
ATOM      6  C   UNL d   1     -40.589  15.484  18.498  0.00  0.00     0.302 C 
ATOM      7  N   UNL d   1     -40.587  15.128  17.756  0.00  0.00    -0.206 NA
ATOM      8  O   UNL d   1     -41.239  15.922  18.745  0.00  0.00    -0.263 OA
BRANCH   7   9
ATOM      9  C   UNL d   1     -39.926  14.686  17.512  0.00  0.00     0.085 A 
ATOM     10  C   UNL d   1     -39.311  15.051  17.117  0.00  0.00     0.021 A 
ATOM     11  C   UNL d   1     -38.659  14.625  16.873  0.00  0.00     0.031 A 
ATOM     12  C   UNL d   1     -38.616  13.807  17.029  0.00  0.00     0.140 A 
ATOM     13  C   UNL d   1     -39.235  13.440  17.427  0.00  0.00     0.031 A 
ATOM     14  F   UNL d   1     -37.966  13.373  16.789  0.00  0.00    -0.204 F 
ATOM     15  C   UNL d   1     -39.893  13.876  17.671  0.00  0.00     0.021 A 
ENDBRANCH   7   9
ENDBRANCH   1   6
BRANCH   4  16
ATOM     16  C   UNL d   1     -38.782  14.514  20.561  0.00  0.00     0.060 C 
BRANCH  16  17
ATOM     17  S   UNL d   1     -39.188  14.432  21.272  0.00  0.00    -0.084 SA
BRANCH  17  18
ATOM     18  C   UNL d   1     -38.836  14.058  21.913  0.00  0.00     0.029 A 
ATOM     19  C   UNL d   1     -38.436  13.348  21.810  0.00  0.00     0.006 A 
ATOM     20  C   UNL d   1     -38.084  12.974  22.451  0.00  0.00     0.001 A 
ATOM     21  C   UNL d   1     -38.137  13.319  23.202  0.00  0.00     0.000 A 
ATOM     22  C   UNL d   1     -38.540  14.031  23.301  0.00  0.00     0.001 A 
ATOM     23  C   UNL d   1     -38.891  14.405  22.660  0.00  0.00     0.006 A 
ENDBRANCH  17  18
ENDBRANCH  16  17
ENDBRANCH   4  16
TORSDOF 5
ENDMDL
MODEL 2
REMARK VINA RESULT:      -5.3      1.515      2.036
REMARK  5 active torsions:
REMARK  status: ('A' for Active; 'I' for Inactive)
REMARK    1  A    between atoms: C_2  and  C_1 
REMARK       I    between atoms: N_5  and  C_2 
REMARK    2  A    between atoms: C_10  and  N_5 
REMARK    3  A    between atoms: C_11  and  C_6 
REMARK    4  A    between atoms: S_9  and  C_11 
REMARK    5  A    between atoms: C_13  and  S_9 
ROOT
ATOM      1  C   UNL d   1     -38.461  13.776  18.565  0.00  0.00     0.158 A 
ATOM      2  O   UNL d   1     -38.659  13.684  19.359  0.00  0.00    -0.302 OA
ATOM      3  C   UNL d   1     -38.070  14.504  18.490  0.00  0.00     0.032 A 
ATOM      4  C   UNL d   1     -38.398  14.339  19.771  0.00  0.00     0.107 A 
ATOM      5  C   UNL d   1     -38.031  14.852  19.237  0.00  0.00     0.027 A 
ENDROOT
BRANCH   1   6
ATOM      6  C   UNL d   1     -38.618  13.247  17.949  0.00  0.00     0.302 C 
ATOM      7  N   UNL d   1     -39.273  13.357  17.462  0.00  0.00    -0.206 NA
ATOM      8  O   UNL d   1     -38.114  12.611  17.828  0.00  0.00    -0.263 OA
BRANCH   7   9
ATOM      9  C   UNL d   1     -39.779  14.003  17.590  0.00  0.00     0.085 A 
ATOM     10  C   UNL d   1     -39.645  14.713  17.208  0.00  0.00     0.021 A 
ATOM     11  C   UNL d   1     -40.137  15.353  17.328  0.00  0.00     0.031 A 
ATOM     12  C   UNL d   1     -40.786  15.285  17.846  0.00  0.00     0.140 A 
ATOM     13  C   UNL d   1     -40.922  14.571  18.231  0.00  0.00     0.031 A 
ATOM     14  F   UNL d   1     -41.284  15.922  17.972  0.00  0.00    -0.204 F 
ATOM     15  C   UNL d   1     -40.420  13.927  18.106  0.00  0.00     0.021 A 
ENDBRANCH   7   9
ENDBRANCH   1   6
BRANCH   4  16
ATOM     16  C   UNL d   1     -38.481  14.475  20.583  0.00  0.00     0.060 C 
BRANCH  16  17
ATOM     17  S   UNL d   1     -38.154  13.948  21.122  0.00  0.00    -0.084 SA
BRANCH  17  18
ATOM     18  C   UNL d   1     -38.301  14.027  21.926  0.00  0.00     0.029 A 
ATOM     19  C   UNL d   1     -38.229  14.760  22.291  0.00  0.00     0.006 A 
ATOM     20  C   UNL d   1     -38.376  14.840  23.094  0.00  0.00     0.001 A 
ATOM     21  C   UNL d   1     -38.598  14.174  23.535  0.00  0.00     0.000 A 
ATOM     22  C   UNL d   1     -38.669  13.441  23.166  0.00  0.00     0.001 A 
ATOM     23  C   UNL d   1     -38.522  13.362  22.361  0.00  0.00     0.006 A 
ENDBRANCH  17  18
ENDBRANCH  16  17
ENDBRANCH   4  16
TORSDOF 5
ENDMDL
MODEL 3
REMARK VINA RESULT:      -5.0      1.274      1.602
REMARK  5 active torsions:
REMARK  status: ('A' for Active; 'I' for Inactive)
REMARK    1  A    between atoms: C_2  and  C_1 
REMARK       I    between atoms: N_5  and  C_2 
REMARK    2  A    between atoms: C_10  and  N_5 
REMARK    3  A    between atoms: C_11  and  C_6 
REMARK    4  A    between atoms: S_9  and  C_11 
REMARK    5  A    between atoms: C_13  and  S_9 
ROOT
ATOM      1  C   UNL d   1     -40.685  15.228  18.009  0.00  0.00     0.158 A 
ATOM      2  O   UNL d   1     -40.258  15.704  18.528  0.00  0.00    -0.302 OA
ATOM      3  C   UNL d   1     -40.826  14.506  18.392  0.00  0.00     0.032 A 
ATOM      4  C   UNL d   1     -40.135  15.288  19.221  0.00  0.00     0.107 A 
ATOM      5  C   UNL d   1     -40.485  14.544  19.142  0.00  0.00     0.027 A 
ENDROOT
BRANCH   1   6
ATOM      6  C   UNL d   1     -40.933  15.425  17.245  0.00  0.00     0.302 C 
ATOM      7  N   UNL d   1     -40.536  15.128  16.588  0.00  0.00    -0.206 NA
ATOM      8  O   UNL d   1     -41.580  15.921  17.148  0.00  0.00    -0.263 OA
BRANCH   7   9
ATOM      9  C   UNL d   1     -39.881  14.626  16.693  0.00  0.00     0.085 A 
ATOM     10  C   UNL d   1     -39.123  14.915  16.599  0.00  0.00     0.021 A 
ATOM     11  C   UNL d   1     -38.474  14.430  16.701  0.00  0.00     0.031 A 
ATOM     12  C   UNL d   1     -38.584  13.628  16.903  0.00  0.00     0.140 A 
ATOM     13  C   UNL d   1     -39.348  13.338  16.997  0.00  0.00     0.031 A 
ATOM     14  F   UNL d   1     -37.940  13.135  17.006  0.00  0.00    -0.204 F 
ATOM     15  C   UNL d   1     -40.000  13.834  16.893  0.00  0.00     0.021 A 
ENDBRANCH   7   9
ENDBRANCH   1   6
BRANCH   4  16
ATOM     16  C   UNL d   1     -39.731  15.557  19.891  0.00  0.00     0.060 C 
BRANCH  16  17
ATOM     17  S   UNL d   1     -39.626  15.055  20.534  0.00  0.00    -0.084 SA
BRANCH  17  18
ATOM     18  C   UNL d   1     -39.246  15.319  21.212  0.00  0.00     0.029 A 
ATOM     19  C   UNL d   1     -39.679  15.645  21.830  0.00  0.00     0.006 A 
ATOM     20  C   UNL d   1     -39.300  15.909  22.509  0.00  0.00     0.001 A 
ATOM     21  C   UNL d   1     -38.476  15.845  22.564  0.00  0.00     0.000 A 
ATOM     22  C   UNL d   1     -38.045  15.518  21.943  0.00  0.00     0.001 A 
ATOM     23  C   UNL d   1     -38.425  15.253  21.264  0.00  0.00     0.006 A 
ENDBRANCH  17  18
ENDBRANCH  16  17
ENDBRANCH   4  16
TORSDOF 5
ENDMDL
MODEL 4
REMARK VINA RESULT:      -5.0      2.198      4.475
REMARK  5 active torsions:
REMARK  status: ('A' for Active; 'I' for Inactive)
REMARK    1  A    between atoms: C_2  and  C_1 
REMARK       I    between atoms: N_5  and  C_2 
REMARK    2  A    between atoms: C_10  and  N_5 
REMARK    3  A    between atoms: C_11  and  C_6 
REMARK    4  A    between atoms: S_9  and  C_11 
REMARK    5  A    between atoms: C_13  and  S_9 
ROOT
ATOM      1  C   UNL d   1     -38.371  14.023  20.854  0.00  0.00     0.158 A 
ATOM      2  O   UNL d   1     -38.332  13.675  20.108  0.00  0.00    -0.302 OA
ATOM      3  C   UNL d   1     -38.131  14.812  20.773  0.00  0.00     0.032 A 
ATOM      4  C   UNL d   1     -38.074  14.235  19.573  0.00  0.00     0.107 A 
ATOM      5  C   UNL d   1     -37.947  14.944  19.979  0.00  0.00     0.027 A 
ENDROOT
BRANCH   1   6
ATOM      6  C   UNL d   1     -38.605  13.660  21.560  0.00  0.00     0.302 C 
ATOM      7  N   UNL d   1     -39.343  13.820  21.886  0.00  0.00    -0.206 NA
ATOM      8  O   UNL d   1     -38.092  13.137  21.931  0.00  0.00    -0.263 OA
BRANCH   7   9
ATOM      9  C   UNL d   1     -39.858  14.350  21.505  0.00  0.00     0.085 A 
ATOM     10  C   UNL d   1     -39.786  15.154  21.630  0.00  0.00     0.021 A 
ATOM     11  C   UNL d   1     -40.286  15.682  21.260  0.00  0.00     0.031 A 
ATOM     12  C   UNL d   1     -40.880  15.399  20.747  0.00  0.00     0.140 A 
ATOM     13  C   UNL d   1     -40.952  14.590  20.621  0.00  0.00     0.031 A 
ATOM     14  F   UNL d   1     -41.386  15.922  20.372  0.00  0.00    -0.204 F 
ATOM     15  C   UNL d   1     -40.442  14.061  20.998  0.00  0.00     0.021 A 
ENDBRANCH   7   9
ENDBRANCH   1   6
BRANCH   4  16
ATOM     16  C   UNL d   1     -37.956  14.123  18.762  0.00  0.00     0.060 C 
BRANCH  16  17
ATOM     17  S   UNL d   1     -38.598  13.963  18.273  0.00  0.00    -0.084 SA
BRANCH  17  18
ATOM     18  C   UNL d   1     -38.503  13.926  17.458  0.00  0.00     0.029 A 
ATOM     19  C   UNL d   1     -38.844  14.497  16.975  0.00  0.00     0.006 A 
ATOM     20  C   UNL d   1     -38.750  14.461  16.160  0.00  0.00     0.001 A 
ATOM     21  C   UNL d   1     -38.308  13.842  15.830  0.00  0.00     0.000 A 
ATOM     22  C   UNL d   1     -37.968  13.272  16.317  0.00  0.00     0.001 A 
ATOM     23  C   UNL d   1     -38.063  13.309  17.132  0.00  0.00     0.006 A 
ENDBRANCH  17  18
ENDBRANCH  16  17
ENDBRANCH   4  16
TORSDOF 5
ENDMDL
MODEL 5
REMARK VINA RESULT:      -4.9      1.999      4.404
REMARK  5 active torsions:
REMARK  status: ('A' for Active; 'I' for Inactive)
REMARK    1  A    between atoms: C_2  and  C_1 
REMARK       I    between atoms: N_5  and  C_2 
REMARK    2  A    between atoms: C_10  and  N_5 
REMARK    3  A    between atoms: C_11  and  C_6 
REMARK    4  A    between atoms: S_9  and  C_11 
REMARK    5  A    between atoms: C_13  and  S_9 
ROOT
ATOM      1  C   UNL d   1     -40.808  14.658  19.821  0.00  0.00     0.158 A 
ATOM      2  O   UNL d   1     -40.313  14.461  19.192  0.00  0.00    -0.302 OA
ATOM      3  C   UNL d   1     -40.980  15.466  19.758  0.00  0.00     0.032 A 
ATOM      4  C   UNL d   1     -40.180  15.133  18.746  0.00  0.00     0.107 A 
ATOM      5  C   UNL d   1     -40.591  15.760  19.092  0.00  0.00     0.027 A 
ENDROOT
BRANCH   1   6
ATOM      6  C   UNL d   1     -41.086  14.150  20.411  0.00  0.00     0.302 C 
ATOM      7  N   UNL d   1     -40.696  14.096  21.133  0.00  0.00    -0.206 NA
ATOM      8  O   UNL d   1     -41.757  13.699  20.269  0.00  0.00    -0.263 OA
BRANCH   7   9
ATOM      9  C   UNL d   1     -40.016  14.555  21.271  0.00  0.00     0.085 A 
ATOM     10  C   UNL d   1     -39.275  14.245  21.127  0.00  0.00     0.021 A 
ATOM     11  C   UNL d   1     -38.602  14.688  21.259  0.00  0.00     0.031 A 
ATOM     12  C   UNL d   1     -38.671  15.469  21.545  0.00  0.00     0.140 A 
ATOM     13  C   UNL d   1     -39.418  15.781  21.690  0.00  0.00     0.031 A 
ATOM     14  F   UNL d   1     -38.002  15.920  21.681  0.00  0.00    -0.204 F 
ATOM     15  C   UNL d   1     -40.094  15.327  21.554  0.00  0.00     0.021 A 
ENDBRANCH   7   9
ENDBRANCH   1   6
BRANCH   4  16
ATOM     16  C   UNL d   1     -39.715  15.186  18.064  0.00  0.00     0.060 C 
BRANCH  16  17
ATOM     17  S   UNL d   1     -39.623  14.528  17.578  0.00  0.00    -0.084 SA
BRANCH  17  18
ATOM     18  C   UNL d   1     -39.080  14.536  16.963  0.00  0.00     0.029 A 
ATOM     19  C   UNL d   1     -38.807  13.831  16.641  0.00  0.00     0.006 A 
ATOM     20  C   UNL d   1     -38.264  13.837  16.025  0.00  0.00     0.001 A 
ATOM     21  C   UNL d   1     -37.993  14.564  15.732  0.00  0.00     0.000 A 
ATOM     22  C   UNL d   1     -38.268  15.269  16.057  0.00  0.00     0.001 A 
ATOM     23  C   UNL d   1     -38.811  15.261  16.673  0.00  0.00     0.006 A 
ENDBRANCH  17  18
ENDBRANCH  16  17
ENDBRANCH   4  16
TORSDOF 5
ENDMDL
MODEL 6
REMARK VINA RESULT:      -2.8      9.767     10.507
REMARK  5 active torsions:
REMARK  status: ('A' for Active; 'I' for Inactive)
REMARK    1  A    between atoms: C_2  and  C_1 
REMARK       I    between atoms: N_5  and  C_2 
REMARK    2  A    between atoms: C_10  and  N_5 
REMARK    3  A    between atoms: C_11  and  C_6 
REMARK    4  A    between atoms: S_9  and  C_11 
REMARK    5  A    between atoms: C_13  and  S_9 
ROOT
ATOM      1  C   UNL d   1     -49.850  14.543  22.457  0.00  0.00     0.158 A 
ATOM      2  O   UNL d   1     -49.155  14.323  22.072  0.00  0.00    -0.302 OA
ATOM      3  C   UNL d   1     -49.643  14.790  23.221  0.00  0.00     0.032 A 
ATOM      4  C   UNL d   1     -48.528  14.431  22.585  0.00  0.00     0.107 A 
ATOM      5  C   UNL d   1     -48.825  14.721  23.300  0.00  0.00     0.027 A 
ENDROOT
BRANCH   1   6
ATOM      6  C   UNL d   1     -50.616  14.524  22.146  0.00  0.00     0.302 C 
ATOM      7  N   UNL d   1     -51.065  13.835  22.185  0.00  0.00    -0.206 NA
ATOM      8  O   UNL d   1     -50.925  15.200  21.798  0.00  0.00    -0.263 OA
BRANCH   7   9
ATOM      9  C   UNL d   1     -50.745  13.153  22.539  0.00  0.00     0.085 A 
ATOM     10  C   UNL d   1     -50.830  13.030  23.342  0.00  0.00     0.021 A 
ATOM     11  C   UNL d   1     -50.520  12.364  23.698  0.00  0.00     0.031 A 
ATOM     12  C   UNL d   1     -50.112  11.800  23.238  0.00  0.00     0.140 A 
ATOM     13  C   UNL d   1     -50.027  11.925  22.429  0.00  0.00     0.031 A 
ATOM     14  F   UNL d   1     -49.798  11.130  23.587  0.00  0.00    -0.204 F 
ATOM     15  C   UNL d   1     -50.343  12.601  22.075  0.00  0.00     0.021 A 
ENDBRANCH   7   9
ENDBRANCH   1   6
BRANCH   4  16
ATOM     16  C   UNL d   1     -47.731  14.280  22.427  0.00  0.00     0.060 C 
BRANCH  16  17
ATOM     17  S   UNL d   1     -47.230  14.043  23.035  0.00  0.00    -0.084 SA
BRANCH  17  18
ATOM     18  C   UNL d   1     -46.589  13.554  22.882  0.00  0.00     0.029 A 
ATOM     19  C   UNL d   1     -46.002  13.790  22.357  0.00  0.00     0.006 A 
ATOM     20  C   UNL d   1     -45.361  13.302  22.203  0.00  0.00     0.001 A 
ATOM     21  C   UNL d   1     -45.310  12.567  22.582  0.00  0.00     0.000 A 
ATOM     22  C   UNL d   1     -45.900  12.333  23.108  0.00  0.00     0.001 A 
ATOM     23  C   UNL d   1     -46.542  12.822  23.261  0.00  0.00     0.006 A 
ENDBRANCH  17  18
ENDBRANCH  16  17
ENDBRANCH   4  16
TORSDOF 5
ENDMDL
