MODEL 1
REMARK VINA RESULT:      -4.6      0.000      0.000
REMARK  4 active torsions:
REMARK  status: ('A' for Active; 'I' for Inactive)
REMARK    1  A    between atoms: C_8  and  N_1 
REMARK    2  A    between atoms: C_2  and  C_4 
REMARK       I    between atoms: C_4  and  N_5 
REMARK    3  A    between atoms: N_5  and  C_7 
REMARK    4  A    between atoms: O_19  and  C_14 
ROOT
ATOM      1  C   UNL d   1      58.266   0.331  31.019  0.00  0.00     0.108 A 
ATOM      2  C   UNL d   1      58.554   0.208  29.680  0.00  0.00     0.128 A 
ATOM      3  C   UNL d   1      58.009   0.171  30.262  0.00  0.00     0.045 A 
ATOM      4  C   UNL d   1      59.023   0.517  31.180  0.00  0.00     0.112 A 
ATOM      5  C   UNL d   1      59.302   0.385  29.782  0.00  0.00     0.026 A 
ATOM      6  C   UNL d   1      59.576   0.550  30.548  0.00  0.00     0.027 A 
ENDROOT
BRANCH   1   7
ATOM      7  N   UNL d   1      57.683   0.297  31.688  0.00  0.00    -0.206 NA
ATOM      8  C   UNL d   1      57.136  -0.336  31.696  0.00  0.00     0.285 C 
ATOM      9  O   UNL d   1      57.173  -0.886  31.083  0.00  0.00    -0.265 OA
BRANCH   8  10
ATOM     10  C   UNL d   1      56.569  -0.420  32.295  0.00  0.00     0.088 A 
ATOM     11  S   UNL d   1      56.275   0.150  32.818  0.00  0.00    -0.075 SA
ATOM     12  C   UNL d   1      55.713  -0.232  33.307  0.00  0.00     0.064 A 
ATOM     13 BR   UNL d   1      55.282   0.122  33.906  0.00  0.00    -0.042 Br
ATOM     14  C   UNL d   1      55.682  -1.037  33.061  0.00  0.00     0.014 A 
ATOM     15  C   UNL d   1      56.205  -1.117  32.455  0.00  0.00     0.012 A 
ENDBRANCH   8  10
ENDBRANCH   1   7
BRANCH   4  16
ATOM     16  O   UNL d   1      59.297   0.682  31.946  0.00  0.00    -0.327 OA
ATOM     17  C   UNL d   1      60.162   0.677  32.098  0.00  0.00     0.181 C 
ENDBRANCH   4  16
BRANCH   2  18
ATOM     18  N   UNL d   1      58.264   0.031  28.851  0.00  0.00    -0.114 N 
ATOM     19  O   UNL d   1      58.439  -0.727  28.472  0.00  0.00    -0.532 OA
ATOM     20  O   UNL d   1      57.818   0.626  28.456  0.00  0.00    -0.532 OA
ENDBRANCH   2  18
TORSDOF 4
ENDMDL
MODEL 2
REMARK VINA RESULT:      -3.7      1.782      2.373
REMARK  4 active torsions:
REMARK  status: ('A' for Active; 'I' for Inactive)
REMARK    1  A    between atoms: C_8  and  N_1 
REMARK    2  A    between atoms: C_2  and  C_4 
REMARK       I    between atoms: C_4  and  N_5 
REMARK    3  A    between atoms: N_5  and  C_7 
REMARK    4  A    between atoms: O_19  and  C_14 
ROOT
ATOM      1  C   UNL d   1      58.587  -0.997  29.663  0.00  0.00     0.108 A 
ATOM      2  C   UNL d   1      58.975  -2.172  29.063  0.00  0.00     0.128 A 
ATOM      3  C   UNL d   1      58.595  -1.813  29.666  0.00  0.00     0.045 A 
ATOM      4  C   UNL d   1      58.940  -0.570  29.090  0.00  0.00     0.112 A 
ATOM      5  C   UNL d   1      59.334  -1.805  28.481  0.00  0.00     0.026 A 
ATOM      6  C   UNL d   1      59.333  -0.974  28.467  0.00  0.00     0.027 A 
ENDROOT
BRANCH   1   7
ATOM      7  N   UNL d   1      58.172  -0.568  30.321  0.00  0.00    -0.206 NA
ATOM      8  C   UNL d   1      57.569  -0.976  30.732  0.00  0.00     0.285 C 
ATOM      9  O   UNL d   1      57.400  -1.750  30.501  0.00  0.00    -0.265 OA
BRANCH   8  10
ATOM     10  C   UNL d   1      57.147  -0.628  31.355  0.00  0.00     0.088 A 
ATOM     11  S   UNL d   1      56.686  -0.991  31.939  0.00  0.00    -0.075 SA
ATOM     12  C   UNL d   1      56.386  -0.382  32.428  0.00  0.00     0.064 A 
ATOM     13 BR   UNL d   1      55.901  -0.487  33.079  0.00  0.00    -0.042 Br
ATOM     14  C   UNL d   1      56.678   0.345  32.120  0.00  0.00     0.014 A 
ATOM     15  C   UNL d   1      57.129   0.165  31.480  0.00  0.00     0.012 A 
ENDBRANCH   8  10
ENDBRANCH   1   7
BRANCH   4  16
ATOM     16  O   UNL d   1      58.939   0.259  29.077  0.00  0.00    -0.327 OA
ATOM     17  C   UNL d   1      59.515   0.676  28.562  0.00  0.00     0.181 C 
ENDBRANCH   4  16
BRANCH   2  18
ATOM     18  N   UNL d   1      58.980  -3.068  29.073  0.00  0.00    -0.114 N 
ATOM     19  O   UNL d   1      58.323  -3.518  28.732  0.00  0.00    -0.532 OA
ATOM     20  O   UNL d   1      59.641  -3.453  29.422  0.00  0.00    -0.532 OA
ENDBRANCH   2  18
TORSDOF 4
ENDMDL
