MODEL 1
REMARK VINA RESULT:      -2.8      0.000      0.000
REMARK  7 active torsions:
REMARK  status: ('A' for Active; 'I' for Inactive)
REMARK    1  A    between atoms: C_19  and  N_1 
REMARK    2  A    between atoms: C_6  and  C_3 
REMARK    3  A    between atoms: C_9  and  C_6 
REMARK    4  A    between atoms: C_7  and  N_8 
REMARK       I    between atoms: N_8  and  C_11 
REMARK    5  A    between atoms: C_11  and  C_23 
REMARK    6  A    between atoms: C_22  and  C_19 
REMARK    7  A    between atoms: C_23  and  C_22 
ROOT
ATOM      1  C   UNL d   1     -42.211-122.127 -51.451  0.00  0.00     0.024 C 
ENDROOT
BRANCH   1   2
ATOM      2  C   UNL d   1     -41.502-122.152 -51.842  0.00  0.00     0.084 C 
BRANCH   2   3
ATOM      3  N   UNL d   1     -41.446-122.280 -52.656  0.00  0.00    -0.259 N 
ATOM      4  C   UNL d   1     -41.277-123.016 -53.008  0.00  0.00     0.153 A 
ATOM      5  S   UNL d   1     -41.274-122.892 -53.821  0.00  0.00    -0.053 SA
ATOM      6  S   UNL d   1     -41.139-123.733 -52.605  0.00  0.00    -0.052 SA
ATOM      7  C   UNL d   1     -41.433-122.114 -54.005  0.00  0.00     0.090 A 
ATOM      8  C   UNL d   1     -41.538-121.739 -53.283  0.00  0.00     0.272 A 
ATOM      9  O   UNL d   1     -41.716-120.914 -53.202  0.00  0.00    -0.266 OA
BRANCH   7  10
ATOM     10  C   UNL d   1     -41.478-121.773 -54.770  0.00  0.00     0.036 C 
BRANCH  10  11
ATOM     11  C   UNL d   1     -42.109-121.929 -55.269  0.00  0.00     0.101 A 
ATOM     12  O   UNL d   1     -42.838-122.336 -55.185  0.00  0.00    -0.305 OA
ATOM     13  C   UNL d   1     -43.234-122.288 -55.919  0.00  0.00     0.123 A 
ATOM     14  C   UNL d   1     -42.787-121.880 -56.432  0.00  0.00     0.029 A 
ATOM     15  C   UNL d   1     -42.098-121.655 -56.046  0.00  0.00     0.027 A 
ENDBRANCH  10  11
ENDBRANCH   7  10
ENDBRANCH   2   3
ENDBRANCH   1   2
BRANCH   1  16
ATOM     16  C   UNL d   1     -42.306-122.426 -50.668  0.00  0.00     0.064 C 
BRANCH  16  17
ATOM     17  C   UNL d   1     -43.009-122.383 -50.270  0.00  0.00     0.279 C 
ATOM     18  N   UNL d   1     -43.088-122.697 -49.511  0.00  0.00    -0.208 NA
ATOM     19  O   UNL d   1     -43.665-122.019 -50.630  0.00  0.00    -0.265 OA
BRANCH  18  20
ATOM     20  C   UNL d   1     -42.426-123.068 -49.144  0.00  0.00     0.085 A 
ATOM     21  C   UNL d   1     -42.360-123.039 -48.327  0.00  0.00     0.018 A 
ATOM     22  C   UNL d   1     -41.712-123.400 -47.953  0.00  0.00     0.002 A 
ATOM     23  C   UNL d   1     -42.936-122.652 -47.881  0.00  0.00     0.002 A 
ATOM     24  C   UNL d   1     -41.641-123.374 -47.140  0.00  0.00     0.000 A 
ATOM     25  C   UNL d   1     -41.131-123.791 -48.411  0.00  0.00     0.000 A 
ATOM     26  C   UNL d   1     -42.212-122.989 -46.677  0.00  0.00     0.000 A 
ATOM     27  C   UNL d   1     -42.867-122.624 -47.053  0.00  0.00     0.000 A 
ATOM     28  C   UNL d   1     -41.199-123.817 -49.219  0.00  0.00     0.002 A 
ATOM     29  C   UNL d   1     -41.849-123.455 -49.589  0.00  0.00     0.019 A 
ENDBRANCH  18  20
ENDBRANCH  16  17
ENDBRANCH   1  16
TORSDOF 7
ENDMDL
