MODEL 1
REMARK VINA RESULT:      -8.7      0.000      0.000
REMARK  7 active torsions:
REMARK  status: ('A' for Active; 'I' for Inactive)
REMARK    1  A    between atoms: C_3  and  S_1 
REMARK    2  A    between atoms: N_4  and  S_1 
REMARK    3  A    between atoms: C_6  and  C_2 
REMARK       I    between atoms: N_13  and  C_6 
REMARK    4  A    between atoms: C_17  and  N_13 
REMARK    5  A    between atoms: C_18  and  C_17 
REMARK    6  A    between atoms: C_20  and  C_18 
REMARK    7  A    between atoms: C_19  and  C_20 
ROOT
ATOM      1  C   UNL d   1      51.995  33.966  52.794  0.00  0.00     0.086 A 
ATOM      2  C   UNL d   1      52.809  32.853  53.187  0.00  0.00     0.104 A 
ATOM      3  C   UNL d   1      52.108  33.147  52.867  0.00  0.00     0.020 A 
ATOM      4  C   UNL d   1      52.584  34.486  53.040  0.00  0.00     0.145 A 
ATOM      5  C   UNL d   1      53.404  33.377  53.436  0.00  0.00     0.015 A 
ATOM      6  C   UNL d   1      53.292  34.186  53.363  0.00  0.00     0.030 A 
ATOM      7  F   UNL d   1      52.481  35.297  52.972  0.00  0.00    -0.204 F 
ENDROOT
BRANCH   2   8
ATOM      8  S   UNL d   1      52.923  32.031  53.260  0.00  0.00     0.271 S 
ATOM      9  O   UNL d   1      52.987  32.127  54.082  0.00  0.00    -0.200 OA
ATOM     10  O   UNL d   1      52.857  31.949  52.442  0.00  0.00    -0.200 OA
BRANCH   8  11
ATOM     11  N   UNL d   1      53.036  31.221  53.343  0.00  0.00    -0.229 N 
ATOM     12  C   UNL d   1      53.660  30.941  53.801  0.00  0.00     0.092 A 
ATOM     13  C   UNL d   1      53.769  30.128  53.880  0.00  0.00     0.020 A 
ATOM     14  C   UNL d   1      53.264  29.600  53.510  0.00  0.00     0.003 A 
ATOM     15  C   UNL d   1      52.638  29.885  53.051  0.00  0.00     0.020 A 
ATOM     16  C   UNL d   1      52.525  30.700  52.968  0.00  0.00     0.092 A 
ENDBRANCH   8  11
ENDBRANCH   2   8
BRANCH   1  17
ATOM     17  C   UNL d   1      51.290  34.256  52.473  0.00  0.00     0.281 C 
ATOM     18  O   UNL d   1      51.241  34.388  51.657  0.00  0.00    -0.265 OA
ATOM     19  N   UNL d   1      50.644  34.413  52.956  0.00  0.00    -0.206 NA
BRANCH  19  20
ATOM     20  C   UNL d   1      49.939  34.704  52.637  0.00  0.00     0.102 C 
BRANCH  20  21
ATOM     21  C   UNL d   1      49.358  35.016  53.126  0.00  0.00     0.021 C 
BRANCH  21  22
ATOM     22  C   UNL d   1      48.704  35.387  52.796  0.00  0.00     0.002 C 
BRANCH  22  23
ATOM     23  C   UNL d   1      48.245  35.902  53.253  0.00  0.00     0.000 C 
ATOM     24  C   UNL d   1      47.566  36.241  52.938  0.00  0.00     0.000 C 
ENDBRANCH  22  23
ENDBRANCH  21  22
ENDBRANCH  20  21
ENDBRANCH  19  20
ENDBRANCH   1  17
TORSDOF 7
ENDMDL
MODEL 2
REMARK VINA RESULT:      -8.6      1.336      4.808
REMARK  7 active torsions:
REMARK  status: ('A' for Active; 'I' for Inactive)
REMARK    1  A    between atoms: C_3  and  S_1 
REMARK    2  A    between atoms: N_4  and  S_1 
REMARK    3  A    between atoms: C_6  and  C_2 
REMARK       I    between atoms: N_13  and  C_6 
REMARK    4  A    between atoms: C_17  and  N_13 
REMARK    5  A    between atoms: C_18  and  C_17 
REMARK    6  A    between atoms: C_20  and  C_18 
REMARK    7  A    between atoms: C_19  and  C_20 
ROOT
ATOM      1  C   UNL d   1      53.415  33.099  53.694  0.00  0.00     0.086 A 
ATOM      2  C   UNL d   1      52.317  33.977  53.413  0.00  0.00     0.104 A 
ATOM      3  C   UNL d   1      52.704  33.259  53.297  0.00  0.00     0.020 A 
ATOM      4  C   UNL d   1      53.735  33.660  54.205  0.00  0.00     0.145 A 
ATOM      5  C   UNL d   1      52.639  34.543  53.929  0.00  0.00     0.015 A 
ATOM      6  C   UNL d   1      53.342  34.386  54.321  0.00  0.00     0.030 A 
ATOM      7  F   UNL d   1      54.438  33.511  54.601  0.00  0.00    -0.204 F 
ENDROOT
BRANCH   2   8
ATOM      8  S   UNL d   1      51.603  34.137  53.015  0.00  0.00     0.271 S 
ATOM      9  O   UNL d   1      51.199  33.694  53.589  0.00  0.00    -0.200 OA
ATOM     10  O   UNL d   1      52.016  34.575  52.451  0.00  0.00    -0.200 OA
BRANCH   8  11
ATOM     11  N   UNL d   1      50.893  34.290  52.629  0.00  0.00    -0.229 N 
ATOM     12  C   UNL d   1      50.256  34.594  53.052  0.00  0.00     0.092 A 
ATOM     13  C   UNL d   1      49.547  34.745  52.661  0.00  0.00     0.020 A 
ATOM     14  C   UNL d   1      49.472  34.596  51.859  0.00  0.00     0.003 A 
ATOM     15  C   UNL d   1      50.114  34.291  51.437  0.00  0.00     0.020 A 
ATOM     16  C   UNL d   1      50.828  34.137  51.826  0.00  0.00     0.092 A 
ENDBRANCH   8  11
ENDBRANCH   2   8
BRANCH   1  17
ATOM     17  C   UNL d   1      53.800  32.377  53.573  0.00  0.00     0.281 C 
ATOM     18  O   UNL d   1      54.582  32.376  53.299  0.00  0.00    -0.265 OA
ATOM     19  N   UNL d   1      53.414  31.667  53.723  0.00  0.00    -0.206 NA
BRANCH  19  20
ATOM     20  C   UNL d   1      53.797  30.944  53.604  0.00  0.00     0.102 C 
BRANCH  20  21
ATOM     21  C   UNL d   1      53.386  30.238  53.682  0.00  0.00     0.021 C 
BRANCH  21  22
ATOM     22  C   UNL d   1      53.719  29.619  54.108  0.00  0.00     0.002 C 
BRANCH  22  23
ATOM     23  C   UNL d   1      53.259  28.961  54.309  0.00  0.00     0.000 C 
ATOM     24  C   UNL d   1      53.401  28.555  55.009  0.00  0.00     0.000 C 
ENDBRANCH  22  23
ENDBRANCH  21  22
ENDBRANCH  20  21
ENDBRANCH  19  20
ENDBRANCH   1  17
TORSDOF 7
ENDMDL
MODEL 3
REMARK VINA RESULT:      -7.4      1.770      2.317
REMARK  7 active torsions:
REMARK  status: ('A' for Active; 'I' for Inactive)
REMARK    1  A    between atoms: C_3  and  S_1 
REMARK    2  A    between atoms: N_4  and  S_1 
REMARK    3  A    between atoms: C_6  and  C_2 
REMARK       I    between atoms: N_13  and  C_6 
REMARK    4  A    between atoms: C_17  and  N_13 
REMARK    5  A    between atoms: C_18  and  C_17 
REMARK    6  A    between atoms: C_20  and  C_18 
REMARK    7  A    between atoms: C_19  and  C_20 
ROOT
ATOM      1  C   UNL d   1      50.923  34.243  52.682  0.00  0.00     0.086 A 
ATOM      2  C   UNL d   1      52.273  33.972  53.083  0.00  0.00     0.104 A 
ATOM      3  C   UNL d   1      51.477  34.070  53.275  0.00  0.00     0.020 A 
ATOM      4  C   UNL d   1      51.168  34.318  51.900  0.00  0.00     0.145 A 
ATOM      5  C   UNL d   1      52.521  34.046  52.294  0.00  0.00     0.015 A 
ATOM      6  C   UNL d   1      51.973  34.218  51.708  0.00  0.00     0.030 A 
ATOM      7  F   UNL d   1      50.628  34.489  51.307  0.00  0.00    -0.204 F 
ENDROOT
BRANCH   2   8
ATOM      8  S   UNL d   1      52.829  33.797  53.678  0.00  0.00     0.271 S 
ATOM      9  O   UNL d   1      52.692  32.988  53.551  0.00  0.00    -0.200 OA
ATOM     10  O   UNL d   1      52.956  34.604  53.795  0.00  0.00    -0.200 OA
BRANCH   8  11
ATOM     11  N   UNL d   1      53.376  33.616  54.264  0.00  0.00    -0.229 N 
ATOM     12  C   UNL d   1      53.546  32.828  54.433  0.00  0.00     0.092 A 
ATOM     13  C   UNL d   1      54.095  32.651  55.021  0.00  0.00     0.020 A 
ATOM     14  C   UNL d   1      54.470  33.249  55.436  0.00  0.00     0.003 A 
ATOM     15  C   UNL d   1      54.296  34.039  55.265  0.00  0.00     0.020 A 
ATOM     16  C   UNL d   1      53.746  34.221  54.675  0.00  0.00     0.092 A 
ENDBRANCH   8  11
ENDBRANCH   2   8
BRANCH   1  17
ATOM     17  C   UNL d   1      50.126  34.341  52.880  0.00  0.00     0.281 C 
ATOM     18  O   UNL d   1      49.626  33.680  52.883  0.00  0.00    -0.265 OA
ATOM     19  N   UNL d   1      49.829  35.083  53.072  0.00  0.00    -0.206 NA
BRANCH  19  20
ATOM     20  C   UNL d   1      49.033  35.183  53.270  0.00  0.00     0.102 C 
BRANCH  20  21
ATOM     21  C   UNL d   1      48.753  35.915  53.515  0.00  0.00     0.021 C 
BRANCH  21  22
ATOM     22  C   UNL d   1      47.944  36.045  53.563  0.00  0.00     0.002 C 
BRANCH  22  23
ATOM     23  C   UNL d   1      47.651  36.653  54.042  0.00  0.00     0.000 C 
ATOM     24  C   UNL d   1      46.845  36.706  54.195  0.00  0.00     0.000 C 
ENDBRANCH  22  23
ENDBRANCH  21  22
ENDBRANCH  20  21
ENDBRANCH  19  20
ENDBRANCH   1  17
TORSDOF 7
ENDMDL
MODEL 4
REMARK VINA RESULT:      -6.9      1.544      2.327
REMARK  7 active torsions:
REMARK  status: ('A' for Active; 'I' for Inactive)
REMARK    1  A    between atoms: C_3  and  S_1 
REMARK    2  A    between atoms: N_4  and  S_1 
REMARK    3  A    between atoms: C_6  and  C_2 
REMARK       I    between atoms: N_13  and  C_6 
REMARK    4  A    between atoms: C_17  and  N_13 
REMARK    5  A    between atoms: C_18  and  C_17 
REMARK    6  A    between atoms: C_20  and  C_18 
REMARK    7  A    between atoms: C_19  and  C_20 
ROOT
ATOM      1  C   UNL d   1      51.412  33.455  52.971  0.00  0.00     0.086 A 
ATOM      2  C   UNL d   1      52.624  33.034  53.612  0.00  0.00     0.104 A 
ATOM      3  C   UNL d   1      52.140  33.637  53.326  0.00  0.00     0.020 A 
ATOM      4  C   UNL d   1      51.172  32.670  52.905  0.00  0.00     0.145 A 
ATOM      5  C   UNL d   1      52.383  32.242  53.546  0.00  0.00     0.015 A 
ATOM      6  C   UNL d   1      51.663  32.062  53.196  0.00  0.00     0.030 A 
ATOM      7  F   UNL d   1      50.455  32.480  52.557  0.00  0.00    -0.204 F 
ENDROOT
BRANCH   2   8
ATOM      8  S   UNL d   1      53.355  33.217  53.967  0.00  0.00     0.271 S 
ATOM      9  O   UNL d   1      52.947  33.460  54.649  0.00  0.00    -0.200 OA
ATOM     10  O   UNL d   1      53.748  32.973  53.285  0.00  0.00    -0.200 OA
BRANCH   8  11
ATOM     11  N   UNL d   1      54.071  33.401  54.327  0.00  0.00    -0.229 N 
ATOM     12  C   UNL d   1      54.091  33.571  55.132  0.00  0.00     0.092 A 
ATOM     13  C   UNL d   1      54.812  33.755  55.487  0.00  0.00     0.020 A 
ATOM     14  C   UNL d   1      55.503  33.769  55.048  0.00  0.00     0.003 A 
ATOM     15  C   UNL d   1      55.478  33.598  54.240  0.00  0.00     0.020 A 
ATOM     16  C   UNL d   1      54.758  33.413  53.878  0.00  0.00     0.092 A 
ENDBRANCH   8  11
ENDBRANCH   2   8
BRANCH   1  17
ATOM     17  C   UNL d   1      50.930  34.063  52.685  0.00  0.00     0.281 C 
ATOM     18  O   UNL d   1      51.098  34.400  51.948  0.00  0.00    -0.265 OA
ATOM     19  N   UNL d   1      50.290  34.333  53.126  0.00  0.00    -0.206 NA
BRANCH  19  20
ATOM     20  C   UNL d   1      49.808  34.941  52.842  0.00  0.00     0.102 C 
BRANCH  20  21
ATOM     21  C   UNL d   1      49.229  35.271  53.322  0.00  0.00     0.021 C 
BRANCH  21  22
ATOM     22  C   UNL d   1      48.582  35.645  52.980  0.00  0.00     0.002 C 
BRANCH  22  23
ATOM     23  C   UNL d   1      48.099  36.136  53.438  0.00  0.00     0.000 C 
ATOM     24  C   UNL d   1      47.552  36.632  53.076  0.00  0.00     0.000 C 
ENDBRANCH  22  23
ENDBRANCH  21  22
ENDBRANCH  20  21
ENDBRANCH  19  20
ENDBRANCH   1  17
TORSDOF 7
ENDMDL
MODEL 5
REMARK VINA RESULT:      -6.2      2.348      5.468
REMARK  7 active torsions:
REMARK  status: ('A' for Active; 'I' for Inactive)
REMARK    1  A    between atoms: C_3  and  S_1 
REMARK    2  A    between atoms: N_4  and  S_1 
REMARK    3  A    between atoms: C_6  and  C_2 
REMARK       I    between atoms: N_13  and  C_6 
REMARK    4  A    between atoms: C_17  and  N_13 
REMARK    5  A    between atoms: C_18  and  C_17 
REMARK    6  A    between atoms: C_20  and  C_18 
REMARK    7  A    between atoms: C_19  and  C_20 
ROOT
ATOM      1  C   UNL d   1      50.718  34.032  52.762  0.00  0.00     0.086 A 
ATOM      2  C   UNL d   1      49.575  34.856  52.495  0.00  0.00     0.104 A 
ATOM      3  C   UNL d   1      50.074  34.480  53.033  0.00  0.00     0.020 A 
ATOM      4  C   UNL d   1      50.858  33.961  51.954  0.00  0.00     0.145 A 
ATOM      5  C   UNL d   1      49.716  34.785  51.680  0.00  0.00     0.015 A 
ATOM      6  C   UNL d   1      50.352  34.342  51.412  0.00  0.00     0.030 A 
ATOM      7  F   UNL d   1      51.491  33.520  51.677  0.00  0.00    -0.204 F 
ENDROOT
BRANCH   2   8
ATOM      8  S   UNL d   1      48.929  35.306  52.768  0.00  0.00     0.271 S 
ATOM      9  O   UNL d   1      48.460  34.969  52.172  0.00  0.00    -0.200 OA
ATOM     10  O   UNL d   1      49.406  35.634  53.356  0.00  0.00    -0.200 OA
BRANCH   8  11
ATOM     11  N   UNL d   1      48.286  35.747  53.029  0.00  0.00    -0.229 N 
ATOM     12  C   UNL d   1      48.281  36.043  53.797  0.00  0.00     0.092 A 
ATOM     13  C   UNL d   1      47.634  36.484  54.055  0.00  0.00     0.020 A 
ATOM     14  C   UNL d   1      47.001  36.628  53.555  0.00  0.00     0.003 A 
ATOM     15  C   UNL d   1      47.010  36.329  52.785  0.00  0.00     0.020 A 
ATOM     16  C   UNL d   1      47.657  35.886  52.522  0.00  0.00     0.092 A 
ENDBRANCH   8  11
ENDBRANCH   2   8
BRANCH   1  17
ATOM     17  C   UNL d   1      51.216  33.657  53.306  0.00  0.00     0.281 C 
ATOM     18  O   UNL d   1      50.999  32.918  53.611  0.00  0.00    -0.265 OA
ATOM     19  N   UNL d   1      51.919  34.011  53.543  0.00  0.00    -0.206 NA
BRANCH  19  20
ATOM     20  C   UNL d   1      52.417  33.637  54.086  0.00  0.00     0.102 C 
BRANCH  20  21
ATOM     21  C   UNL d   1      53.115  33.998  54.327  0.00  0.00     0.021 C 
BRANCH  21  22
ATOM     22  C   UNL d   1      53.774  33.538  54.493  0.00  0.00     0.002 C 
BRANCH  22  23
ATOM     23  C   UNL d   1      54.260  33.726  55.136  0.00  0.00     0.000 C 
ATOM     24  C   UNL d   1      55.077  33.674  55.067  0.00  0.00     0.000 C 
ENDBRANCH  22  23
ENDBRANCH  21  22
ENDBRANCH  20  21
ENDBRANCH  19  20
ENDBRANCH   1  17
TORSDOF 7
ENDMDL
MODEL 6
REMARK VINA RESULT:      -5.8      2.197      3.673
REMARK  7 active torsions:
REMARK  status: ('A' for Active; 'I' for Inactive)
REMARK    1  A    between atoms: C_3  and  S_1 
REMARK    2  A    between atoms: N_4  and  S_1 
REMARK    3  A    between atoms: C_6  and  C_2 
REMARK       I    between atoms: N_13  and  C_6 
REMARK    4  A    between atoms: C_17  and  N_13 
REMARK    5  A    between atoms: C_18  and  C_17 
REMARK    6  A    between atoms: C_20  and  C_18 
REMARK    7  A    between atoms: C_19  and  C_20 
ROOT
ATOM      1  C   UNL d   1      48.738  35.353  52.574  0.00  0.00     0.086 A 
ATOM      2  C   UNL d   1      49.907  34.535  52.428  0.00  0.00     0.104 A 
ATOM      3  C   UNL d   1      49.467  35.080  52.863  0.00  0.00     0.020 A 
ATOM      4  C   UNL d   1      48.454  35.080  51.852  0.00  0.00     0.145 A 
ATOM      5  C   UNL d   1      49.621  34.259  51.699  0.00  0.00     0.015 A 
ATOM      6  C   UNL d   1      48.901  34.529  51.413  0.00  0.00     0.030 A 
ATOM      7  F   UNL d   1      47.735  35.344  51.558  0.00  0.00    -0.204 F 
ENDROOT
BRANCH   2   8
ATOM      8  S   UNL d   1      50.638  34.261  52.718  0.00  0.00     0.271 S 
ATOM      9  O   UNL d   1      50.247  33.971  53.390  0.00  0.00    -0.200 OA
ATOM     10  O   UNL d   1      51.015  34.554  52.045  0.00  0.00    -0.200 OA
BRANCH   8  11
ATOM     11  N   UNL d   1      51.355  33.987  53.012  0.00  0.00    -0.229 N 
ATOM     12  C   UNL d   1      51.943  34.525  53.220  0.00  0.00     0.092 A 
ATOM     13  C   UNL d   1      52.660  34.245  53.515  0.00  0.00     0.020 A 
ATOM     14  C   UNL d   1      52.791  33.441  53.602  0.00  0.00     0.003 A 
ATOM     15  C   UNL d   1      52.198  32.905  53.392  0.00  0.00     0.020 A 
ATOM     16  C   UNL d   1      51.477  33.180  53.096  0.00  0.00     0.092 A 
ENDBRANCH   8  11
ENDBRANCH   2   8
BRANCH   1  17
ATOM     17  C   UNL d   1      48.300  35.900  53.014  0.00  0.00     0.281 C 
ATOM     18  O   UNL d   1      48.425  36.709  52.893  0.00  0.00    -0.265 OA
ATOM     19  N   UNL d   1      47.747  35.645  53.567  0.00  0.00    -0.206 NA
BRANCH  19  20
ATOM     20  C   UNL d   1      47.309  36.190  54.008  0.00  0.00     0.102 C 
BRANCH  20  21
ATOM     21  C   UNL d   1      46.722  35.934  54.521  0.00  0.00     0.021 C 
BRANCH  21  22
ATOM     22  C   UNL d   1      46.219  36.482  54.870  0.00  0.00     0.002 C 
BRANCH  22  23
ATOM     23  C   UNL d   1      45.465  36.251  55.121  0.00  0.00     0.000 C 
ATOM     24  C   UNL d   1      45.116  36.615  55.770  0.00  0.00     0.000 C 
ENDBRANCH  22  23
ENDBRANCH  21  22
ENDBRANCH  20  21
ENDBRANCH  19  20
ENDBRANCH   1  17
TORSDOF 7
ENDMDL
