MODEL 1
REMARK VINA RESULT:       2.6      0.000      0.000
REMARK  5 active torsions:
REMARK  status: ('A' for Active; 'I' for Inactive)
REMARK    1  A    between atoms: N_9  and  C_3 
REMARK    2  A    between atoms: C_13  and  C_5 
REMARK    3  A    between atoms: C_12  and  N_10 
REMARK    4  A    between atoms: C_20  and  C_11 
REMARK    5  A    between atoms: C_25  and  C_20 
ROOT
ATOM      1  N   UNL d   1      58.015  -0.047  31.143  0.00  0.00    -0.196 N 
ATOM      2  C   UNL d   1      58.673  -0.115  30.650  0.00  0.00     0.167 A 
ATOM      3  C   UNL d   1      58.121   0.259  31.881  0.00  0.00     0.152 A 
ATOM      4  N   UNL d   1      57.204  -0.589  30.138  0.00  0.00    -0.163 NA
ATOM      5  C   UNL d   1      58.590  -0.416  29.914  0.00  0.00     0.055 A 
ATOM      6  C   UNL d   1      57.861  -0.657  29.644  0.00  0.00     0.104 A 
ATOM      7  N   UNL d   1      59.401   0.126  30.920  0.00  0.00    -0.227 NA
ATOM      8  C   UNL d   1      58.832   0.498  32.155  0.00  0.00     0.057 A 
ATOM      9  C   UNL d   1      59.489   0.429  31.661  0.00  0.00     0.086 A 
ATOM     10  C   UNL d   1      57.770  -0.961  28.906  0.00  0.00     0.023 C 
ENDROOT
BRANCH   3  11
ATOM     11  N   UNL d   1      57.443   0.330  32.391  0.00  0.00    -0.286 N 
ATOM     12  C   UNL d   1      56.675   0.142  32.104  0.00  0.00     0.101 A 
ATOM     13  C   UNL d   1      55.997   0.212  32.614  0.00  0.00     0.101 A 
ATOM     14  N   UNL d   1      56.088   0.471  33.409  0.00  0.00    -0.286 N 
ATOM     15  C   UNL d   1      56.866   0.665  33.708  0.00  0.00     0.101 A 
ATOM     16  C   UNL d   1      57.544   0.594  33.199  0.00  0.00     0.101 A 
BRANCH  14  17
ATOM     17  C   UNL d   1      55.413   0.542  33.916  0.00  0.00     0.148 A 
ATOM     18  N   UNL d   1      55.524   0.540  34.761  0.00  0.00    -0.227 NA
ATOM     19  C   UNL d   1      54.850   0.611  35.267  0.00  0.00     0.101 A 
ATOM     20  C   UNL d   1      54.068   0.682  34.926  0.00  0.00     0.021 A 
ATOM     21  C   UNL d   1      53.970   0.682  34.093  0.00  0.00     0.005 A 
ATOM     22  C   UNL d   1      54.647   0.611  33.584  0.00  0.00     0.037 A 
ENDBRANCH  14  17
ENDBRANCH   3  11
BRANCH   9  23
ATOM     23  C   UNL d   1      60.250   0.679  31.936  0.00  0.00     0.019 C 
BRANCH  23  24
ATOM     24  C   UNL d   1      60.698   0.194  32.478  0.00  0.00     0.002 C 
ATOM     25  C   UNL d   1      61.117   0.545  33.115  0.00  0.00     0.000 C 
ENDBRANCH  23  24
ENDBRANCH   9  23
BRANCH   5  26
ATOM     26  C   UNL d   1      59.237  -0.484  29.428  0.00  0.00     0.004 A 
ATOM     27  C   UNL d   1      59.467   0.154  28.978  0.00  0.00     0.000 A 
ATOM     28  C   UNL d   1      60.124   0.086  28.484  0.00  0.00     0.000 A 
ATOM     29  C   UNL d   1      60.531  -0.618  28.456  0.00  0.00     0.000 A 
ATOM     30  C   UNL d   1      60.291  -1.252  28.913  0.00  0.00     0.000 A 
ATOM     31  C   UNL d   1      59.644  -1.184  29.399  0.00  0.00     0.000 A 
ENDBRANCH   5  26
TORSDOF 5
ENDMDL
MODEL 2
REMARK VINA RESULT:       3.6      0.984      2.295
REMARK  5 active torsions:
REMARK  status: ('A' for Active; 'I' for Inactive)
REMARK    1  A    between atoms: N_9  and  C_3 
REMARK    2  A    between atoms: C_13  and  C_5 
REMARK    3  A    between atoms: C_12  and  N_10 
REMARK    4  A    between atoms: C_20  and  C_11 
REMARK    5  A    between atoms: C_25  and  C_20 
ROOT
ATOM      1  N   UNL d   1      58.296  -0.322  31.193  0.00  0.00    -0.196 N 
ATOM      2  C   UNL d   1      58.787  -0.540  30.566  0.00  0.00     0.167 A 
ATOM      3  C   UNL d   1      57.570  -0.667  31.248  0.00  0.00     0.152 A 
ATOM      4  N   UNL d   1      59.281   0.560  31.657  0.00  0.00    -0.163 NA
ATOM      5  C   UNL d   1      59.511  -0.210  30.493  0.00  0.00     0.055 A 
ATOM      6  C   UNL d   1      59.772   0.341  31.031  0.00  0.00     0.104 A 
ATOM      7  N   UNL d   1      58.526  -1.092  30.029  0.00  0.00    -0.227 NA
ATOM      8  C   UNL d   1      57.306  -1.209  30.726  0.00  0.00     0.057 A 
ATOM      9  C   UNL d   1      57.797  -1.427  30.099  0.00  0.00     0.086 A 
ATOM     10  C   UNL d   1      60.499   0.677  30.963  0.00  0.00     0.023 C 
ENDROOT
BRANCH   3  11
ATOM     11  N   UNL d   1      57.064  -0.442  31.895  0.00  0.00    -0.286 N 
ATOM     12  C   UNL d   1      56.286  -0.158  31.746  0.00  0.00     0.101 A 
ATOM     13  C   UNL d   1      55.780   0.067  32.392  0.00  0.00     0.101 A 
ATOM     14  N   UNL d   1      56.052   0.009  33.186  0.00  0.00    -0.286 N 
ATOM     15  C   UNL d   1      56.843  -0.279  33.345  0.00  0.00     0.101 A 
ATOM     16  C   UNL d   1      57.349  -0.504  32.699  0.00  0.00     0.101 A 
BRANCH  14  17
ATOM     17  C   UNL d   1      55.549   0.233  33.829  0.00  0.00     0.148 A 
ATOM     18  N   UNL d   1      54.731   0.415  33.674  0.00  0.00    -0.227 NA
ATOM     19  C   UNL d   1      54.228   0.639  34.316  0.00  0.00     0.101 A 
ATOM     20  C   UNL d   1      54.545   0.679  35.110  0.00  0.00     0.021 A 
ATOM     21  C   UNL d   1      55.352   0.497  35.251  0.00  0.00     0.005 A 
ATOM     22  C   UNL d   1      55.857   0.272  34.606  0.00  0.00     0.037 A 
ENDBRANCH  14  17
ENDBRANCH   3  11
BRANCH   9  23
ATOM     23  C   UNL d   1      57.530  -2.001  29.536  0.00  0.00     0.019 C 
BRANCH  23  24
ATOM     24  C   UNL d   1      57.973  -2.719  29.404  0.00  0.00     0.002 C 
ATOM     25  C   UNL d   1      57.992  -3.072  28.643  0.00  0.00     0.000 C 
ENDBRANCH  23  24
ENDBRANCH   9  23
BRANCH   5  26
ATOM     26  C   UNL d   1      59.994  -0.425  29.876  0.00  0.00     0.004 A 
ATOM     27  C   UNL d   1      60.637  -0.903  30.020  0.00  0.00     0.000 A 
ATOM     28  C   UNL d   1      61.128  -1.121  29.394  0.00  0.00     0.000 A 
ATOM     29  C   UNL d   1      60.960  -0.855  28.644  0.00  0.00     0.000 A 
ATOM     30  C   UNL d   1      60.311  -0.376  28.512  0.00  0.00     0.000 A 
ATOM     31  C   UNL d   1      59.828  -0.161  29.128  0.00  0.00     0.000 A 
ENDBRANCH   5  26
TORSDOF 5
ENDMDL
