MODEL 1
REMARK VINA RESULT:      20.6      0.000      0.000
REMARK  2 active torsions:
REMARK  status: ('A' for Active; 'I' for Inactive)
REMARK    1  A    between atoms: C_7  and  C_1 
REMARK    2  A    between atoms: C_8  and  C_7 
ROOT
ATOM      1  C   UNL d   1     -58.230 -98.773 -44.251  0.00  0.00     0.033 A 
ATOM      2  C   UNL d   1     -57.190 -98.783 -45.078  0.00  0.00     0.100 A 
ATOM      3  C   UNL d   1     -57.406 -98.782 -44.284  0.00  0.00     0.025 A 
ATOM      4  O   UNL d   1     -57.877 -98.775 -45.534  0.00  0.00    -0.305 OA
ATOM      5  C   UNL d   1     -58.519 -98.769 -45.018  0.00  0.00     0.123 A 
ATOM      6  C   UNL d   1     -56.829 -98.789 -43.705  0.00  0.00     0.002 A 
ATOM      7  C   UNL d   1     -56.389 -98.791 -45.299  0.00  0.00     0.025 A 
ATOM      8  C   UNL d   1     -56.029 -98.797 -43.912  0.00  0.00     0.000 A 
ATOM      9  C   UNL d   1     -55.809 -98.798 -44.712  0.00  0.00     0.002 A 
ATOM     10  C   UNL d   1     -57.048 -98.787 -42.902  0.00  0.00     0.000 C 
ATOM     11  C   UNL d   1     -55.009 -98.807 -44.920  0.00  0.00     0.000 C 
ENDROOT
BRANCH   1  12
ATOM     12  C   UNL d   1     -58.680 -98.769 -43.561  0.00  0.00     0.072 C 
BRANCH  12  13
ATOM     13  C   UNL d   1     -59.502 -98.862 -43.602  0.00  0.00     0.211 C 
ATOM     14  O   UNL d   1     -59.896 -98.760 -44.327  0.00  0.00    -0.644 OA
ATOM     15  O   UNL d   1     -59.929 -99.055 -42.923  0.00  0.00    -0.644 OA
ENDBRANCH  12  13
ENDBRANCH   1  12
TORSDOF 2
ENDMDL
MODEL 2
REMARK VINA RESULT:      21.9      1.446      2.976
REMARK  2 active torsions:
REMARK  status: ('A' for Active; 'I' for Inactive)
REMARK    1  A    between atoms: C_7  and  C_1 
REMARK    2  A    between atoms: C_8  and  C_7 
ROOT
ATOM      1  C   UNL d   1     -56.672 -98.757 -44.791  0.00  0.00     0.033 A 
ATOM      2  C   UNL d   1     -57.842 -98.757 -45.422  0.00  0.00     0.100 A 
ATOM      3  C   UNL d   1     -57.489 -98.757 -44.678  0.00  0.00     0.025 A 
ATOM      4  O   UNL d   1     -57.245 -98.758 -45.991  0.00  0.00    -0.305 OA
ATOM      5  C   UNL d   1     -56.522 -98.757 -45.596  0.00  0.00     0.123 A 
ATOM      6  C   UNL d   1     -57.956 -98.756 -44.006  0.00  0.00     0.002 A 
ATOM      7  C   UNL d   1     -58.669 -98.758 -45.499  0.00  0.00     0.025 A 
ATOM      8  C   UNL d   1     -58.780 -98.757 -44.070  0.00  0.00     0.000 A 
ATOM      9  C   UNL d   1     -59.137 -98.757 -44.819  0.00  0.00     0.002 A 
ATOM     10  C   UNL d   1     -57.600 -98.756 -43.255  0.00  0.00     0.000 C 
ATOM     11  C   UNL d   1     -59.961 -98.757 -44.883  0.00  0.00     0.000 C 
ENDROOT
BRANCH   1  12
ATOM     12  C   UNL d   1     -56.108 -98.756 -44.190  0.00  0.00     0.072 C 
BRANCH  12  13
ATOM     13  C   UNL d   1     -55.392 -99.159 -44.294  0.00  0.00     0.211 C 
ATOM     14  O   UNL d   1     -54.764 -98.793 -44.697  0.00  0.00    -0.644 OA
ATOM     15  O   UNL d   1     -55.303 -99.924 -43.998  0.00  0.00    -0.644 OA
ENDBRANCH  12  13
ENDBRANCH   1  12
TORSDOF 2
ENDMDL
