MODEL 1
REMARK VINA RESULT:      -8.6      0.000      0.000
REMARK  4 active torsions:
REMARK  status: ('A' for Active; 'I' for Inactive)
REMARK    1  A    between atoms: C_6  and  C_1 
REMARK    2  A    between atoms: C_7  and  C_4 
REMARK    3  A    between atoms: O_10  and  C_6 
REMARK    4  A    between atoms: O_12  and  C_11 
ROOT
ATOM      1  C   UNL d   1      53.142  30.759  53.412  0.00  0.00     0.173 A 
ATOM      2  N   UNL d   1      53.008  31.186  52.716  0.00  0.00    -0.121 NA
ATOM      3  C   UNL d   1      53.428  31.284  53.981  0.00  0.00     0.054 A 
ATOM      4  C   UNL d   1      53.472  32.038  53.638  0.00  0.00     0.127 A 
ATOM      5  O   UNL d   1      53.212  31.972  52.856  0.00  0.00    -0.211 OA
ENDROOT
BRANCH   4   6
ATOM      6  C   UNL d   1      53.731  32.725  54.015  0.00  0.00     0.027 A 
ATOM      7  C   UNL d   1      53.192  33.333  54.152  0.00  0.00     0.026 A 
ATOM      8  C   UNL d   1      53.442  34.018  54.525  0.00  0.00     0.094 A 
ATOM      9  C   UNL d   1      54.232  34.101  54.765  0.00  0.00     0.024 A 
ATOM     10  C   UNL d   1      54.764  33.490  54.625  0.00  0.00     0.002 A 
ATOM     11  C   UNL d   1      54.516  32.802  54.251  0.00  0.00     0.002 A 
BRANCH   8  12
ATOM     12  O   UNL d   1      52.904  34.635  54.666  0.00  0.00    -0.328 OA
ATOM     13  C   UNL d   1      52.955  35.337  54.231  0.00  0.00     0.181 C 
ENDBRANCH   8  12
ENDBRANCH   4   6
BRANCH   1  14
ATOM     14  C   UNL d   1      53.014  29.949  53.528  0.00  0.00     0.316 C 
ATOM     15  O   UNL d   1      52.371  29.575  53.178  0.00  0.00    -0.257 OA
BRANCH  14  16
ATOM     16  O   UNL d   1      53.543  29.519  54.002  0.00  0.00    -0.294 OA
ATOM     17  C   UNL d   1      53.292  28.820  54.367  0.00  0.00     0.185 C 
ENDBRANCH  14  16
ENDBRANCH   1  14
TORSDOF 4
ENDMDL
MODEL 2
REMARK VINA RESULT:      -8.4      1.017      4.064
REMARK  4 active torsions:
REMARK  status: ('A' for Active; 'I' for Inactive)
REMARK    1  A    between atoms: C_6  and  C_1 
REMARK    2  A    between atoms: C_7  and  C_4 
REMARK    3  A    between atoms: O_10  and  C_6 
REMARK    4  A    between atoms: O_12  and  C_11 
ROOT
ATOM      1  C   UNL d   1      53.912  33.400  54.226  0.00  0.00     0.173 A 
ATOM      2  N   UNL d   1      54.654  33.142  53.966  0.00  0.00    -0.121 NA
ATOM      3  C   UNL d   1      53.373  32.786  54.105  0.00  0.00     0.054 A 
ATOM      4  C   UNL d   1      53.781  32.147  53.770  0.00  0.00     0.127 A 
ATOM      5  O   UNL d   1      54.572  32.371  53.686  0.00  0.00    -0.211 OA
ENDROOT
BRANCH   4   6
ATOM      6  C   UNL d   1      53.451  31.420  53.560  0.00  0.00     0.027 A 
ATOM      7  C   UNL d   1      53.726  30.735  53.926  0.00  0.00     0.026 A 
ATOM      8  C   UNL d   1      53.402  30.010  53.722  0.00  0.00     0.094 A 
ATOM      9  C   UNL d   1      52.801  29.965  53.152  0.00  0.00     0.024 A 
ATOM     10  C   UNL d   1      52.532  30.653  52.791  0.00  0.00     0.002 A 
ATOM     11  C   UNL d   1      52.855  31.380  52.993  0.00  0.00     0.002 A 
BRANCH   8  12
ATOM     12  O   UNL d   1      53.675  29.316  54.088  0.00  0.00    -0.328 OA
ATOM     13  C   UNL d   1      53.257  28.992  54.725  0.00  0.00     0.181 C 
ENDBRANCH   8  12
ENDBRANCH   4   6
BRANCH   1  14
ATOM     14  C   UNL d   1      53.730  34.140  54.551  0.00  0.00     0.316 C 
ATOM     15  O   UNL d   1      54.067  34.375  55.264  0.00  0.00    -0.257 OA
BRANCH  14  16
ATOM     16  O   UNL d   1      53.205  34.641  54.149  0.00  0.00    -0.294 OA
ATOM     17  C   UNL d   1      53.072  35.408  54.431  0.00  0.00     0.185 C 
ENDBRANCH  14  16
ENDBRANCH   1  14
TORSDOF 4
ENDMDL
MODEL 3
REMARK VINA RESULT:      -8.3      1.127      1.601
REMARK  4 active torsions:
REMARK  status: ('A' for Active; 'I' for Inactive)
REMARK    1  A    between atoms: C_6  and  C_1 
REMARK    2  A    between atoms: C_7  and  C_4 
REMARK    3  A    between atoms: O_10  and  C_6 
REMARK    4  A    between atoms: O_12  and  C_11 
ROOT
ATOM      1  C   UNL d   1      52.742  30.837  53.115  0.00  0.00     0.173 A 
ATOM      2  N   UNL d   1      53.003  31.031  52.354  0.00  0.00    -0.121 NA
ATOM      3  C   UNL d   1      52.453  31.526  53.467  0.00  0.00     0.054 A 
ATOM      4  C   UNL d   1      52.535  32.148  52.924  0.00  0.00     0.127 A 
ATOM      5  O   UNL d   1      52.876  31.837  52.238  0.00  0.00    -0.211 OA
ENDROOT
BRANCH   4   6
ATOM      6  C   UNL d   1      52.315  32.933  53.052  0.00  0.00     0.027 A 
ATOM      7  C   UNL d   1      52.872  33.461  53.354  0.00  0.00     0.026 A 
ATOM      8  C   UNL d   1      52.659  34.241  53.483  0.00  0.00     0.094 A 
ATOM      9  C   UNL d   1      51.890  34.500  53.313  0.00  0.00     0.024 A 
ATOM     10  C   UNL d   1      51.340  33.968  53.013  0.00  0.00     0.002 A 
ATOM     11  C   UNL d   1      51.550  33.186  52.882  0.00  0.00     0.002 A 
BRANCH   8  12
ATOM     12  O   UNL d   1      53.216  34.778  53.786  0.00  0.00    -0.328 OA
ATOM     13  C   UNL d   1      52.979  35.362  54.323  0.00  0.00     0.181 C 
ENDBRANCH   8  12
ENDBRANCH   4   6
BRANCH   1  14
ATOM     14  C   UNL d   1      52.761  30.090  53.470  0.00  0.00     0.316 C 
ATOM     15  O   UNL d   1      52.163  29.544  53.323  0.00  0.00    -0.257 OA
BRANCH  14  16
ATOM     16  O   UNL d   1      53.390  29.897  53.975  0.00  0.00    -0.294 OA
ATOM     17  C   UNL d   1      53.392  29.170  54.370  0.00  0.00     0.185 C 
ENDBRANCH  14  16
ENDBRANCH   1  14
TORSDOF 4
ENDMDL
MODEL 4
REMARK VINA RESULT:      -7.8      2.326      3.659
REMARK  4 active torsions:
REMARK  status: ('A' for Active; 'I' for Inactive)
REMARK    1  A    between atoms: C_6  and  C_1 
REMARK    2  A    between atoms: C_7  and  C_4 
REMARK    3  A    between atoms: O_10  and  C_6 
REMARK    4  A    between atoms: O_12  and  C_11 
ROOT
ATOM      1  C   UNL d   1      51.257  34.212  52.783  0.00  0.00     0.173 A 
ATOM      2  N   UNL d   1      51.887  34.709  52.579  0.00  0.00    -0.121 NA
ATOM      3  C   UNL d   1      51.569  33.555  53.175  0.00  0.00     0.054 A 
ATOM      4  C   UNL d   1      52.393  33.644  53.213  0.00  0.00     0.127 A 
ATOM      5  O   UNL d   1      52.584  34.359  52.844  0.00  0.00    -0.211 OA
ENDROOT
BRANCH   4   6
ATOM      6  C   UNL d   1      52.921  33.112  53.559  0.00  0.00     0.027 A 
ATOM      7  C   UNL d   1      53.308  33.327  54.254  0.00  0.00     0.026 A 
ATOM      8  C   UNL d   1      53.832  32.802  54.602  0.00  0.00     0.094 A 
ATOM      9  C   UNL d   1      53.974  32.061  54.259  0.00  0.00     0.024 A 
ATOM     10  C   UNL d   1      53.584  31.854  53.566  0.00  0.00     0.002 A 
ATOM     11  C   UNL d   1      53.058  32.376  53.214  0.00  0.00     0.002 A 
BRANCH   8  12
ATOM     12  O   UNL d   1      54.226  33.013  55.303  0.00  0.00    -0.328 OA
ATOM     13  C   UNL d   1      54.904  33.488  55.271  0.00  0.00     0.181 C 
ENDBRANCH   8  12
ENDBRANCH   4   6
BRANCH   1  14
ATOM     14  C   UNL d   1      50.454  34.340  52.629  0.00  0.00     0.316 C 
ATOM     15  O   UNL d   1      49.942  34.550  53.237  0.00  0.00    -0.257 OA
BRANCH  14  16
ATOM     16  O   UNL d   1      50.172  34.256  51.853  0.00  0.00    -0.294 OA
ATOM     17  C   UNL d   1      49.388  34.452  51.677  0.00  0.00     0.185 C 
ENDBRANCH  14  16
ENDBRANCH   1  14
TORSDOF 4
ENDMDL
MODEL 5
REMARK VINA RESULT:      -7.2      2.180      3.281
REMARK  4 active torsions:
REMARK  status: ('A' for Active; 'I' for Inactive)
REMARK    1  A    between atoms: C_6  and  C_1 
REMARK    2  A    between atoms: C_7  and  C_4 
REMARK    3  A    between atoms: O_10  and  C_6 
REMARK    4  A    between atoms: O_12  and  C_11 
ROOT
ATOM      1  C   UNL d   1      53.591  32.869  54.261  0.00  0.00     0.173 A 
ATOM      2  N   UNL d   1      53.393  32.173  53.859  0.00  0.00    -0.121 NA
ATOM      3  C   UNL d   1      53.107  33.474  53.973  0.00  0.00     0.054 A 
ATOM      4  C   UNL d   1      52.610  33.152  53.393  0.00  0.00     0.127 A 
ATOM      5  O   UNL d   1      52.790  32.348  53.327  0.00  0.00    -0.211 OA
ENDROOT
BRANCH   4   6
ATOM      6  C   UNL d   1      52.039  33.565  52.963  0.00  0.00     0.027 A 
ATOM      7  C   UNL d   1      51.290  33.672  53.292  0.00  0.00     0.026 A 
ATOM      8  C   UNL d   1      50.720  34.082  52.870  0.00  0.00     0.094 A 
ATOM      9  C   UNL d   1      50.892  34.388  52.118  0.00  0.00     0.024 A 
ATOM     10  C   UNL d   1      51.641  34.277  51.798  0.00  0.00     0.002 A 
ATOM     11  C   UNL d   1      52.215  33.867  52.217  0.00  0.00     0.002 A 
BRANCH   8  12
ATOM     12  O   UNL d   1      49.964  34.194  53.196  0.00  0.00    -0.328 OA
ATOM     13  C   UNL d   1      49.500  34.836  52.956  0.00  0.00     0.181 C 
ENDBRANCH   8  12
ENDBRANCH   4   6
BRANCH   1  14
ATOM     14  C   UNL d   1      54.169  32.956  54.847  0.00  0.00     0.316 C 
ATOM     15  O   UNL d   1      54.077  32.592  55.579  0.00  0.00    -0.257 OA
BRANCH  14  16
ATOM     16  O   UNL d   1      54.842  33.415  54.689  0.00  0.00    -0.294 OA
ATOM     17  C   UNL d   1      55.260  33.761  55.314  0.00  0.00     0.185 C 
ENDBRANCH  14  16
ENDBRANCH   1  14
TORSDOF 4
ENDMDL
