MODEL 1
REMARK VINA RESULT:      -4.1      0.000      0.000
REMARK  2 active torsions:
REMARK  status: ('A' for Active; 'I' for Inactive)
REMARK    1  A    between atoms: C_5  and  C_1 
REMARK    2  A    between atoms: N_2  and  C_6 
ROOT
ATOM      1  C   UNL d   1      32.831  23.202 -20.152  0.00  0.00     0.077 A 
ATOM      2  C   UNL d   1      32.185  22.237 -20.881  0.00  0.00     0.160 A 
ATOM      3  C   UNL d   1      32.369  22.555 -20.078  0.00  0.00     0.024 A 
ATOM      4  C   UNL d   1      32.989  23.372 -20.869  0.00  0.00    -0.014 A 
ATOM      5  C   UNL d   1      33.217  23.700 -20.772  0.00  0.00    -0.014 A 
ATOM      6  C   UNL d   1      33.074  23.451 -21.442  0.00  0.00    -0.000 A 
ATOM      7  C   UNL d   1      32.802  23.047 -21.699  0.00  0.00    -0.000 A 
ATOM      8  C   UNL d   1      32.482  22.621 -21.379  0.00  0.00     0.038 A 
ATOM      9  C   UNL d   1      32.351  22.417 -21.627  0.00  0.00     0.038 A 
ATOM     10  C   UNL d   1      33.187  23.543 -22.345  0.00  0.00    -0.000 A 
ATOM     11  O   UNL d   1      31.762  21.648 -20.789  0.00  0.00    -0.290 OA
ENDROOT
BRANCH   1  12
ATOM     12  C   UNL d   1      32.781  23.190 -19.336  0.00  0.00    -0.011 A 
ATOM     13  C   UNL d   1      33.240  22.677 -18.891  0.00  0.00    -0.002 A 
ATOM     14  C   UNL d   1      33.183  22.670 -18.058  0.00  0.00     0.023 A 
ATOM     15  C   UNL d   1      32.658  23.188 -17.687  0.00  0.00     0.127 A 
ATOM     16  C   UNL d   1      32.198  23.702 -18.139  0.00  0.00     0.023 A 
ATOM     17  C   UNL d   1      32.266  23.697 -18.972  0.00  0.00    -0.002 A 
BRANCH  15  18
ATOM     18  N   UNL d   1      32.590  23.194 -16.864  0.00  0.00    -0.114 N 
ATOM     19  O   UNL d   1      31.996  22.736 -16.532  0.00  0.00    -0.532 OA
ATOM     20  O   UNL d   1      33.120  23.661 -16.380  0.00  0.00    -0.532 OA
ENDBRANCH  15  18
ENDBRANCH   1  12
TORSDOF 2
ENDMDL
MODEL 2
REMARK VINA RESULT:      -3.5      7.512      8.639
REMARK  2 active torsions:
REMARK  status: ('A' for Active; 'I' for Inactive)
REMARK    1  A    between atoms: C_5  and  C_1 
REMARK    2  A    between atoms: N_2  and  C_6 
ROOT
ATOM      1  C   UNL d   1      31.158  16.147 -24.303  0.00  0.00     0.077 A 
ATOM      2  C   UNL d   1      32.002  17.140 -23.874  0.00  0.00     0.160 A 
ATOM      3  C   UNL d   1      31.177  16.824 -23.878  0.00  0.00     0.024 A 
ATOM      4  C   UNL d   1      31.831  15.956 -24.585  0.00  0.00    -0.014 A 
ATOM      5  C   UNL d   1      31.690  15.616 -24.767  0.00  0.00    -0.014 A 
ATOM      6  C   UNL d   1      32.376  15.863 -24.774  0.00  0.00    -0.000 A 
ATOM      7  C   UNL d   1      32.682  16.279 -24.583  0.00  0.00    -0.000 A 
ATOM      8  C   UNL d   1      32.431  16.731 -24.237  0.00  0.00     0.038 A 
ATOM      9  C   UNL d   1      32.701  16.938 -24.169  0.00  0.00     0.038 A 
ATOM     10  C   UNL d   1      33.240  15.750 -25.052  0.00  0.00    -0.000 A 
ATOM     11  O   UNL d   1      31.995  17.757 -23.481  0.00  0.00    -0.290 OA
ENDROOT
BRANCH   1  12
ATOM     12  C   UNL d   1      30.368  16.175 -24.097  0.00  0.00    -0.011 A 
ATOM     13  C   UNL d   1      29.831  16.619 -24.532  0.00  0.00    -0.002 A 
ATOM     14  C   UNL d   1      29.026  16.642 -24.315  0.00  0.00     0.023 A 
ATOM     15  C   UNL d   1      28.774  16.213 -23.657  0.00  0.00     0.127 A 
ATOM     16  C   UNL d   1      29.317  15.769 -23.222  0.00  0.00     0.023 A 
ATOM     17  C   UNL d   1      30.120  15.755 -23.451  0.00  0.00    -0.002 A 
BRANCH  15  18
ATOM     18  N   UNL d   1      27.981  16.226 -23.429  0.00  0.00    -0.114 N 
ATOM     19  O   UNL d   1      27.705  16.905 -23.060  0.00  0.00    -0.532 OA
ATOM     20  O   UNL d   1      27.468  15.555 -23.573  0.00  0.00    -0.532 OA
ENDBRANCH  15  18
ENDBRANCH   1  12
TORSDOF 2
ENDMDL
MODEL 3
REMARK VINA RESULT:      -3.4      8.029      8.954
REMARK  2 active torsions:
REMARK  status: ('A' for Active; 'I' for Inactive)
REMARK    1  A    between atoms: C_5  and  C_1 
REMARK    2  A    between atoms: N_2  and  C_6 
ROOT
ATOM      1  C   UNL d   1      29.615  16.100 -23.900  0.00  0.00     0.077 A 
ATOM      2  C   UNL d   1      28.749  17.158 -24.015  0.00  0.00     0.160 A 
ATOM      3  C   UNL d   1      29.576  16.867 -24.122  0.00  0.00     0.024 A 
ATOM      4  C   UNL d   1      28.953  15.828 -23.662  0.00  0.00    -0.014 A 
ATOM      5  C   UNL d   1      29.103  15.453 -23.584  0.00  0.00    -0.014 A 
ATOM      6  C   UNL d   1      28.416  15.677 -23.489  0.00  0.00    -0.000 A 
ATOM      7  C   UNL d   1      28.100  16.124 -23.550  0.00  0.00    -0.000 A 
ATOM      8  C   UNL d   1      28.336  16.657 -23.766  0.00  0.00     0.038 A 
ATOM      9  C   UNL d   1      28.062  16.870 -23.766  0.00  0.00     0.038 A 
ATOM     10  C   UNL d   1      27.563  15.476 -23.228  0.00  0.00    -0.000 A 
ATOM     11  O   UNL d   1      28.737  17.858 -24.224  0.00  0.00    -0.290 OA
ENDROOT
BRANCH   1  12
ATOM     12  C   UNL d   1      30.397  16.197 -24.114  0.00  0.00    -0.011 A 
ATOM     13  C   UNL d   1      30.651  16.039 -24.879  0.00  0.00    -0.002 A 
ATOM     14  C   UNL d   1      31.451  16.141 -25.090  0.00  0.00     0.023 A 
ATOM     15  C   UNL d   1      31.987  16.403 -24.520  0.00  0.00     0.127 A 
ATOM     16  C   UNL d   1      31.729  16.560 -23.753  0.00  0.00     0.023 A 
ATOM     17  C   UNL d   1      30.923  16.454 -23.556  0.00  0.00    -0.002 A 
BRANCH  15  18
ATOM     18  N   UNL d   1      32.783  16.508 -24.713  0.00  0.00    -0.114 N 
ATOM     19  O   UNL d   1      33.241  15.834 -24.807  0.00  0.00    -0.532 OA
ATOM     20  O   UNL d   1      33.115  17.292 -24.809  0.00  0.00    -0.532 OA
ENDBRANCH  15  18
ENDBRANCH   1  12
TORSDOF 2
ENDMDL
MODEL 4
REMARK VINA RESULT:      -3.1      2.407      4.229
REMARK  2 active torsions:
REMARK  status: ('A' for Active; 'I' for Inactive)
REMARK    1  A    between atoms: C_5  and  C_1 
REMARK    2  A    between atoms: N_2  and  C_6 
ROOT
ATOM      1  C   UNL d   1      32.660  23.158 -21.295  0.00  0.00     0.077 A 
ATOM      2  C   UNL d   1      32.429  21.940 -20.709  0.00  0.00     0.160 A 
ATOM      3  C   UNL d   1      32.497  22.394 -21.463  0.00  0.00     0.024 A 
ATOM      4  C   UNL d   1      32.713  23.293 -20.555  0.00  0.00    -0.014 A 
ATOM      5  C   UNL d   1      32.794  23.693 -20.605  0.00  0.00    -0.014 A 
ATOM      6  C   UNL d   1      32.741  23.333 -19.973  0.00  0.00    -0.000 A 
ATOM      7  C   UNL d   1      32.644  22.828 -19.776  0.00  0.00    -0.000 A 
ATOM      8  C   UNL d   1      32.533  22.350 -20.157  0.00  0.00     0.038 A 
ATOM      9  C   UNL d   1      32.485  22.084 -19.939  0.00  0.00     0.038 A 
ATOM     10  C   UNL d   1      32.777  23.358 -19.060  0.00  0.00    -0.000 A 
ATOM     11  O   UNL d   1      32.281  21.246 -20.886  0.00  0.00    -0.290 OA
ENDROOT
BRANCH   1  12
ATOM     12  C   UNL d   1      32.645  23.220 -22.110  0.00  0.00    -0.011 A 
ATOM     13  C   UNL d   1      33.233  22.881 -22.572  0.00  0.00    -0.002 A 
ATOM     14  C   UNL d   1      33.211  22.949 -23.403  0.00  0.00     0.023 A 
ATOM     15  C   UNL d   1      32.590  23.363 -23.756  0.00  0.00     0.127 A 
ATOM     16  C   UNL d   1      32.001  23.702 -23.288  0.00  0.00     0.023 A 
ATOM     17  C   UNL d   1      32.037  23.625 -22.457  0.00  0.00    -0.002 A 
BRANCH  15  18
ATOM     18  N   UNL d   1      32.553  23.439 -24.578  0.00  0.00    -0.114 N 
ATOM     19  O   UNL d   1      31.841  23.684 -24.903  0.00  0.00    -0.532 OA
ATOM     20  O   UNL d   1      33.235  23.269 -25.068  0.00  0.00    -0.532 OA
ENDBRANCH  15  18
ENDBRANCH   1  12
TORSDOF 2
ENDMDL
MODEL 5
REMARK VINA RESULT:      -3.0      7.258      8.738
REMARK  2 active torsions:
REMARK  status: ('A' for Active; 'I' for Inactive)
REMARK    1  A    between atoms: C_5  and  C_1 
REMARK    2  A    between atoms: N_2  and  C_6 
ROOT
ATOM      1  C   UNL d   1      29.803  16.310 -24.306  0.00  0.00     0.077 A 
ATOM      2  C   UNL d   1      29.387  15.720 -23.140  0.00  0.00     0.160 A 
ATOM      3  C   UNL d   1      30.033  16.155 -23.557  0.00  0.00     0.024 A 
ATOM      4  C   UNL d   1      29.112  16.052 -24.462  0.00  0.00    -0.014 A 
ATOM      5  C   UNL d   1      29.117  16.188 -24.851  0.00  0.00    -0.014 A 
ATOM      6  C   UNL d   1      28.575  15.830 -24.521  0.00  0.00    -0.000 A 
ATOM      7  C   UNL d   1      28.444  15.603 -24.036  0.00  0.00    -0.000 A 
ATOM      8  C   UNL d   1      28.841  15.617 -23.558  0.00  0.00     0.038 A 
ATOM      9  C   UNL d   1      28.668  15.453 -23.306  0.00  0.00     0.038 A 
ATOM     10  C   UNL d   1      27.736  15.470 -24.576  0.00  0.00    -0.000 A 
ATOM     11  O   UNL d   1      29.619  15.589 -22.459  0.00  0.00    -0.290 OA
ENDROOT
BRANCH   1  12
ATOM     12  C   UNL d   1      30.543  16.655 -24.340  0.00  0.00    -0.011 A 
ATOM     13  C   UNL d   1      31.219  16.200 -24.439  0.00  0.00    -0.002 A 
ATOM     14  C   UNL d   1      31.971  16.559 -24.473  0.00  0.00     0.023 A 
ATOM     15  C   UNL d   1      32.028  17.380 -24.405  0.00  0.00     0.127 A 
ATOM     16  C   UNL d   1      31.346  17.833 -24.305  0.00  0.00     0.023 A 
ATOM     17  C   UNL d   1      30.599  17.459 -24.274  0.00  0.00    -0.002 A 
BRANCH  15  18
ATOM     18  N   UNL d   1      32.765  17.751 -24.436  0.00  0.00    -0.114 N 
ATOM     19  O   UNL d   1      33.231  17.610 -25.096  0.00  0.00    -0.532 OA
ATOM     20  O   UNL d   1      33.029  18.264 -23.802  0.00  0.00    -0.532 OA
ENDBRANCH  15  18
ENDBRANCH   1  12
TORSDOF 2
ENDMDL
MODEL 6
REMARK VINA RESULT:      -2.6      4.785      6.483
REMARK  2 active torsions:
REMARK  status: ('A' for Active; 'I' for Inactive)
REMARK    1  A    between atoms: C_5  and  C_1 
REMARK    2  A    between atoms: N_2  and  C_6 
ROOT
ATOM      1  C   UNL d   1      32.884  19.055 -22.724  0.00  0.00     0.077 A 
ATOM      2  C   UNL d   1      33.154  20.199 -23.431  0.00  0.00     0.160 A 
ATOM      3  C   UNL d   1      32.982  19.334 -23.467  0.00  0.00     0.024 A 
ATOM      4  C   UNL d   1      32.962  19.587 -22.196  0.00  0.00    -0.014 A 
ATOM      5  C   UNL d   1      32.892  19.329 -21.884  0.00  0.00    -0.014 A 
ATOM      6  C   UNL d   1      33.033  20.042 -21.837  0.00  0.00    -0.000 A 
ATOM      7  C   UNL d   1      33.139  20.479 -22.155  0.00  0.00    -0.000 A 
ATOM      8  C   UNL d   1      33.163  20.427 -22.774  0.00  0.00     0.038 A 
ATOM      9  C   UNL d   1      33.234  20.751 -22.878  0.00  0.00     0.038 A 
ATOM     10  C   UNL d   1      33.151  20.777 -21.305  0.00  0.00    -0.000 A 
ATOM     11  O   UNL d   1      33.240  20.431 -24.119  0.00  0.00    -0.290 OA
ENDROOT
BRANCH   1  12
ATOM     12  C   UNL d   1      32.765  18.353 -23.126  0.00  0.00    -0.011 A 
ATOM     13  C   UNL d   1      32.223  18.304 -23.741  0.00  0.00    -0.002 A 
ATOM     14  C   UNL d   1      32.107  17.584 -24.147  0.00  0.00     0.023 A 
ATOM     15  C   UNL d   1      32.545  16.921 -23.923  0.00  0.00     0.127 A 
ATOM     16  C   UNL d   1      33.088  16.976 -23.305  0.00  0.00     0.023 A 
ATOM     17  C   UNL d   1      33.193  17.703 -22.907  0.00  0.00    -0.002 A 
BRANCH  15  18
ATOM     18  N   UNL d   1      32.442  16.201 -24.315  0.00  0.00    -0.114 N 
ATOM     19  O   UNL d   1      31.880  15.685 -24.013  0.00  0.00    -0.532 OA
ATOM     20  O   UNL d   1      32.905  16.005 -25.008  0.00  0.00    -0.532 OA
ENDBRANCH  15  18
ENDBRANCH   1  12
TORSDOF 2
ENDMDL
MODEL 7
REMARK VINA RESULT:      -2.6      5.154      6.498
REMARK  2 active torsions:
REMARK  status: ('A' for Active; 'I' for Inactive)
REMARK    1  A    between atoms: C_5  and  C_1 
REMARK    2  A    between atoms: N_2  and  C_6 
ROOT
ATOM      1  C   UNL d   1      32.735  17.837 -23.974  0.00  0.00     0.077 A 
ATOM      2  C   UNL d   1      31.577  17.677 -24.692  0.00  0.00     0.160 A 
ATOM      3  C   UNL d   1      32.038  18.190 -24.140  0.00  0.00     0.024 A 
ATOM      4  C   UNL d   1      32.820  17.173 -24.322  0.00  0.00    -0.014 A 
ATOM      5  C   UNL d   1      33.193  17.104 -24.162  0.00  0.00    -0.014 A 
ATOM      6  C   UNL d   1      32.826  16.669 -24.618  0.00  0.00    -0.000 A 
ATOM      7  C   UNL d   1      32.348  16.642 -24.891  0.00  0.00    -0.000 A 
ATOM      8  C   UNL d   1      31.927  17.097 -24.848  0.00  0.00     0.038 A 
ATOM      9  C   UNL d   1      31.669  16.985 -25.052  0.00  0.00     0.038 A 
ATOM     10  C   UNL d   1      32.800  15.889 -25.094  0.00  0.00    -0.000 A 
ATOM     11  O   UNL d   1      30.945  18.019 -24.829  0.00  0.00    -0.290 OA
ENDROOT
BRANCH   1  12
ATOM     12  C   UNL d   1      32.837  18.509 -23.521  0.00  0.00    -0.011 A 
ATOM     13  C   UNL d   1      32.762  18.484 -22.703  0.00  0.00    -0.002 A 
ATOM     14  C   UNL d   1      32.867  19.175 -22.247  0.00  0.00     0.023 A 
ATOM     15  C   UNL d   1      33.048  19.884 -22.628  0.00  0.00     0.127 A 
ATOM     16  C   UNL d   1      33.123  19.904 -23.449  0.00  0.00     0.023 A 
ATOM     17  C   UNL d   1      33.014  19.205 -23.893  0.00  0.00    -0.002 A 
BRANCH  15  18
ATOM     18  N   UNL d   1      33.155  20.577 -22.190  0.00  0.00    -0.114 N 
ATOM     19  O   UNL d   1      33.220  21.280 -22.608  0.00  0.00    -0.532 OA
ATOM     20  O   UNL d   1      33.197  20.557 -21.335  0.00  0.00    -0.532 OA
ENDBRANCH  15  18
ENDBRANCH   1  12
TORSDOF 2
ENDMDL
