MODEL 1
REMARK VINA RESULT:      -7.5      0.000      0.000
REMARK  2 active torsions:
REMARK  status: ('A' for Active; 'I' for Inactive)
REMARK       I    between atoms: C_3  and  N_1 
REMARK    1  A    between atoms: C_7  and  C_3 
REMARK    2  A    between atoms: O_15  and  C_11 
ROOT
ATOM      1  N   UNL d   1     -48.660  13.829  22.361  0.00  0.00    -0.195 N 
ATOM      2  N   UNL d   1     -48.883  13.069  22.105  0.00  0.00    -0.163 NA
ATOM      3  C   UNL d   1     -47.961  14.053  22.731  0.00  0.00     0.280 C 
ATOM      4  C   UNL d   1     -49.240  14.338  22.194  0.00  0.00     0.088 A 
ATOM      5  C   UNL d   1     -49.861  13.926  21.822  0.00  0.00     0.040 A 
ATOM      6  C   UNL d   1     -49.633  13.144  21.771  0.00  0.00     0.103 A 
ATOM      7  O   UNL d   1     -47.852  14.832  22.939  0.00  0.00    -0.265 OA
ATOM      8  C   UNL d   1     -49.230  15.170  22.366  0.00  0.00     0.021 C 
ATOM      9  C   UNL d   1     -50.099  12.529  21.431  0.00  0.00     0.022 C 
ENDROOT
BRANCH   3  10
ATOM     10  C   UNL d   1     -47.362  13.499  22.899  0.00  0.00     0.058 A 
ATOM     11  C   UNL d   1     -46.693  13.465  22.419  0.00  0.00     0.007 A 
ATOM     12  C   UNL d   1     -46.095  12.923  22.574  0.00  0.00     0.024 A 
ATOM     13  C   UNL d   1     -46.164  12.413  23.212  0.00  0.00     0.094 A 
ATOM     14  C   UNL d   1     -46.830  12.441  23.698  0.00  0.00     0.024 A 
ATOM     15  C   UNL d   1     -47.432  12.978  23.551  0.00  0.00     0.007 A 
BRANCH  13  16
ATOM     16  O   UNL d   1     -45.549  11.868  23.358  0.00  0.00    -0.328 OA
ATOM     17  C   UNL d   1     -45.729  11.100  23.638  0.00  0.00     0.181 C 
ENDBRANCH  13  16
ENDBRANCH   3  10
TORSDOF 2
ENDMDL
MODEL 2
REMARK VINA RESULT:      -7.4      1.472      1.990
REMARK  2 active torsions:
REMARK  status: ('A' for Active; 'I' for Inactive)
REMARK       I    between atoms: C_3  and  N_1 
REMARK    1  A    between atoms: C_7  and  C_3 
REMARK    2  A    between atoms: O_15  and  C_11 
ROOT
ATOM      1  N   UNL d   1     -49.305  12.844  23.133  0.00  0.00    -0.195 N 
ATOM      2  N   UNL d   1     -49.255  13.660  23.290  0.00  0.00    -0.163 NA
ATOM      3  C   UNL d   1     -48.692  12.327  22.952  0.00  0.00     0.280 C 
ATOM      4  C   UNL d   1     -50.059  12.617  23.182  0.00  0.00     0.088 A 
ATOM      5  C   UNL d   1     -50.528  13.278  23.374  0.00  0.00     0.040 A 
ATOM      6  C   UNL d   1     -50.025  13.918  23.438  0.00  0.00     0.103 A 
ATOM      7  O   UNL d   1     -48.860  11.542  22.816  0.00  0.00    -0.265 OA
ATOM      8  C   UNL d   1     -50.344  11.826  23.060  0.00  0.00     0.021 C 
ATOM      9  C   UNL d   1     -50.269  14.702  23.626  0.00  0.00     0.022 C 
ENDROOT
BRANCH   3  10
ATOM     10  C   UNL d   1     -47.903  12.588  22.905  0.00  0.00     0.058 A 
ATOM     11  C   UNL d   1     -47.628  12.932  22.208  0.00  0.00     0.007 A 
ATOM     12  C   UNL d   1     -46.852  13.193  22.149  0.00  0.00     0.024 A 
ATOM     13  C   UNL d   1     -46.345  13.111  22.788  0.00  0.00     0.094 A 
ATOM     14  C   UNL d   1     -46.612  12.768  23.490  0.00  0.00     0.024 A 
ATOM     15  C   UNL d   1     -47.385  12.504  23.558  0.00  0.00     0.007 A 
BRANCH  13  16
ATOM     16  O   UNL d   1     -45.559  13.381  22.715  0.00  0.00    -0.328 OA
ATOM     17  C   UNL d   1     -45.099  13.155  22.054  0.00  0.00     0.181 C 
ENDBRANCH  13  16
ENDBRANCH   3  10
TORSDOF 2
ENDMDL
MODEL 3
REMARK VINA RESULT:      -7.2      1.224      3.526
REMARK  2 active torsions:
REMARK  status: ('A' for Active; 'I' for Inactive)
REMARK       I    between atoms: C_3  and  N_1 
REMARK    1  A    between atoms: C_7  and  C_3 
REMARK    2  A    between atoms: O_15  and  C_11 
ROOT
ATOM      1  N   UNL d   1     -47.329  13.182  22.951  0.00  0.00    -0.195 N 
ATOM      2  N   UNL d   1     -47.876  12.593  23.169  0.00  0.00    -0.163 NA
ATOM      3  C   UNL d   1     -47.487  13.936  22.664  0.00  0.00     0.280 C 
ATOM      4  C   UNL d   1     -46.598  12.909  23.062  0.00  0.00     0.088 A 
ATOM      5  C   UNL d   1     -46.642  12.131  23.356  0.00  0.00     0.040 A 
ATOM      6  C   UNL d   1     -47.433  11.944  23.420  0.00  0.00     0.103 A 
ATOM      7  O   UNL d   1     -46.867  14.431  22.482  0.00  0.00    -0.265 OA
ATOM      8  C   UNL d   1     -45.882  13.339  22.905  0.00  0.00     0.021 C 
ATOM      9  C   UNL d   1     -47.732  11.206  23.697  0.00  0.00     0.022 C 
ENDROOT
BRANCH   3  10
ATOM     10  C   UNL d   1     -48.267  14.205  22.555  0.00  0.00     0.058 A 
ATOM     11  C   UNL d   1     -48.578  14.773  23.065  0.00  0.00     0.007 A 
ATOM     12  C   UNL d   1     -49.346  15.046  22.968  0.00  0.00     0.024 A 
ATOM     13  C   UNL d   1     -49.809  14.752  22.358  0.00  0.00     0.094 A 
ATOM     14  C   UNL d   1     -49.505  14.183  21.842  0.00  0.00     0.024 A 
ATOM     15  C   UNL d   1     -48.740  13.905  21.931  0.00  0.00     0.007 A 
BRANCH  13  16
ATOM     16  O   UNL d   1     -50.588  15.038  22.270  0.00  0.00    -0.328 OA
ATOM     17  C   UNL d   1     -51.063  15.172  22.946  0.00  0.00     0.181 C 
ENDBRANCH  13  16
ENDBRANCH   3  10
TORSDOF 2
ENDMDL
MODEL 4
REMARK VINA RESULT:      -5.0      2.190      3.470
REMARK  2 active torsions:
REMARK  status: ('A' for Active; 'I' for Inactive)
REMARK       I    between atoms: C_3  and  N_1 
REMARK    1  A    between atoms: C_7  and  C_3 
REMARK    2  A    between atoms: O_15  and  C_11 
ROOT
ATOM      1  N   UNL d   1     -49.850  12.487  23.330  0.00  0.00    -0.195 N 
ATOM      2  N   UNL d   1     -49.032  12.333  23.292  0.00  0.00    -0.163 NA
ATOM      3  C   UNL d   1     -50.240  13.189  23.154  0.00  0.00     0.280 C 
ATOM      4  C   UNL d   1     -50.224  11.836  23.570  0.00  0.00     0.088 A 
ATOM      5  C   UNL d   1     -49.663  11.234  23.698  0.00  0.00     0.040 A 
ATOM      6  C   UNL d   1     -48.930  11.548  23.524  0.00  0.00     0.103 A 
ATOM      7  O   UNL d   1     -51.050  13.224  23.227  0.00  0.00    -0.265 OA
ATOM      8  C   UNL d   1     -51.064  11.763  23.681  0.00  0.00     0.021 C 
ATOM      9  C   UNL d   1     -48.202  11.127  23.578  0.00  0.00     0.022 C 
ENDROOT
BRANCH   3  10
ATOM     10  C   UNL d   1     -49.825  13.865  22.901  0.00  0.00     0.058 A 
ATOM     11  C   UNL d   1     -49.690  14.482  23.431  0.00  0.00     0.007 A 
ATOM     12  C   UNL d   1     -49.282  15.154  23.194  0.00  0.00     0.024 A 
ATOM     13  C   UNL d   1     -49.006  15.213  22.424  0.00  0.00     0.094 A 
ATOM     14  C   UNL d   1     -49.137  14.599  21.887  0.00  0.00     0.024 A 
ATOM     15  C   UNL d   1     -49.543  13.925  22.114  0.00  0.00     0.007 A 
BRANCH  13  16
ATOM     16  O   UNL d   1     -48.594  15.901  22.196  0.00  0.00    -0.328 OA
ATOM     17  C   UNL d   1     -47.804  15.845  21.925  0.00  0.00     0.181 C 
ENDBRANCH  13  16
ENDBRANCH   3  10
TORSDOF 2
ENDMDL
