MODEL 1
REMARK VINA RESULT:      13.2      0.000      0.000
REMARK  2 active torsions:
REMARK  status: ('A' for Active; 'I' for Inactive)
REMARK    1  A    between atoms: C_6  and  C_1 
REMARK    2  A    between atoms: C_7  and  C_5 
ROOT
ATOM      1  C   UNL d   1      13.524  11.942  -4.812  0.00  0.00     0.169 A 
ATOM      2  C   UNL d   1      14.242  11.809  -4.417  0.00  0.00     0.048 A 
ATOM      3  N   UNL d   1      12.861  12.071  -3.569  0.00  0.00    -0.148 NA
ATOM      4  N   UNL d   1      12.831  12.073  -4.389  0.00  0.00    -0.142 NA
ATOM      5  C   UNL d   1      13.573  11.939  -3.172  0.00  0.00     0.105 A 
ENDROOT
BRANCH   5   6
ATOM      6  C   UNL d   1      13.804  11.900  -2.383  0.00  0.00     0.019 A 
ATOM      7  C   UNL d   1      14.606  11.941  -2.191  0.00  0.00     0.002 A 
ATOM      8  C   UNL d   1      14.838  11.902  -1.402  0.00  0.00     0.000 A 
ATOM      9  C   UNL d   1      15.670  11.945  -1.197  0.00  0.00     0.000 C 
ATOM     10  C   UNL d   1      14.268  11.820  -0.805  0.00  0.00     0.000 A 
ATOM     11  C   UNL d   1      13.470  11.779  -1.006  0.00  0.00     0.000 A 
ATOM     12  C   UNL d   1      14.503  11.780  -0.014  0.00  0.00     0.000 C 
ATOM     13  C   UNL d   1      13.237  11.818  -1.789  0.00  0.00     0.002 A 
ENDBRANCH   5   6
BRANCH   1  14
ATOM     14  C   UNL d   1      13.508  11.941  -5.639  0.00  0.00     0.231 C 
ATOM     15  O   UNL d   1      12.804  11.785  -6.034  0.00  0.00    -0.643 OA
ATOM     16  O   UNL d   1      14.192  12.096  -6.064  0.00  0.00    -0.643 OA
ENDBRANCH   1  14
TORSDOF 2
ENDMDL
