MODEL 1
REMARK VINA RESULT:      -7.6      0.000      0.000
REMARK  4 active torsions:
REMARK  status: ('A' for Active; 'I' for Inactive)
REMARK    1  A    between atoms: S_7  and  C_2 
REMARK    2  A    between atoms: C_20  and  S_7 
REMARK    3  A    between atoms: C_10  and  C_20 
REMARK       I    between atoms: N_12  and  C_10 
REMARK    4  A    between atoms: C_15  and  N_12 
ROOT
ATOM      1  C   UNL d   1      51.036  33.836  52.844  0.00  0.00     0.286 C 
ATOM      2  N   UNL d   1      51.839  33.925  52.673  0.00  0.00    -0.207 NA
ATOM      3  O   UNL d   1      50.799  33.360  53.469  0.00  0.00    -0.265 OA
ENDROOT
BRANCH   1   4
ATOM      4  C   UNL d   1      50.489  34.230  52.378  0.00  0.00     0.101 C 
BRANCH   4   5
ATOM      5  S   UNL d   1      49.831  34.575  52.730  0.00  0.00    -0.041 SA
BRANCH   5   6
ATOM      6  C   UNL d   1      49.197  34.823  52.266  0.00  0.00     0.220 A 
ATOM      7  N   UNL d   1      48.648  35.360  52.568  0.00  0.00    -0.148 N 
ATOM      8  C   UNL d   1      48.005  35.616  52.109  0.00  0.00     0.305 A 
ATOM      9  N   UNL d   1      48.732  35.648  53.335  0.00  0.00    -0.037 N 
ATOM     10  C   UNL d   1      47.930  35.319  51.337  0.00  0.00     0.185 A 
ATOM     11  O   UNL d   1      47.462  36.147  52.408  0.00  0.00    -0.263 OA
ATOM     12  N   UNL d   1      48.479  34.782  51.034  0.00  0.00    -0.139 NA
ATOM     13  N   UNL d   1      49.110  34.537  51.500  0.00  0.00    -0.121 NA
ENDBRANCH   5   6
ENDBRANCH   4   5
ENDBRANCH   1   4
BRANCH   2  14
ATOM     14  C   UNL d   1      52.403  33.533  53.135  0.00  0.00     0.087 A 
ATOM     15  C   UNL d   1      52.740  33.917  53.785  0.00  0.00     0.045 A 
ATOM     16  C   UNL d   1      53.297  33.529  54.242  0.00  0.00     0.121 A 
ATOM     17  O   UNL d   1      53.728  33.758  54.915  0.00  0.00    -0.299 OA
ATOM     18  C   UNL d   1      53.523  32.757  54.058  0.00  0.00     0.119 A 
ATOM     19  C   UNL d   1      54.213  33.137  55.142  0.00  0.00     0.304 A 
ATOM     20  O   UNL d   1      54.087  32.517  54.613  0.00  0.00    -0.300 OA
ATOM     21  C   UNL d   1      53.187  32.373  53.410  0.00  0.00     0.028 A 
ATOM     22  C   UNL d   1      52.621  32.764  52.943  0.00  0.00     0.021 A 
ENDBRANCH   2  14
TORSDOF 4
ENDMDL
MODEL 2
REMARK VINA RESULT:      -7.6      0.806      1.187
REMARK  4 active torsions:
REMARK  status: ('A' for Active; 'I' for Inactive)
REMARK    1  A    between atoms: S_7  and  C_2 
REMARK    2  A    between atoms: C_20  and  S_7 
REMARK    3  A    between atoms: C_10  and  C_20 
REMARK       I    between atoms: N_12  and  C_10 
REMARK    4  A    between atoms: C_15  and  N_12 
ROOT
ATOM      1  C   UNL d   1      50.979  34.152  52.853  0.00  0.00     0.286 C 
ATOM      2  N   UNL d   1      51.195  33.607  53.436  0.00  0.00    -0.207 NA
ATOM      3  O   UNL d   1      51.508  34.347  52.256  0.00  0.00    -0.265 OA
ENDROOT
BRANCH   1   4
ATOM      4  C   UNL d   1      50.233  34.489  52.888  0.00  0.00     0.101 C 
BRANCH   4   5
ATOM      5  S   UNL d   1      49.794  34.574  52.198  0.00  0.00    -0.041 SA
BRANCH   5   6
ATOM      6  C   UNL d   1      49.064  34.954  52.217  0.00  0.00     0.220 A 
ATOM      7  N   UNL d   1      48.546  34.887  51.579  0.00  0.00    -0.148 N 
ATOM      8  C   UNL d   1      47.807  35.266  51.588  0.00  0.00     0.305 A 
ATOM      9  N   UNL d   1      48.757  34.439  50.920  0.00  0.00    -0.037 N 
ATOM     10  C   UNL d   1      47.603  35.715  52.257  0.00  0.00     0.185 A 
ATOM     11  O   UNL d   1      47.294  35.199  50.956  0.00  0.00    -0.263 OA
ATOM     12  N   UNL d   1      48.121  35.782  52.895  0.00  0.00    -0.139 NA
ATOM     13  N   UNL d   1      48.849  35.401  52.873  0.00  0.00    -0.121 NA
ENDBRANCH   5   6
ENDBRANCH   4   5
ENDBRANCH   1   4
BRANCH   2  14
ATOM     14  C   UNL d   1      51.946  33.259  53.413  0.00  0.00     0.087 A 
ATOM     15  C   UNL d   1      52.570  33.603  53.832  0.00  0.00     0.045 A 
ATOM     16  C   UNL d   1      53.313  33.259  53.810  0.00  0.00     0.121 A 
ATOM     17  O   UNL d   1      54.036  33.465  54.163  0.00  0.00    -0.299 OA
ATOM     18  C   UNL d   1      53.441  32.572  53.371  0.00  0.00     0.119 A 
ATOM     19  C   UNL d   1      54.603  32.914  53.945  0.00  0.00     0.304 A 
ATOM     20  O   UNL d   1      54.236  32.361  53.455  0.00  0.00    -0.300 OA
ATOM     21  C   UNL d   1      52.818  32.229  52.953  0.00  0.00     0.028 A 
ATOM     22  C   UNL d   1      52.064  32.575  52.973  0.00  0.00     0.021 A 
ENDBRANCH   2  14
TORSDOF 4
ENDMDL
MODEL 3
REMARK VINA RESULT:      -7.0      1.554      5.209
REMARK  4 active torsions:
REMARK  status: ('A' for Active; 'I' for Inactive)
REMARK    1  A    between atoms: S_7  and  C_2 
REMARK    2  A    between atoms: C_20  and  S_7 
REMARK    3  A    between atoms: C_10  and  C_20 
REMARK       I    between atoms: N_12  and  C_10 
REMARK    4  A    between atoms: C_15  and  N_12 
ROOT
ATOM      1  C   UNL d   1      51.346  34.096  52.768  0.00  0.00     0.286 C 
ATOM      2  N   UNL d   1      50.575  33.932  53.018  0.00  0.00    -0.207 NA
ATOM      3  O   UNL d   1      51.478  34.663  52.189  0.00  0.00    -0.265 OA
ENDROOT
BRANCH   1   4
ATOM      4  C   UNL d   1      51.966  33.683  53.109  0.00  0.00     0.101 C 
BRANCH   4   5
ATOM      5  S   UNL d   1      52.576  34.096  53.473  0.00  0.00    -0.041 SA
BRANCH   5   6
ATOM      6  C   UNL d   1      53.215  33.688  53.796  0.00  0.00     0.220 A 
ATOM      7  N   UNL d   1      53.658  34.029  54.403  0.00  0.00    -0.148 N 
ATOM      8  C   UNL d   1      54.304  33.626  54.736  0.00  0.00     0.305 A 
ATOM      9  N   UNL d   1      53.463  34.777  54.688  0.00  0.00    -0.037 N 
ATOM     10  C   UNL d   1      54.493  32.873  54.442  0.00  0.00     0.185 A 
ATOM     11  O   UNL d   1      54.743  33.963  55.337  0.00  0.00    -0.263 OA
ATOM     12  N   UNL d   1      54.050  32.532  53.835  0.00  0.00    -0.139 NA
ATOM     13  N   UNL d   1      53.413  32.942  53.515  0.00  0.00    -0.121 NA
ENDBRANCH   5   6
ENDBRANCH   4   5
ENDBRANCH   1   4
BRANCH   2  14
ATOM     14  C   UNL d   1      49.939  34.342  52.682  0.00  0.00     0.087 A 
ATOM     15  C   UNL d   1      49.517  34.887  53.137  0.00  0.00     0.045 A 
ATOM     16  C   UNL d   1      48.888  35.293  52.805  0.00  0.00     0.121 A 
ATOM     17  O   UNL d   1      48.365  35.863  53.109  0.00  0.00    -0.299 OA
ATOM     18  C   UNL d   1      48.675  35.160  52.019  0.00  0.00     0.119 A 
ATOM     19  C   UNL d   1      47.837  36.079  52.520  0.00  0.00     0.304 A 
ATOM     20  O   UNL d   1      48.028  35.644  51.845  0.00  0.00    -0.300 OA
ATOM     21  C   UNL d   1      49.097  34.616  51.565  0.00  0.00     0.028 A 
ATOM     22  C   UNL d   1      49.735  34.202  51.898  0.00  0.00     0.021 A 
ENDBRANCH   2  14
TORSDOF 4
ENDMDL
MODEL 4
REMARK VINA RESULT:      -5.6      9.989     10.503
REMARK  4 active torsions:
REMARK  status: ('A' for Active; 'I' for Inactive)
REMARK    1  A    between atoms: S_7  and  C_2 
REMARK    2  A    between atoms: C_20  and  S_7 
REMARK    3  A    between atoms: C_10  and  C_20 
REMARK       I    between atoms: N_12  and  C_10 
REMARK    4  A    between atoms: C_15  and  N_12 
ROOT
ATOM      1  C   UNL d   1      44.957  27.206  56.651  0.00  0.00     0.286 C 
ATOM      2  N   UNL d   1      44.328  26.696  56.488  0.00  0.00    -0.207 NA
ATOM      3  O   UNL d   1      45.706  26.902  56.791  0.00  0.00    -0.265 OA
ENDROOT
BRANCH   1   4
ATOM      4  C   UNL d   1      44.813  28.013  56.670  0.00  0.00     0.101 C 
BRANCH   4   5
ATOM      5  S   UNL d   1      45.067  28.454  57.315  0.00  0.00    -0.041 SA
BRANCH   5   6
ATOM      6  C   UNL d   1      44.948  29.269  57.330  0.00  0.00     0.220 A 
ATOM      7  N   UNL d   1      45.042  29.688  58.035  0.00  0.00    -0.148 N 
ATOM      8  C   UNL d   1      44.924  30.510  58.061  0.00  0.00     0.305 A 
ATOM      9  N   UNL d   1      45.255  29.292  58.725  0.00  0.00    -0.037 N 
ATOM     10  C   UNL d   1      44.709  30.899  57.359  0.00  0.00     0.185 A 
ATOM     11  O   UNL d   1      45.017  30.925  58.759  0.00  0.00    -0.263 OA
ATOM     12  N   UNL d   1      44.615  30.480  56.655  0.00  0.00    -0.139 NA
ATOM     13  N   UNL d   1      44.735  29.667  56.643  0.00  0.00    -0.121 NA
ENDBRANCH   5   6
ENDBRANCH   4   5
ENDBRANCH   1   4
BRANCH   2  14
ATOM     14  C   UNL d   1      44.458  25.878  56.466  0.00  0.00     0.087 A 
ATOM     15  C   UNL d   1      44.677  25.518  55.755  0.00  0.00     0.045 A 
ATOM     16  C   UNL d   1      44.806  24.709  55.733  0.00  0.00     0.121 A 
ATOM     17  O   UNL d   1      45.026  24.194  55.120  0.00  0.00    -0.299 OA
ATOM     18  C   UNL d   1      44.718  24.254  56.416  0.00  0.00     0.119 A 
ATOM     19  C   UNL d   1      45.074  23.432  55.419  0.00  0.00     0.304 A 
ATOM     20  O   UNL d   1      44.884  23.468  56.222  0.00  0.00    -0.300 OA
ATOM     21  C   UNL d   1      44.500  24.615  57.125  0.00  0.00     0.028 A 
ATOM     22  C   UNL d   1      44.368  25.434  57.151  0.00  0.00     0.021 A 
ENDBRANCH   2  14
TORSDOF 4
ENDMDL
MODEL 5
REMARK VINA RESULT:      -5.5     10.351     10.937
REMARK  4 active torsions:
REMARK  status: ('A' for Active; 'I' for Inactive)
REMARK    1  A    between atoms: S_7  and  C_2 
REMARK    2  A    between atoms: C_20  and  S_7 
REMARK    3  A    between atoms: C_10  and  C_20 
REMARK       I    between atoms: N_12  and  C_10 
REMARK    4  A    between atoms: C_15  and  N_12 
ROOT
ATOM      1  C   UNL d   1      45.117  28.035  57.870  0.00  0.00     0.286 C 
ATOM      2  N   UNL d   1      44.545  28.620  57.986  0.00  0.00    -0.207 NA
ATOM      3  O   UNL d   1      45.828  28.069  58.279  0.00  0.00    -0.265 OA
ENDROOT
BRANCH   1   4
ATOM      4  C   UNL d   1      44.957  27.429  57.343  0.00  0.00     0.101 C 
BRANCH   4   5
ATOM      5  S   UNL d   1      44.989  26.649  57.601  0.00  0.00    -0.041 SA
BRANCH   5   6
ATOM      6  C   UNL d   1      44.901  26.032  57.062  0.00  0.00     0.220 A 
ATOM      7  N   UNL d   1      44.653  25.289  57.321  0.00  0.00    -0.148 N 
ATOM      8  C   UNL d   1      44.560  24.660  56.786  0.00  0.00     0.305 A 
ATOM      9  N   UNL d   1      44.493  25.162  58.119  0.00  0.00    -0.037 N 
ATOM     10  C   UNL d   1      44.724  24.798  55.984  0.00  0.00     0.185 A 
ATOM     11  O   UNL d   1      44.314  23.924  57.043  0.00  0.00    -0.263 OA
ATOM     12  N   UNL d   1      44.972  25.541  55.725  0.00  0.00    -0.139 NA
ATOM     13  N   UNL d   1      45.059  26.155  56.265  0.00  0.00    -0.121 NA
ENDBRANCH   5   6
ENDBRANCH   4   5
ENDBRANCH   1   4
BRANCH   2  14
ATOM     14  C   UNL d   1      44.693  29.239  58.515  0.00  0.00     0.087 A 
ATOM     15  C   UNL d   1      44.477  29.160  59.309  0.00  0.00     0.045 A 
ATOM     16  C   UNL d   1      44.624  29.772  59.833  0.00  0.00     0.121 A 
ATOM     17  O   UNL d   1      44.477  29.860  60.646  0.00  0.00    -0.299 OA
ATOM     18  C   UNL d   1      44.985  30.466  59.573  0.00  0.00     0.119 A 
ATOM     19  C   UNL d   1      44.744  30.598  60.884  0.00  0.00     0.304 A 
ATOM     20  O   UNL d   1      45.059  30.974  60.221  0.00  0.00    -0.300 OA
ATOM     21  C   UNL d   1      45.201  30.545  58.780  0.00  0.00     0.028 A 
ATOM     22  C   UNL d   1      45.054  29.927  58.246  0.00  0.00     0.021 A 
ENDBRANCH   2  14
TORSDOF 4
ENDMDL
