MODEL 1
REMARK VINA RESULT:      -8.4      0.000      0.000
REMARK  5 active torsions:
REMARK  status: ('A' for Active; 'I' for Inactive)
REMARK    1  A    between atoms: C_4  and  N_1 
REMARK    2  A    between atoms: C_8  and  C_3 
REMARK    3  A    between atoms: N_7  and  C_4 
REMARK    4  A    between atoms: C_15  and  N_7 
REMARK    5  A    between atoms: C_17  and  C_15 
ROOT
ATOM      1  N   UNL d   1      53.181  32.868  53.359  0.00  0.00    -0.281 N 
ATOM      2  C   UNL d   1      52.751  34.138  53.819  0.00  0.00     0.080 A 
ATOM      3  C   UNL d   1      53.269  33.505  53.868  0.00  0.00     0.084 A 
ATOM      4  N   UNL d   1      52.146  34.135  53.264  0.00  0.00    -0.301 N 
ATOM      5  C   UNL d   1      52.571  32.864  52.799  0.00  0.00     0.101 A 
ATOM      6  C   UNL d   1      52.702  34.843  54.247  0.00  0.00     0.021 A 
ATOM      7  C   UNL d   1      51.718  34.836  53.343  0.00  0.00     0.080 A 
ATOM      8  C   UNL d   1      52.056  33.503  52.757  0.00  0.00     0.100 A 
ATOM      9  C   UNL d   1      52.058  35.277  53.951  0.00  0.00     0.021 A 
ENDROOT
BRANCH   1  10
ATOM     10  C   UNL d   1      53.699  32.223  53.400  0.00  0.00     0.184 C 
ATOM     11  S   UNL d   1      54.457  32.300  53.099  0.00  0.00    -0.040 SA
BRANCH  10  12
ATOM     12  N   UNL d   1      53.458  31.517  53.738  0.00  0.00    -0.330 N 
ATOM     13  H   UNL d   1      53.002  31.524  54.426  0.00  0.00     0.168 HD
BRANCH  12  14
ATOM     14  C   UNL d   1      53.668  30.803  53.393  0.00  0.00     0.074 C 
BRANCH  14  15
ATOM     15  C   UNL d   1      53.400  30.097  53.713  0.00  0.00     0.017 A 
ATOM     16  C   UNL d   1      53.750  29.788  54.397  0.00  0.00     0.002 A 
ATOM     17  C   UNL d   1      53.476  29.078  54.713  0.00  0.00     0.000 A 
ATOM     18  C   UNL d   1      52.852  28.669  54.354  0.00  0.00     0.000 A 
ATOM     19  C   UNL d   1      52.505  28.983  53.668  0.00  0.00     0.000 A 
ATOM     20  C   UNL d   1      52.779  29.695  53.349  0.00  0.00     0.002 A 
ENDBRANCH  14  15
ENDBRANCH  12  14
ENDBRANCH  10  12
ENDBRANCH   1  10
BRANCH   3  21
ATOM     21  C   UNL d   1      53.877  33.506  54.425  0.00  0.00     0.037 A 
ATOM     22  C   UNL d   1      53.744  33.210  55.183  0.00  0.00     0.100 A 
ATOM     23  N   UNL d   1      54.355  33.214  55.733  0.00  0.00    -0.242 NA
ATOM     24  C   UNL d   1      55.087  33.505  55.541  0.00  0.00     0.099 A 
ATOM     25  C   UNL d   1      55.227  33.804  54.782  0.00  0.00     0.021 A 
ATOM     26  C   UNL d   1      54.618  33.803  54.224  0.00  0.00     0.005 A 
ENDBRANCH   3  21
TORSDOF 5
ENDMDL
MODEL 2
REMARK VINA RESULT:      -8.2      1.135      3.826
REMARK  5 active torsions:
REMARK  status: ('A' for Active; 'I' for Inactive)
REMARK    1  A    between atoms: C_4  and  N_1 
REMARK    2  A    between atoms: C_8  and  C_3 
REMARK    3  A    between atoms: N_7  and  C_4 
REMARK    4  A    between atoms: C_15  and  N_7 
REMARK    5  A    between atoms: C_17  and  C_15 
ROOT
ATOM      1  N   UNL d   1      52.885  32.111  53.056  0.00  0.00    -0.281 N 
ATOM      2  C   UNL d   1      53.430  31.008  53.759  0.00  0.00     0.080 A 
ATOM      3  C   UNL d   1      53.373  31.817  53.646  0.00  0.00     0.084 A 
ATOM      4  N   UNL d   1      53.001  30.493  53.285  0.00  0.00    -0.301 N 
ATOM      5  C   UNL d   1      52.452  31.593  52.577  0.00  0.00     0.101 A 
ATOM      6  C   UNL d   1      53.866  30.556  54.297  0.00  0.00     0.021 A 
ATOM      7  C   UNL d   1      53.166  29.720  53.523  0.00  0.00     0.080 A 
ATOM      8  C   UNL d   1      52.515  30.782  52.698  0.00  0.00     0.100 A 
ATOM      9  C   UNL d   1      53.702  29.755  54.150  0.00  0.00     0.021 A 
ENDROOT
BRANCH   1  10
ATOM     10  C   UNL d   1      52.821  32.928  52.933  0.00  0.00     0.184 C 
ATOM     11  S   UNL d   1      53.468  33.342  52.651  0.00  0.00    -0.040 SA
BRANCH  10  12
ATOM     12  N   UNL d   1      52.118  33.317  53.093  0.00  0.00    -0.330 N 
ATOM     13  H   UNL d   1      51.642  33.069  53.720  0.00  0.00     0.168 HD
BRANCH  12  14
ATOM     14  C   UNL d   1      51.886  33.953  52.629  0.00  0.00     0.074 C 
BRANCH  14  15
ATOM     15  C   UNL d   1      51.115  34.229  52.666  0.00  0.00     0.017 A 
ATOM     16  C   UNL d   1      50.814  34.536  53.374  0.00  0.00     0.002 A 
ATOM     17  C   UNL d   1      50.037  34.812  53.404  0.00  0.00     0.000 A 
ATOM     18  C   UNL d   1      49.553  34.786  52.733  0.00  0.00     0.000 A 
ATOM     19  C   UNL d   1      49.860  34.477  52.026  0.00  0.00     0.000 A 
ATOM     20  C   UNL d   1      50.639  34.200  51.993  0.00  0.00     0.002 A 
ENDBRANCH  14  15
ENDBRANCH  12  14
ENDBRANCH  10  12
ENDBRANCH   1  10
BRANCH   3  21
ATOM     21  C   UNL d   1      53.803  32.335  54.121  0.00  0.00     0.037 A 
ATOM     22  C   UNL d   1      53.508  32.564  54.857  0.00  0.00     0.100 A 
ATOM     23  N   UNL d   1      53.942  33.081  55.325  0.00  0.00    -0.242 NA
ATOM     24  C   UNL d   1      54.657  33.370  55.075  0.00  0.00     0.099 A 
ATOM     25  C   UNL d   1      54.960  33.145  54.338  0.00  0.00     0.021 A 
ATOM     26  C   UNL d   1      54.529  32.626  53.862  0.00  0.00     0.005 A 
ENDBRANCH   3  21
TORSDOF 5
ENDMDL
MODEL 3
REMARK VINA RESULT:      -7.8      0.935      2.254
REMARK  5 active torsions:
REMARK  status: ('A' for Active; 'I' for Inactive)
REMARK    1  A    between atoms: C_4  and  N_1 
REMARK    2  A    between atoms: C_8  and  C_3 
REMARK    3  A    between atoms: N_7  and  C_4 
REMARK    4  A    between atoms: C_15  and  N_7 
REMARK    5  A    between atoms: C_17  and  C_15 
ROOT
ATOM      1  N   UNL d   1      53.288  33.334  53.726  0.00  0.00    -0.281 N 
ATOM      2  C   UNL d   1      52.878  34.556  54.317  0.00  0.00     0.080 A 
ATOM      3  C   UNL d   1      52.734  33.935  53.803  0.00  0.00     0.084 A 
ATOM      4  N   UNL d   1      53.573  34.578  54.754  0.00  0.00    -0.301 N 
ATOM      5  C   UNL d   1      53.988  33.356  54.167  0.00  0.00     0.101 A 
ATOM      6  C   UNL d   1      52.435  35.226  54.509  0.00  0.00     0.021 A 
ATOM      7  C   UNL d   1      53.566  35.260  55.219  0.00  0.00     0.080 A 
ATOM      8  C   UNL d   1      54.125  33.982  54.681  0.00  0.00     0.100 A 
ATOM      9  C   UNL d   1      52.863  35.664  55.070  0.00  0.00     0.021 A 
ENDROOT
BRANCH   1  10
ATOM     10  C   UNL d   1      53.152  32.702  53.208  0.00  0.00     0.184 C 
ATOM     11  S   UNL d   1      53.177  32.834  52.401  0.00  0.00    -0.040 SA
BRANCH  10  12
ATOM     12  N   UNL d   1      52.993  31.953  53.501  0.00  0.00    -0.330 N 
ATOM     13  H   UNL d   1      52.547  31.865  54.190  0.00  0.00     0.168 HD
BRANCH  12  14
ATOM     14  C   UNL d   1      53.277  31.291  53.109  0.00  0.00     0.074 C 
BRANCH  14  15
ATOM     15  C   UNL d   1      53.132  30.542  53.410  0.00  0.00     0.017 A 
ATOM     16  C   UNL d   1      53.626  30.222  53.994  0.00  0.00     0.002 A 
ATOM     17  C   UNL d   1      53.474  29.469  54.291  0.00  0.00     0.000 A 
ATOM     18  C   UNL d   1      52.832  29.026  54.013  0.00  0.00     0.000 A 
ATOM     19  C   UNL d   1      52.340  29.352  53.428  0.00  0.00     0.000 A 
ATOM     20  C   UNL d   1      52.491  30.107  53.128  0.00  0.00     0.002 A 
ENDBRANCH  14  15
ENDBRANCH  12  14
ENDBRANCH  10  12
ENDBRANCH   1  10
BRANCH   3  21
ATOM     21  C   UNL d   1      52.037  33.911  53.363  0.00  0.00     0.037 A 
ATOM     22  C   UNL d   1      51.366  33.544  53.670  0.00  0.00     0.100 A 
ATOM     23  N   UNL d   1      50.675  33.525  53.226  0.00  0.00    -0.242 NA
ATOM     24  C   UNL d   1      50.642  33.861  52.489  0.00  0.00     0.099 A 
ATOM     25  C   UNL d   1      51.313  34.231  52.174  0.00  0.00     0.021 A 
ATOM     26  C   UNL d   1      52.011  34.255  52.615  0.00  0.00     0.005 A 
ENDBRANCH   3  21
TORSDOF 5
ENDMDL
MODEL 4
REMARK VINA RESULT:      -6.4      1.555      4.163
REMARK  5 active torsions:
REMARK  status: ('A' for Active; 'I' for Inactive)
REMARK    1  A    between atoms: C_4  and  N_1 
REMARK    2  A    between atoms: C_8  and  C_3 
REMARK    3  A    between atoms: N_7  and  C_4 
REMARK    4  A    between atoms: C_15  and  N_7 
REMARK    5  A    between atoms: C_17  and  C_15 
ROOT
ATOM      1  N   UNL d   1      52.832  33.976  53.543  0.00  0.00    -0.281 N 
ATOM      2  C   UNL d   1      53.595  33.282  54.515  0.00  0.00     0.080 A 
ATOM      3  C   UNL d   1      53.120  33.271  53.848  0.00  0.00     0.084 A 
ATOM      4  N   UNL d   1      53.782  33.995  54.878  0.00  0.00    -0.301 N 
ATOM      5  C   UNL d   1      53.019  34.695  53.908  0.00  0.00     0.101 A 
ATOM      6  C   UNL d   1      53.960  32.676  54.941  0.00  0.00     0.021 A 
ATOM      7  C   UNL d   1      54.263  33.837  55.529  0.00  0.00     0.080 A 
ATOM      8  C   UNL d   1      53.496  34.697  54.577  0.00  0.00     0.100 A 
ATOM      9  C   UNL d   1      54.376  33.022  55.573  0.00  0.00     0.021 A 
ENDROOT
BRANCH   1  10
ATOM     10  C   UNL d   1      52.351  33.975  52.868  0.00  0.00     0.184 C 
ATOM     11  S   UNL d   1      52.693  33.861  52.134  0.00  0.00    -0.040 SA
BRANCH  10  12
ATOM     12  N   UNL d   1      51.542  34.088  52.935  0.00  0.00    -0.330 N 
ATOM     13  H   UNL d   1      51.143  33.823  53.609  0.00  0.00     0.168 HD
BRANCH  12  14
ATOM     14  C   UNL d   1      51.128  34.463  52.335  0.00  0.00     0.074 C 
BRANCH  14  15
ATOM     15  C   UNL d   1      50.322  34.592  52.410  0.00  0.00     0.017 A 
ATOM     16  C   UNL d   1      50.017  34.953  53.091  0.00  0.00     0.002 A 
ATOM     17  C   UNL d   1      49.206  35.079  53.159  0.00  0.00     0.000 A 
ATOM     18  C   UNL d   1      48.689  34.850  52.554  0.00  0.00     0.000 A 
ATOM     19  C   UNL d   1      49.000  34.489  51.874  0.00  0.00     0.000 A 
ATOM     20  C   UNL d   1      49.814  34.360  51.803  0.00  0.00     0.002 A 
ENDBRANCH  14  15
ENDBRANCH  12  14
ENDBRANCH  10  12
ENDBRANCH   1  10
BRANCH   3  21
ATOM     21  C   UNL d   1      52.932  32.557  53.482  0.00  0.00     0.037 A 
ATOM     22  C   UNL d   1      53.404  32.268  52.870  0.00  0.00     0.100 A 
ATOM     23  N   UNL d   1      53.210  31.554  52.511  0.00  0.00    -0.242 NA
ATOM     24  C   UNL d   1      52.561  31.130  52.749  0.00  0.00     0.099 A 
ATOM     25  C   UNL d   1      52.083  31.414  53.362  0.00  0.00     0.021 A 
ATOM     26  C   UNL d   1      52.272  32.130  53.728  0.00  0.00     0.005 A 
ENDBRANCH   3  21
TORSDOF 5
ENDMDL
MODEL 5
REMARK VINA RESULT:      -6.2      1.722      4.119
REMARK  5 active torsions:
REMARK  status: ('A' for Active; 'I' for Inactive)
REMARK    1  A    between atoms: C_4  and  N_1 
REMARK    2  A    between atoms: C_8  and  C_3 
REMARK    3  A    between atoms: N_7  and  C_4 
REMARK    4  A    between atoms: C_15  and  N_7 
REMARK    5  A    between atoms: C_17  and  C_15 
ROOT
ATOM      1  N   UNL d   1      52.425  33.407  53.068  0.00  0.00    -0.281 N 
ATOM      2  C   UNL d   1      53.314  32.936  54.067  0.00  0.00     0.080 A 
ATOM      3  C   UNL d   1      52.914  33.555  53.710  0.00  0.00     0.084 A 
ATOM      4  N   UNL d   1      53.227  32.170  53.783  0.00  0.00    -0.301 N 
ATOM      5  C   UNL d   1      52.337  32.636  52.782  0.00  0.00     0.101 A 
ATOM      6  C   UNL d   1      53.834  32.913  54.708  0.00  0.00     0.021 A 
ATOM      7  C   UNL d   1      53.691  31.668  54.245  0.00  0.00     0.080 A 
ATOM      8  C   UNL d   1      52.742  32.020  53.145  0.00  0.00     0.100 A 
ATOM      9  C   UNL d   1      54.068  32.123  54.819  0.00  0.00     0.021 A 
ENDROOT
BRANCH   1  10
ATOM     10  C   UNL d   1      52.016  34.027  52.701  0.00  0.00     0.184 C 
ATOM     11  S   UNL d   1      52.414  34.514  52.178  0.00  0.00    -0.040 SA
BRANCH  10  12
ATOM     12  N   UNL d   1      51.222  34.151  52.859  0.00  0.00    -0.330 N 
ATOM     13  H   UNL d   1      50.961  34.216  53.640  0.00  0.00     0.168 HD
BRANCH  12  14
ATOM     14  C   UNL d   1      50.684  34.210  52.242  0.00  0.00     0.074 C 
BRANCH  14  15
ATOM     15  C   UNL d   1      49.955  34.564  52.365  0.00  0.00     0.017 A 
ATOM     16  C   UNL d   1      49.766  34.888  53.104  0.00  0.00     0.002 A 
ATOM     17  C   UNL d   1      49.031  35.243  53.219  0.00  0.00     0.000 A 
ATOM     18  C   UNL d   1      48.478  35.280  52.605  0.00  0.00     0.000 A 
ATOM     19  C   UNL d   1      48.673  34.954  51.867  0.00  0.00     0.000 A 
ATOM     20  C   UNL d   1      49.409  34.597  51.747  0.00  0.00     0.002 A 
ENDBRANCH  14  15
ENDBRANCH  12  14
ENDBRANCH  10  12
ENDBRANCH   1  10
BRANCH   3  21
ATOM     21  C   UNL d   1      53.000  34.325  53.994  0.00  0.00     0.037 A 
ATOM     22  C   UNL d   1      52.588  34.566  54.666  0.00  0.00     0.100 A 
ATOM     23  N   UNL d   1      52.679  35.335  54.943  0.00  0.00    -0.242 NA
ATOM     24  C   UNL d   1      53.167  35.860  54.565  0.00  0.00     0.099 A 
ATOM     25  C   UNL d   1      53.583  35.624  53.889  0.00  0.00     0.021 A 
ATOM     26  C   UNL d   1      53.497  34.853  53.605  0.00  0.00     0.005 A 
ENDBRANCH   3  21
TORSDOF 5
ENDMDL
