MODEL 1
REMARK VINA RESULT:      63.1      0.000      0.000
REMARK  3 active torsions:
REMARK  status: ('A' for Active; 'I' for Inactive)
REMARK    1  A    between atoms: C_6  and  N_1 
REMARK    2  A    between atoms: C_2  and  C_8 
REMARK    3  A    between atoms: N_3  and  C_2 
REMARK       I    between atoms: C_5  and  N_4 
ROOT
ATOM      1  C   UNL d   1      60.617  49.060  50.648  0.00  0.00     0.120 C 
ATOM      2  S   UNL d   1      61.121  49.703  50.770  0.00  0.00    -0.059 SA
ENDROOT
BRANCH   1   3
ATOM      3  C   UNL d   1      60.917  48.294  50.649  0.00  0.00     0.027 A 
ATOM      4  C   UNL d   1      60.646  47.746  51.203  0.00  0.00     0.004 A 
ATOM      5  C   UNL d   1      60.949  46.976  51.203  0.00  0.00     0.024 A 
ATOM      6  C   UNL d   1      61.520  46.758  50.651  0.00  0.00     0.127 A 
ATOM      7  C   UNL d   1      61.790  47.306  50.097  0.00  0.00     0.024 A 
ATOM      8  C   UNL d   1      61.490  48.073  50.096  0.00  0.00     0.004 A 
BRANCH   6   9
ATOM      9  N   UNL d   1      61.821  45.990  50.653  0.00  0.00    -0.114 N 
ATOM     10  O   UNL d   1      62.358  45.806  50.052  0.00  0.00    -0.532 OA
ATOM     11  O   UNL d   1      61.615  45.414  51.212  0.00  0.00    -0.532 OA
ENDBRANCH   6   9
ENDBRANCH   1   3
BRANCH   1  12
ATOM     12  N   UNL d   1      59.812  49.186  50.524  0.00  0.00    -0.293 N 
ATOM     13  C   UNL d   1      59.308  49.330  51.167  0.00  0.00     0.100 A 
ATOM     14  C   UNL d   1      58.504  49.455  51.043  0.00  0.00     0.102 A 
ATOM     15  N   UNL d   1      58.197  49.439  50.278  0.00  0.00    -0.269 N 
ATOM     16  C   UNL d   1      58.700  49.295  49.634  0.00  0.00     0.102 A 
ATOM     17  C   UNL d   1      57.392  49.565  50.153  0.00  0.00     0.265 C 
ATOM     18  C   UNL d   1      59.505  49.170  49.758  0.00  0.00     0.100 A 
ATOM     19  O   UNL d   1      57.085  49.548  49.388  0.00  0.00    -0.267 OA
ATOM     20  C   UNL d   1      56.890  49.707  50.793  0.00  0.00     0.066 C 
ENDBRANCH   1  12
TORSDOF 3
ENDMDL
