MODEL 1
REMARK VINA RESULT:      49.9      0.000      0.000
REMARK  3 active torsions:
REMARK  status: ('A' for Active; 'I' for Inactive)
REMARK    1  A    between atoms: N_2  and  C_12 
REMARK    2  A    between atoms: N_10  and  C_6 
REMARK       I    between atoms: C_11  and  N_10 
REMARK    3  A    between atoms: C_12  and  C_11 
ROOT
ATOM      1  C   UNL d   1      58.164  49.660  49.461  0.00  0.00     0.283 A 
ATOM      2  N   UNL d   1      57.508  49.628  48.929  0.00  0.00    -0.169 NA
ATOM      3  C   UNL d   1      57.801  49.644  50.238  0.00  0.00     0.080 A 
ATOM      4  C   UNL d   1      56.833  49.597  49.361  0.00  0.00     0.282 A 
ATOM      5  C   UNL d   1      58.142  49.662  50.987  0.00  0.00     0.089 A 
ATOM      6  C   UNL d   1      56.986  49.606  50.132  0.00  0.00     0.064 A 
ATOM      7  O   UNL d   1      59.002  49.699  49.319  0.00  0.00    -0.265 OA
ATOM      8  O   UNL d   1      56.066  49.561  49.009  0.00  0.00    -0.265 OA
ATOM      9  C   UNL d   1      57.642  49.639  51.655  0.00  0.00     0.019 A 
ATOM     10  C   UNL d   1      56.499  49.584  50.806  0.00  0.00     0.005 A 
ATOM     11  C   UNL d   1      56.833  49.601  51.530  0.00  0.00     0.002 A 
ENDROOT
BRANCH   5  12
ATOM     12  N   UNL d   1      59.018  49.703  51.102  0.00  0.00    -0.207 NA
ATOM     13  C   UNL d   1      59.410  48.980  51.215  0.00  0.00     0.297 C 
ATOM     14  O   UNL d   1      59.030  48.269  51.223  0.00  0.00    -0.264 OA
BRANCH  13  15
ATOM     15  C   UNL d   1      60.227  49.025  51.322  0.00  0.00     0.148 C 
BRANCH  15  16
ATOM     16  N   UNL d   1      60.678  48.380  51.095  0.00  0.00    -0.236 N 
ATOM     17  C   UNL d   1      60.694  47.598  51.391  0.00  0.00     0.267 A 
ATOM     18  C   UNL d   1      61.268  47.181  50.941  0.00  0.00     0.066 A 
ATOM     19  O   UNL d   1      60.224  47.287  52.019  0.00  0.00    -0.267 OA
ATOM     20  C   UNL d   1      61.583  47.702  50.395  0.00  0.00     0.066 A 
ATOM     21  C   UNL d   1      61.214  48.454  50.490  0.00  0.00     0.267 A 
ATOM     22  O   UNL d   1      61.345  49.166  50.066  0.00  0.00    -0.267 OA
ENDBRANCH  15  16
ENDBRANCH  13  15
ENDBRANCH   5  12
TORSDOF 3
ENDMDL
