MODEL 1
REMARK VINA RESULT:      -4.1      0.000      0.000
REMARK  2 active torsions:
REMARK  status: ('A' for Active; 'I' for Inactive)
REMARK    1  A    between atoms: C_9  and  C_2 
REMARK    2  A    between atoms: C_12  and  C_7 
ROOT
ATOM      1  N   UNL d   1      58.719  -0.681  29.534  0.00  0.00    -0.186 N 
ATOM      2  C   UNL d   1      59.201  -1.145  29.042  0.00  0.00     0.187 A 
ATOM      3  N   UNL d   1      58.279  -0.870  30.197  0.00  0.00    -0.162 NA
ATOM      4  C   UNL d   1      58.734   0.095  29.246  0.00  0.00     0.217 A 
ATOM      5  N   UNL d   1      59.506  -0.654  28.457  0.00  0.00    -0.127 NA
ATOM      6  N   UNL d   1      59.218   0.111  28.583  0.00  0.00    -0.120 NA
ATOM      7  C   UNL d   1      57.841  -0.286  30.589  0.00  0.00     0.108 A 
ATOM      8  S   UNL d   1      58.301   0.681  29.630  0.00  0.00    -0.045 SA
ATOM      9  C   UNL d   1      57.852   0.491  30.304  0.00  0.00     0.059 A 
ENDROOT
BRANCH   2  10
ATOM     10  C   UNL d   1      59.342  -1.960  29.132  0.00  0.00     0.038 A 
ATOM     11  C   UNL d   1      58.841  -2.504  28.765  0.00  0.00     0.003 A 
ATOM     12  C   UNL d   1      58.974  -3.305  28.850  0.00  0.00     0.000 A 
ATOM     13  C   UNL d   1      58.474  -3.840  28.484  0.00  0.00     0.000 C 
ATOM     14  C   UNL d   1      59.614  -3.559  29.305  0.00  0.00     0.000 A 
ATOM     15  C   UNL d   1      60.113  -3.019  29.671  0.00  0.00     0.000 A 
ATOM     16  C   UNL d   1      59.974  -2.216  29.582  0.00  0.00     0.003 A 
ENDBRANCH   2  10
BRANCH   7  17
ATOM     17  C   UNL d   1      57.396  -0.472  31.256  0.00  0.00     0.020 A 
ATOM     18  C   UNL d   1      57.003  -1.199  31.301  0.00  0.00     0.002 A 
ATOM     19  C   UNL d   1      56.559  -1.378  31.974  0.00  0.00     0.000 A 
ATOM     20  C   UNL d   1      56.506  -0.844  32.594  0.00  0.00     0.000 A 
ATOM     21  C   UNL d   1      56.900  -0.117  32.548  0.00  0.00     0.000 A 
ATOM     22  C   UNL d   1      57.349   0.070  31.874  0.00  0.00     0.002 A 
ENDBRANCH   7  17
TORSDOF 2
ENDMDL
MODEL 2
REMARK VINA RESULT:      -3.0      0.903      3.642
REMARK  2 active torsions:
REMARK  status: ('A' for Active; 'I' for Inactive)
REMARK    1  A    between atoms: C_9  and  C_2 
REMARK    2  A    between atoms: C_12  and  C_7 
ROOT
ATOM      1  N   UNL d   1      58.140  -0.274  29.832  0.00  0.00    -0.186 N 
ATOM      2  C   UNL d   1      57.614   0.115  30.344  0.00  0.00     0.187 A 
ATOM      3  N   UNL d   1      58.675  -0.879  29.963  0.00  0.00    -0.162 NA
ATOM      4  C   UNL d   1      58.055   0.058  29.080  0.00  0.00     0.217 A 
ATOM      5  N   UNL d   1      57.211   0.681  29.903  0.00  0.00    -0.127 NA
ATOM      6  N   UNL d   1      57.483   0.646  29.123  0.00  0.00    -0.120 NA
ATOM      7  C   UNL d   1      59.139  -1.167  29.341  0.00  0.00     0.108 A 
ATOM      8  S   UNL d   1      58.513  -0.224  28.455  0.00  0.00    -0.045 SA
ATOM      9  C   UNL d   1      59.058  -0.838  28.585  0.00  0.00     0.059 A 
ENDROOT
BRANCH   2  10
ATOM     10  C   UNL d   1      57.519  -0.045  31.154  0.00  0.00     0.038 A 
ATOM     11  C   UNL d   1      56.933  -0.573  31.400  0.00  0.00     0.003 A 
ATOM     12  C   UNL d   1      56.834  -0.735  32.194  0.00  0.00     0.000 A 
ATOM     13  C   UNL d   1      56.253  -1.259  32.432  0.00  0.00     0.000 C 
ATOM     14  C   UNL d   1      57.327  -0.364  32.742  0.00  0.00     0.000 A 
ATOM     15  C   UNL d   1      57.910   0.162  32.500  0.00  0.00     0.000 A 
ATOM     16  C   UNL d   1      58.004   0.320  31.702  0.00  0.00     0.003 A 
ENDBRANCH   2  10
BRANCH   7  17
ATOM     17  C   UNL d   1      59.679  -1.776  29.467  0.00  0.00     0.020 A 
ATOM     18  C   UNL d   1      59.427  -2.563  29.444  0.00  0.00     0.002 A 
ATOM     19  C   UNL d   1      59.974  -3.168  29.572  0.00  0.00     0.000 A 
ATOM     20  C   UNL d   1      60.761  -2.994  29.722  0.00  0.00     0.000 A 
ATOM     21  C   UNL d   1      61.013  -2.205  29.744  0.00  0.00     0.000 A 
ATOM     22  C   UNL d   1      60.468  -1.591  29.616  0.00  0.00     0.002 A 
ENDBRANCH   7  17
TORSDOF 2
ENDMDL
