MODEL 1
REMARK VINA RESULT:       6.7      0.000      0.000
REMARK  4 active torsions:
REMARK  status: ('A' for Active; 'I' for Inactive)
REMARK    1  A    between atoms: C_2  and  C_1 
REMARK    2  A    between atoms: C_4  and  C_1 
REMARK    3  A    between atoms: C_5  and  C_2 
REMARK    4  A    between atoms: N_6  and  C_5 
ROOT
ATOM      1  C   UNL d   1     -55.306-102.461 -37.259  0.00  0.00     0.197 C 
ATOM      2  O   UNL d   1     -55.833-102.815 -36.721  0.00  0.00    -0.286 OA
ENDROOT
BRANCH   1   3
ATOM      3  C   UNL d   1     -54.711-101.978 -36.994  0.00  0.00     0.061 C 
BRANCH   3   4
ATOM      4  C   UNL d   1     -54.717-101.698 -36.229  0.00  0.00     0.084 C 
BRANCH   4   5
ATOM      5  N   UNL d   1     -54.736-100.885 -36.088  0.00  0.00    -0.300 N 
ATOM      6  C   UNL d   1     -54.770-100.602 -35.317  0.00  0.00     0.100 C 
ATOM      7  C   UNL d   1     -54.721-100.358 -36.720  0.00  0.00     0.100 C 
ENDBRANCH   4   5
ENDBRANCH   3   4
ENDBRANCH   1   3
BRANCH   1   8
ATOM      8  C   UNL d   1     -55.387-102.604 -38.088  0.00  0.00     0.039 A 
ATOM      9  C   UNL d   1     -54.717-102.625 -38.573  0.00  0.00     0.003 A 
ATOM     10  C   UNL d   1     -54.790-102.761 -39.369  0.00  0.00     0.000 A 
ATOM     11  C   UNL d   1     -55.538-102.879 -39.696  0.00  0.00     0.000 A 
ATOM     12  C   UNL d   1     -56.220-102.862 -39.227  0.00  0.00     0.000 A 
ATOM     13  C   UNL d   1     -56.127-102.719 -38.402  0.00  0.00     0.003 A 
ENDBRANCH   1   8
TORSDOF 4
ENDMDL
