MODEL 1
REMARK VINA RESULT:     107.4      0.000      0.000
REMARK  6 active torsions:
REMARK  status: ('A' for Active; 'I' for Inactive)
REMARK    1  A    between atoms: C_5  and  N_1 
REMARK    2  A    between atoms: N_2  and  C_5 
REMARK    3  A    between atoms: C_12  and  C_9 
REMARK    4  A    between atoms: C_14  and  C_10 
REMARK    5  A    between atoms: O_29  and  C_20 
REMARK    6  A    between atoms: O_28  and  C_21 
ROOT
ATOM      1  N   UNL d   1     -49.875  27.301  36.016  0.00  0.00    -0.211 N 
ATOM      2  N   UNL d   1     -49.370  27.908  36.216  0.00  0.00    -0.164 NA
ATOM      3  C   UNL d   1     -49.063  28.215  35.512  0.00  0.00     0.103 A 
ATOM      4  C   UNL d   1     -49.881  27.232  35.203  0.00  0.00     0.086 A 
ATOM      5  C   UNL d   1     -49.372  27.807  34.909  0.00  0.00     0.040 A 
ENDROOT
BRANCH   1   6
ATOM      6  C   UNL d   1     -50.338  26.792  36.474  0.00  0.00     0.186 C 
BRANCH   6   7
ATOM      7  N   UNL d   1     -50.552  27.017  37.235  0.00  0.00    -0.254 N 
ATOM      8  C   UNL d   1     -50.289  27.661  37.686  0.00  0.00     0.305 A 
ATOM      9  C   UNL d   1     -50.642  27.683  38.416  0.00  0.00     0.253 A 
ATOM     10  O   UNL d   1     -49.908  27.685  36.966  0.00  0.00    -0.263 OA
ATOM     11  O   UNL d   1     -50.522  28.238  39.012  0.00  0.00    -0.281 OA
ATOM     12  C   UNL d   1     -51.154  27.027  38.442  0.00  0.00     0.060 A 
ATOM     13  C   UNL d   1     -51.099  26.620  37.722  0.00  0.00     0.072 A 
ATOM     14  C   UNL d   1     -51.668  26.750  39.042  0.00  0.00     0.005 A 
ATOM     15  C   UNL d   1     -51.557  25.931  37.591  0.00  0.00     0.018 A 
ATOM     16  C   UNL d   1     -52.059  25.667  38.186  0.00  0.00     0.002 A 
ATOM     17  C   UNL d   1     -52.114  26.073  38.906  0.00  0.00     0.000 A 
ENDBRANCH   6   7
ENDBRANCH   1   6
BRANCH   4  18
ATOM     18  C   UNL d   1     -50.298  26.708  34.734  0.00  0.00     0.018 A 
ATOM     19  C   UNL d   1     -49.929  26.067  34.367  0.00  0.00     0.004 A 
ATOM     20  C   UNL d   1     -50.361  25.535  33.888  0.00  0.00     0.024 A 
ATOM     21  C   UNL d   1     -51.164  25.648  33.778  0.00  0.00     0.094 A 
ATOM     22  C   UNL d   1     -51.542  26.291  34.145  0.00  0.00     0.024 A 
ATOM     23  C   UNL d   1     -51.118  26.817  34.618  0.00  0.00     0.004 A 
BRANCH  21  24
ATOM     24  O   UNL d   1     -51.598  25.124  33.306  0.00  0.00    -0.328 OA
ATOM     25  C   UNL d   1     -51.411  24.315  33.306  0.00  0.00     0.181 C 
ENDBRANCH  21  24
ENDBRANCH   4  18
BRANCH   3  26
ATOM     26  C   UNL d   1     -48.525  28.843  35.468  0.00  0.00     0.019 A 
ATOM     27  C   UNL d   1     -47.859  28.838  35.966  0.00  0.00     0.004 A 
ATOM     28  C   UNL d   1     -47.320  29.448  35.935  0.00  0.00     0.024 A 
ATOM     29  C   UNL d   1     -47.456  30.047  35.409  0.00  0.00     0.094 A 
ATOM     30  C   UNL d   1     -48.100  30.057  34.923  0.00  0.00     0.024 A 
ATOM     31  C   UNL d   1     -48.640  29.447  34.954  0.00  0.00     0.004 A 
BRANCH  29  32
ATOM     32  O   UNL d   1     -46.917  30.654  35.380  0.00  0.00    -0.328 OA
ATOM     33  C   UNL d   1     -47.158  31.419  35.158  0.00  0.00     0.181 C 
ENDBRANCH  29  32
ENDBRANCH   3  26
TORSDOF 6
ENDMDL
