MODEL 1
REMARK VINA RESULT:      -3.2      0.000      0.000
REMARK  11 active torsions:
REMARK  status: ('A' for Active; 'I' for Inactive)
REMARK    1  A    between atoms: C_2  and  N_1 
REMARK    2  A    between atoms: C_4  and  C_2 
REMARK    3  A    between atoms: C_5  and  C_2 
REMARK    4  A    between atoms: C_3  and  N_6 
REMARK    5  A    between atoms: N_15  and  C_3 
REMARK    6  A    between atoms: N_6  and  C_4 
REMARK    7  A    between atoms: C_16  and  N_7 
REMARK    8  A    between atoms: C_20  and  N_15 
REMARK    9  A    between atoms: C_19  and  C_16 
REMARK   10  A    between atoms: C_23  and  C_20 
REMARK   11  A    between atoms: C_22  and  C_23 
ROOT
ATOM      1  C   UNL d   1     -46.110  13.019  22.622  0.00  0.00     0.088 C 
ENDROOT
BRANCH   1   2
ATOM      2  N   UNL d   1     -46.824  12.606  22.594  0.00  0.00    -0.300 N 
ATOM      3  C   UNL d   1     -47.271  12.606  21.899  0.00  0.00     0.100 A 
ATOM      4  C   UNL d   1     -47.985  12.193  21.872  0.00  0.00     0.100 A 
ATOM      5  N   UNL d   1     -48.254  11.781  22.531  0.00  0.00    -0.300 N 
ATOM      6  C   UNL d   1     -47.807  11.782  23.223  0.00  0.00     0.100 A 
ATOM      7  C   UNL d   1     -47.093  12.195  23.250  0.00  0.00     0.100 A 
BRANCH   5   8
ATOM      8  C   UNL d   1     -48.968  11.369  22.500  0.00  0.00     0.080 C 
BRANCH   8   9
ATOM      9  C   UNL d   1     -49.673  11.751  22.712  0.00  0.00     0.018 A 
ATOM     10  C   UNL d   1     -49.978  11.663  23.460  0.00  0.00     0.002 A 
ATOM     11  C   UNL d   1     -50.680  12.042  23.674  0.00  0.00     0.000 A 
ATOM     12  C   UNL d   1     -51.062  12.508  23.119  0.00  0.00     0.000 A 
ATOM     13  C   UNL d   1     -50.757  12.604  22.353  0.00  0.00     0.000 A 
ATOM     14  C   UNL d   1     -50.052  12.215  22.158  0.00  0.00     0.002 A 
ENDBRANCH   8   9
ENDBRANCH   5   8
ENDBRANCH   1   2
BRANCH   1  15
ATOM     15  C   UNL d   1     -45.396  12.624  22.548  0.00  0.00     0.100 C 
ATOM     16  C   UNL d   1     -45.267  11.940  22.973  0.00  0.00     0.022 C 
BRANCH  15  17
ATOM     17  N   UNL d   1     -44.824  12.921  22.048  0.00  0.00    -0.216 NA
BRANCH  17  18
ATOM     18  C   UNL d   1     -44.118  12.503  21.932  0.00  0.00     0.221 C 
ATOM     19  S   UNL d   1     -43.928  11.888  22.445  0.00  0.00    -0.037 SA
BRANCH  18  20
ATOM     20  N   UNL d   1     -43.623  12.704  21.317  0.00  0.00    -0.216 NA
BRANCH  20  21
ATOM     21  C   UNL d   1     -42.931  13.121  21.452  0.00  0.00     0.102 C 
BRANCH  21  22
ATOM     22  C   UNL d   1     -42.453  13.327  20.806  0.00  0.00     0.021 C 
BRANCH  22  23
ATOM     23  C   UNL d   1     -41.836  13.847  20.919  0.00  0.00     0.002 A 
ATOM     24  C   UNL d   1     -41.076  13.553  21.054  0.00  0.00     0.000 A 
ATOM     25  C   UNL d   1     -40.448  14.077  21.168  0.00  0.00     0.000 A 
ATOM     26  C   UNL d   1     -40.577  14.884  21.149  0.00  0.00     0.000 A 
ATOM     27  C   UNL d   1     -41.344  15.175  21.013  0.00  0.00     0.000 A 
ATOM     28  C   UNL d   1     -41.961  14.655  20.900  0.00  0.00     0.000 A 
ENDBRANCH  22  23
ENDBRANCH  21  22
ENDBRANCH  20  21
ENDBRANCH  18  20
ENDBRANCH  17  18
ENDBRANCH  15  17
ENDBRANCH   1  15
BRANCH   1  29
ATOM     29  C   UNL d   1     -46.118  13.838  22.725  0.00  0.00     0.047 A 
ATOM     30  S   UNL d   1     -46.272  14.402  22.140  0.00  0.00    -0.085 SA
ATOM     31  C   UNL d   1     -46.222  15.144  22.485  0.00  0.00     0.035 A 
ATOM     32  C   UNL d   1     -46.037  15.046  23.283  0.00  0.00     0.007 A 
ATOM     33  C   UNL d   1     -45.973  14.236  23.430  0.00  0.00     0.009 A 
ENDBRANCH   1  29
TORSDOF 11
ENDMDL
MODEL 2
REMARK VINA RESULT:      -2.1      1.211      6.350
REMARK  11 active torsions:
REMARK  status: ('A' for Active; 'I' for Inactive)
REMARK    1  A    between atoms: C_2  and  N_1 
REMARK    2  A    between atoms: C_4  and  C_2 
REMARK    3  A    between atoms: C_5  and  C_2 
REMARK    4  A    between atoms: C_3  and  N_6 
REMARK    5  A    between atoms: N_15  and  C_3 
REMARK    6  A    between atoms: N_6  and  C_4 
REMARK    7  A    between atoms: C_16  and  N_7 
REMARK    8  A    between atoms: C_20  and  N_15 
REMARK    9  A    between atoms: C_19  and  C_16 
REMARK   10  A    between atoms: C_23  and  C_20 
REMARK   11  A    between atoms: C_22  and  C_23 
ROOT
ATOM      1  C   UNL d   1     -46.202  12.823  22.731  0.00  0.00     0.088 C 
ENDROOT
BRANCH   1   2
ATOM      2  N   UNL d   1     -45.477  12.710  22.353  0.00  0.00    -0.300 N 
ATOM      3  C   UNL d   1     -44.852  12.359  22.763  0.00  0.00     0.100 A 
ATOM      4  C   UNL d   1     -44.127  12.247  22.385  0.00  0.00     0.100 A 
ATOM      5  N   UNL d   1     -44.024  12.482  21.603  0.00  0.00    -0.300 N 
ATOM      6  C   UNL d   1     -44.648  12.831  21.197  0.00  0.00     0.100 A 
ATOM      7  C   UNL d   1     -45.373  12.944  21.575  0.00  0.00     0.100 A 
BRANCH   5   8
ATOM      8  C   UNL d   1     -43.298  12.368  21.228  0.00  0.00     0.080 C 
BRANCH   8   9
ATOM      9  C   UNL d   1     -42.720  12.963  21.260  0.00  0.00     0.018 A 
ATOM     10  C   UNL d   1     -42.757  13.595  20.751  0.00  0.00     0.002 A 
ATOM     11  C   UNL d   1     -42.183  14.190  20.779  0.00  0.00     0.000 A 
ATOM     12  C   UNL d   1     -41.579  14.129  21.330  0.00  0.00     0.000 A 
ATOM     13  C   UNL d   1     -41.535  13.487  21.853  0.00  0.00     0.000 A 
ATOM     14  C   UNL d   1     -42.119  12.902  21.808  0.00  0.00     0.002 A 
ENDBRANCH   8   9
ENDBRANCH   5   8
ENDBRANCH   1   2
BRANCH   1  15
ATOM     15  C   UNL d   1     -46.479  13.579  22.887  0.00  0.00     0.100 C 
ATOM     16  C   UNL d   1     -46.149  14.012  23.494  0.00  0.00     0.022 C 
BRANCH  15  17
ATOM     17  N   UNL d   1     -47.081  13.886  22.431  0.00  0.00    -0.216 NA
BRANCH  17  18
ATOM     18  C   UNL d   1     -47.434  14.605  22.642  0.00  0.00     0.221 C 
ATOM     19  S   UNL d   1     -47.033  15.308  22.491  0.00  0.00    -0.037 SA
BRANCH  18  20
ATOM     20  N   UNL d   1     -48.169  14.610  22.994  0.00  0.00    -0.216 NA
BRANCH  20  21
ATOM     21  C   UNL d   1     -48.852  14.669  22.544  0.00  0.00     0.102 C 
BRANCH  21  22
ATOM     22  C   UNL d   1     -49.588  14.626  22.923  0.00  0.00     0.021 C 
BRANCH  22  23
ATOM     23  C   UNL d   1     -50.077  13.992  22.771  0.00  0.00     0.002 A 
ATOM     24  C   UNL d   1     -50.301  13.830  21.992  0.00  0.00     0.000 A 
ATOM     25  C   UNL d   1     -50.797  13.188  21.835  0.00  0.00     0.000 A 
ATOM     26  C   UNL d   1     -51.064  12.715  22.445  0.00  0.00     0.000 A 
ATOM     27  C   UNL d   1     -50.836  12.883  23.226  0.00  0.00     0.000 A 
ATOM     28  C   UNL d   1     -50.347  13.517  23.379  0.00  0.00     0.000 A 
ENDBRANCH  22  23
ENDBRANCH  21  22
ENDBRANCH  20  21
ENDBRANCH  18  20
ENDBRANCH  17  18
ENDBRANCH  15  17
ENDBRANCH   1  15
BRANCH   1  29
ATOM     29  C   UNL d   1     -46.651  12.167  22.954  0.00  0.00     0.047 A 
ATOM     30  S   UNL d   1     -47.174  11.747  22.470  0.00  0.00    -0.085 SA
ATOM     31  C   UNL d   1     -47.499  11.141  22.915  0.00  0.00     0.035 A 
ATOM     32  C   UNL d   1     -47.182  11.180  23.675  0.00  0.00     0.007 A 
ATOM     33  C   UNL d   1     -46.656  11.817  23.698  0.00  0.00     0.009 A 
ENDBRANCH   1  29
TORSDOF 11
ENDMDL
MODEL 3
REMARK VINA RESULT:      -2.1      1.568      2.268
REMARK  11 active torsions:
REMARK  status: ('A' for Active; 'I' for Inactive)
REMARK    1  A    between atoms: C_2  and  N_1 
REMARK    2  A    between atoms: C_4  and  C_2 
REMARK    3  A    between atoms: C_5  and  C_2 
REMARK    4  A    between atoms: C_3  and  N_6 
REMARK    5  A    between atoms: N_15  and  C_3 
REMARK    6  A    between atoms: N_6  and  C_4 
REMARK    7  A    between atoms: C_16  and  N_7 
REMARK    8  A    between atoms: C_20  and  N_15 
REMARK    9  A    between atoms: C_19  and  C_16 
REMARK   10  A    between atoms: C_23  and  C_20 
REMARK   11  A    between atoms: C_22  and  C_23 
ROOT
ATOM      1  C   UNL d   1     -46.065  12.825  22.369  0.00  0.00     0.088 C 
ENDROOT
BRANCH   1   2
ATOM      2  N   UNL d   1     -46.593  13.458  22.398  0.00  0.00    -0.300 N 
ATOM      3  C   UNL d   1     -46.509  14.035  22.984  0.00  0.00     0.100 A 
ATOM      4  C   UNL d   1     -47.037  14.669  23.013  0.00  0.00     0.100 A 
ATOM      5  N   UNL d   1     -47.645  14.730  22.462  0.00  0.00    -0.300 N 
ATOM      6  C   UNL d   1     -47.726  14.155  21.879  0.00  0.00     0.100 A 
ATOM      7  C   UNL d   1     -47.199  13.521  21.850  0.00  0.00     0.100 A 
BRANCH   5   8
ATOM      8  C   UNL d   1     -48.170  15.365  22.494  0.00  0.00     0.080 C 
BRANCH   8   9
ATOM      9  C   UNL d   1     -48.952  15.240  22.742  0.00  0.00     0.018 A 
ATOM     10  C   UNL d   1     -49.212  15.550  23.447  0.00  0.00     0.002 A 
ATOM     11  C   UNL d   1     -49.990  15.428  23.698  0.00  0.00     0.000 A 
ATOM     12  C   UNL d   1     -50.493  14.989  23.222  0.00  0.00     0.000 A 
ATOM     13  C   UNL d   1     -50.235  14.670  22.501  0.00  0.00     0.000 A 
ATOM     14  C   UNL d   1     -49.452  14.804  22.268  0.00  0.00     0.002 A 
ENDBRANCH   8   9
ENDBRANCH   5   8
ENDBRANCH   1   2
BRANCH   1  15
ATOM     15  C   UNL d   1     -45.423  12.839  21.859  0.00  0.00     0.100 C 
ATOM     16  C   UNL d   1     -45.540  12.724  21.060  0.00  0.00     0.022 C 
BRANCH  15  17
ATOM     17  N   UNL d   1     -44.677  12.967  22.160  0.00  0.00    -0.216 NA
BRANCH  17  18
ATOM     18  C   UNL d   1     -44.031  13.041  21.646  0.00  0.00     0.221 C 
ATOM     19  S   UNL d   1     -43.897  12.455  21.083  0.00  0.00    -0.037 SA
BRANCH  18  20
ATOM     20  N   UNL d   1     -43.537  13.687  21.703  0.00  0.00    -0.216 NA
BRANCH  20  21
ATOM     21  C   UNL d   1     -42.883  13.762  21.215  0.00  0.00     0.102 C 
BRANCH  21  22
ATOM     22  C   UNL d   1     -42.130  13.813  21.556  0.00  0.00     0.021 C 
BRANCH  22  23
ATOM     23  C   UNL d   1     -41.553  14.251  21.182  0.00  0.00     0.002 A 
ATOM     24  C   UNL d   1     -40.854  13.881  20.943  0.00  0.00     0.000 A 
ATOM     25  C   UNL d   1     -40.268  14.321  20.563  0.00  0.00     0.000 A 
ATOM     26  C   UNL d   1     -40.376  15.119  20.424  0.00  0.00     0.000 A 
ATOM     27  C   UNL d   1     -41.082  15.486  20.667  0.00  0.00     0.000 A 
ATOM     28  C   UNL d   1     -41.659  15.049  21.042  0.00  0.00     0.000 A 
ENDBRANCH  22  23
ENDBRANCH  21  22
ENDBRANCH  20  21
ENDBRANCH  18  20
ENDBRANCH  17  18
ENDBRANCH  15  17
ENDBRANCH   1  15
BRANCH   1  29
ATOM     29  C   UNL d   1     -46.187  12.171  22.858  0.00  0.00     0.047 A 
ATOM     30  S   UNL d   1     -46.914  11.813  23.022  0.00  0.00    -0.085 SA
ATOM     31  C   UNL d   1     -46.778  11.186  23.532  0.00  0.00     0.035 A 
ATOM     32  C   UNL d   1     -45.969  11.151  23.688  0.00  0.00     0.007 A 
ATOM     33  C   UNL d   1     -45.604  11.763  23.270  0.00  0.00     0.009 A 
ENDBRANCH   1  29
TORSDOF 11
ENDMDL
