MODEL 1
REMARK VINA RESULT:      55.9      0.000      0.000
REMARK  2 active torsions:
REMARK  status: ('A' for Active; 'I' for Inactive)
REMARK    1  A    between atoms: N_10  and  C_5 
REMARK    2  A    between atoms: C_22  and  N_12 
ROOT
ATOM      1  N   UNL d   1     -52.302  25.295  33.307  0.00  0.00    -0.175 N 
ATOM      2  C   UNL d   1     -51.901  24.567  33.306  0.00  0.00     0.167 A 
ATOM      3  N   UNL d   1     -51.879  26.016  33.307  0.00  0.00    -0.143 NA
ATOM      4  C   UNL d   1     -53.132  25.326  33.307  0.00  0.00     0.283 A 
ATOM      5  C   UNL d   1     -51.049  25.985  33.307  0.00  0.00     0.168 A 
ATOM      6  N   UNL d   1     -52.334  23.875  33.306  0.00  0.00    -0.227 NA
ATOM      7  C   UNL d   1     -53.550  24.608  33.307  0.00  0.00     0.076 A 
ATOM      8  C   UNL d   1     -51.080  24.565  33.306  0.00  0.00     0.039 A 
ATOM      9  C   UNL d   1     -50.648  25.257  33.307  0.00  0.00     0.039 A 
ATOM     10  C   UNL d   1     -53.149  23.880  33.306  0.00  0.00     0.088 A 
ATOM     11  O   UNL d   1     -53.521  26.032  33.308  0.00  0.00    -0.265 OA
ATOM     12  C   UNL d   1     -54.380  24.639  33.307  0.00  0.00     0.006 A 
ATOM     13  C   UNL d   1     -50.679  23.837  33.306  0.00  0.00     0.003 A 
ATOM     14  C   UNL d   1     -49.833  25.252  33.307  0.00  0.00     0.003 A 
ATOM     15  C   UNL d   1     -53.581  23.188  33.306  0.00  0.00     0.019 A 
ATOM     16  C   UNL d   1     -54.798  23.921  33.306  0.00  0.00     0.000 A 
ATOM     17  C   UNL d   1     -49.867  23.838  33.306  0.00  0.00     0.000 A 
ATOM     18  C   UNL d   1     -49.432  24.524  33.306  0.00  0.00     0.000 A 
ATOM     19  C   UNL d   1     -54.397  23.193  33.306  0.00  0.00     0.002 A 
ENDROOT
BRANCH   5  20
ATOM     20  N   UNL d   1     -50.631  26.702  33.308  0.00  0.00    -0.285 N 
ATOM     21  C   UNL d   1     -49.824  26.713  33.310  0.00  0.00     0.101 A 
ATOM     22  C   UNL d   1     -49.429  27.430  33.311  0.00  0.00     0.100 A 
ATOM     23  N   UNL d   1     -49.843  28.136  33.308  0.00  0.00    -0.300 N 
ATOM     24  C   UNL d   1     -50.649  28.126  33.306  0.00  0.00     0.100 A 
ATOM     25  C   UNL d   1     -51.067  27.409  33.306  0.00  0.00     0.101 A 
BRANCH  23  26
ATOM     26  C   UNL d   1     -49.448  28.855  33.309  0.00  0.00     0.080 C 
ATOM     27  C   UNL d   1     -49.159  29.160  34.019  0.00  0.00     0.021 C 
ENDBRANCH  23  26
ENDBRANCH   5  20
TORSDOF 2
ENDMDL
