MODEL 1
REMARK VINA RESULT:      56.5      0.000      0.000
REMARK  4 active torsions:
REMARK  status: ('A' for Active; 'I' for Inactive)
REMARK    1  A    between atoms: S_6  and  C_1 
REMARK    2  A    between atoms: N_9  and  N_2 
REMARK    3  A    between atoms: C_12  and  S_6 
REMARK       I    between atoms: C_10  and  N_9 
REMARK    4  A    between atoms: C_11  and  C_10 
ROOT
ATOM      1  C   UNL d   1      46.069 -17.153  43.557  0.00  0.00     0.146 A 
ATOM      2  N   UNL d   1      46.441 -18.422  43.781  0.00  0.00    -0.188 N 
ATOM      3  C   UNL d   1      46.229 -17.711  44.143  0.00  0.00     0.199 A 
ATOM      4  C   UNL d   1      46.412 -18.308  42.961  0.00  0.00     0.184 A 
ATOM      5  C   UNL d   1      46.183 -17.525  42.821  0.00  0.00     0.131 A 
ATOM      6  N   UNL d   1      46.563 -18.808  42.325  0.00  0.00    -0.224 NA
ATOM      7  N   UNL d   1      46.107 -17.250  42.052  0.00  0.00    -0.240 NA
ATOM      8  C   UNL d   1      46.486 -18.530  41.552  0.00  0.00     0.101 A 
ATOM      9  C   UNL d   1      46.256 -17.744  41.424  0.00  0.00     0.099 A 
ATOM     10  N   UNL d   1      46.187 -17.583  44.955  0.00  0.00    -0.126 N 
ATOM     11  C   UNL d   1      46.637 -19.030  40.916  0.00  0.00     0.021 A 
ATOM     12  C   UNL d   1      46.178 -17.463  40.648  0.00  0.00     0.021 A 
ATOM     13  C   UNL d   1      46.330 -17.967  40.014  0.00  0.00     0.002 A 
ATOM     14  C   UNL d   1      46.560 -18.752  40.142  0.00  0.00     0.002 A 
ENDROOT
BRANCH   1  15
ATOM     15  S   UNL d   1      45.841 -16.380  43.670  0.00  0.00     0.214 S 
ATOM     16  O   UNL d   1      45.034 -16.363  43.476  0.00  0.00    -0.217 OA
ATOM     17  O   UNL d   1      46.639 -16.395  43.863  0.00  0.00    -0.217 OA
BRANCH  15  18
ATOM     18  C   UNL d   1      45.620 -15.592  43.789  0.00  0.00     0.088 A 
ATOM     19  C   UNL d   1      44.975 -15.326  44.230  0.00  0.00     0.011 A 
ATOM     20  C   UNL d   1      44.827 -14.520  44.297  0.00  0.00     0.001 A 
ATOM     21  C   UNL d   1      45.320 -13.978  43.923  0.00  0.00     0.000 A 
ATOM     22  C   UNL d   1      45.964 -14.241  43.483  0.00  0.00     0.001 A 
ATOM     23  C   UNL d   1      45.173 -13.172  43.990  0.00  0.00     0.000 C 
ATOM     24  C   UNL d   1      46.119 -15.057  43.412  0.00  0.00     0.011 A 
ENDBRANCH  15  18
ENDBRANCH   1  15
BRANCH   2  25
ATOM     25  N   UNL d   1      46.645 -19.124  44.156  0.00  0.00    -0.120 NA
ATOM     26  C   UNL d   1      46.056 -19.628  44.443  0.00  0.00     0.295 C 
ATOM     27  O   UNL d   1      46.265 -20.326  44.816  0.00  0.00    -0.264 OA
BRANCH  26  28
ATOM     28  C   UNL d   1      45.260 -19.427  44.354  0.00  0.00     0.059 A 
ATOM     29  C   UNL d   1      44.533 -19.217  44.688  0.00  0.00     0.005 A 
ATOM     30  C   UNL d   1      44.606 -19.290  43.870  0.00  0.00     0.005 A 
ENDBRANCH  26  28
ENDBRANCH   2  25
TORSDOF 4
ENDMDL
