MODEL 1
REMARK VINA RESULT:       8.3      0.000      0.000
REMARK  8 active torsions:
REMARK  status: ('A' for Active; 'I' for Inactive)
REMARK    1  A    between atoms: C_14  and  C_1 
REMARK    2  A    between atoms: C_6  and  C_2 
REMARK    3  A    between atoms: C_19  and  C_4 
REMARK       I    between atoms: N_13  and  C_6 
REMARK    4  A    between atoms: C_7  and  S_18 
REMARK    5  A    between atoms: C_26  and  N_13 
REMARK    6  A    between atoms: C_22  and  C_14 
REMARK    7  A    between atoms: S_18  and  C_22 
REMARK    8  A    between atoms: O_31  and  C_27 
ROOT
ATOM      1  C   UNL d   1      57.162  -0.213  31.583  0.00  0.00     0.076 A 
ATOM      2  C   UNL d   1      58.484   0.071  31.186  0.00  0.00     0.092 A 
ATOM      3  C   UNL d   1      57.924   0.014  31.773  0.00  0.00     0.018 A 
ATOM      4  C   UNL d   1      58.287  -0.098  30.407  0.00  0.00     0.120 A 
ATOM      5  N   UNL d   1      57.529  -0.324  30.215  0.00  0.00    -0.238 NA
ATOM      6  C   UNL d   1      56.964  -0.382  30.805  0.00  0.00     0.087 A 
ATOM      7  C   UNL d   1      59.247   0.298  31.375  0.00  0.00     0.103 C 
ATOM      8  N   UNL d   1      59.999   0.522  31.561  0.00  0.00    -0.191 NA
ATOM      9  C   UNL d   1      56.231  -0.599  30.635  0.00  0.00     0.021 C 
ENDROOT
BRANCH   4  10
ATOM     10  S   UNL d   1      58.852  -0.040  29.818  0.00  0.00    -0.063 SA
BRANCH  10  11
ATOM     11  C   UNL d   1      58.841  -0.556  29.186  0.00  0.00     0.079 C 
BRANCH  11  12
ATOM     12  C   UNL d   1      59.519  -0.946  28.963  0.00  0.00     0.207 C 
ATOM     13  O   UNL d   1      60.254  -0.498  28.850  0.00  0.00    -0.286 OA
BRANCH  12  14
ATOM     14  C   UNL d   1      59.697  -1.690  28.809  0.00  0.00     0.103 A 
ATOM     15  C   UNL d   1      60.372  -2.079  28.591  0.00  0.00     0.303 A 
ATOM     16  O   UNL d   1      60.349  -2.882  28.476  0.00  0.00    -0.273 OA
ATOM     17  O   UNL d   1      61.124  -1.675  28.473  0.00  0.00    -0.259 OA
ATOM     18  C   UNL d   1      59.650  -3.295  28.579  0.00  0.00     0.103 A 
ATOM     19  C   UNL d   1      58.975  -2.911  28.798  0.00  0.00     0.023 A 
ATOM     20  C   UNL d   1      59.639  -4.128  28.457  0.00  0.00     0.025 A 
ATOM     21  C   UNL d   1      58.996  -2.097  28.915  0.00  0.00     0.011 A 
ATOM     22  C   UNL d   1      58.255  -3.329  28.906  0.00  0.00     0.002 A 
ATOM     23  C   UNL d   1      58.233  -4.147  28.788  0.00  0.00     0.000 A 
ATOM     24  C   UNL d   1      58.934  -4.549  28.562  0.00  0.00     0.002 A 
ENDBRANCH  12  14
ENDBRANCH  11  12
ENDBRANCH  10  11
ENDBRANCH   4  10
BRANCH   3  25
ATOM     25  C   UNL d   1      58.121   0.182  32.548  0.00  0.00     0.001 A 
ATOM     26  C   UNL d   1      57.584   0.032  33.157  0.00  0.00     0.002 A 
ATOM     27  C   UNL d   1      57.783   0.203  33.944  0.00  0.00     0.024 A 
ATOM     28  C   UNL d   1      58.520   0.524  34.119  0.00  0.00     0.094 A 
ATOM     29  C   UNL d   1      59.061   0.676  33.516  0.00  0.00     0.024 A 
ATOM     30  C   UNL d   1      58.861   0.506  32.730  0.00  0.00     0.002 A 
BRANCH  28  31
ATOM     31  O   UNL d   1      58.692   0.682  34.895  0.00  0.00    -0.328 OA
ATOM     32  C   UNL d   1      57.982   0.672  35.477  0.00  0.00     0.181 C 
ENDBRANCH  28  31
ENDBRANCH   3  25
BRANCH   1  33
ATOM     33  C   UNL d   1      56.385  -0.310  32.280  0.00  0.00     0.281 C 
ATOM     34  N   UNL d   1      56.095  -0.831  32.783  0.00  0.00    -0.208 NA
ATOM     35  O   UNL d   1      55.793   0.412  32.414  0.00  0.00    -0.265 OA
BRANCH  34  36
ATOM     36  C   UNL d   1      55.442  -0.621  33.223  0.00  0.00     0.085 A 
ATOM     37  C   UNL d   1      54.925  -1.210  33.483  0.00  0.00     0.019 A 
ATOM     38  C   UNL d   1      54.255  -1.009  33.933  0.00  0.00     0.002 A 
ATOM     39  C   UNL d   1      54.109  -0.208  34.120  0.00  0.00     0.000 A 
ATOM     40  C   UNL d   1      54.633   0.389  33.857  0.00  0.00     0.002 A 
ATOM     41  C   UNL d   1      55.300   0.172  33.407  0.00  0.00     0.019 A 
ENDBRANCH  34  36
ENDBRANCH   1  33
TORSDOF 8
ENDMDL
