MODEL 1
REMARK VINA RESULT:      -4.4      0.000      0.000
REMARK  9 active torsions:
REMARK  status: ('A' for Active; 'I' for Inactive)
REMARK    1  A    between atoms: P_2  and  C_1 
REMARK    2  A    between atoms: O_8  and  P_2 
REMARK    3  A    between atoms: O_9  and  P_2 
REMARK    4  A    between atoms: N_10  and  C_4 
REMARK    5  A    between atoms: C_24  and  O_8 
REMARK    6  A    between atoms: C_23  and  O_9 
REMARK    7  A    between atoms: C_15  and  N_10 
REMARK    8  A    between atoms: O_25  and  C_16 
REMARK    9  A    between atoms: O_26  and  C_17 
ROOT
ATOM      1  C   UNL d   1     -39.735  14.583  19.328  0.00  0.00     0.174 A 
ATOM      2  C   UNL d   1     -39.905  15.214  18.815  0.00  0.00     0.100 A 
ATOM      3  C   UNL d   1     -39.606  15.211  18.046  0.00  0.00     0.095 A 
ATOM      4  N   UNL d   1     -39.268  13.955  19.067  0.00  0.00    -0.237 NA
ATOM      5  C   UNL d   1     -39.141  14.584  17.789  0.00  0.00     0.038 A 
ATOM      6  C   UNL d   1     -38.971  13.953  18.302  0.00  0.00     0.083 A 
ATOM      7  C   UNL d   1     -38.846  14.585  17.025  0.00  0.00     0.027 A 
ATOM      8 CL   UNL d   1     -40.374  15.844  19.078  0.00  0.00    -0.079 Cl
ATOM      9  C   UNL d   1     -38.506  13.327  18.044  0.00  0.00     0.021 A 
ATOM     10  C   UNL d   1     -38.374  13.953  16.759  0.00  0.00     0.094 A 
ATOM     11  C   UNL d   1     -38.205  13.322  17.273  0.00  0.00     0.026 A 
ENDROOT
BRANCH   1  12
ATOM     12  P   UNL d   1     -40.036  14.584  20.103  0.00  0.00     0.392 P 
ATOM     13  O   UNL d   1     -40.614  14.042  19.871  0.00  0.00    -0.251 OA
BRANCH  12  14
ATOM     14  O   UNL d   1     -39.546  15.110  20.511  0.00  0.00    -0.265 OA
BRANCH  14  15
ATOM     15  C   UNL d   1     -39.000  14.825  21.069  0.00  0.00     0.103 C 
ATOM     16  C   UNL d   1     -39.084  14.069  21.386  0.00  0.00     0.027 C 
ATOM     17  C   UNL d   1     -38.371  15.307  21.304  0.00  0.00     0.027 C 
ENDBRANCH  14  15
ENDBRANCH  12  14
BRANCH  12  18
ATOM     18  O   UNL d   1     -40.312  14.605  20.878  0.00  0.00    -0.265 OA
BRANCH  18  19
ATOM     19  C   UNL d   1     -41.110  14.474  21.038  0.00  0.00     0.103 C 
ATOM     20  C   UNL d   1     -41.388  13.709  21.168  0.00  0.00     0.027 C 
ATOM     21  C   UNL d   1     -41.630  15.112  21.067  0.00  0.00     0.027 C 
ENDBRANCH  18  19
ENDBRANCH  12  18
ENDBRANCH   1  12
BRANCH   3  22
ATOM     22  N   UNL d   1     -39.774  15.839  17.535  0.00  0.00    -0.245 NA
BRANCH  22  23
ATOM     23  C   UNL d   1     -40.475  15.843  17.091  0.00  0.00     0.082 A 
ATOM     24  C   UNL d   1     -40.436  15.771  16.274  0.00  0.00     0.021 A 
ATOM     25  C   UNL d   1     -41.132  15.774  15.818  0.00  0.00     0.026 A 
ATOM     26  C   UNL d   1     -41.859  15.849  16.204  0.00  0.00     0.094 A 
ATOM     27  C   UNL d   1     -41.897  15.921  17.025  0.00  0.00     0.026 A 
ATOM     28  C   UNL d   1     -41.202  15.918  17.468  0.00  0.00     0.021 A 
BRANCH  26  29
ATOM     29  O   UNL d   1     -42.556  15.852  15.748  0.00  0.00    -0.328 OA
ATOM     30  C   UNL d   1     -42.825  15.141  15.412  0.00  0.00     0.181 C 
ENDBRANCH  26  29
ENDBRANCH  22  23
ENDBRANCH   3  22
BRANCH  10  31
ATOM     31  O   UNL d   1     -38.077  13.953  15.993  0.00  0.00    -0.328 OA
ATOM     32  C   UNL d   1     -37.940  13.239  15.609  0.00  0.00     0.181 C 
ENDBRANCH  10  31
TORSDOF 9
ENDMDL
MODEL 2
REMARK VINA RESULT:      -3.7      1.581      4.406
REMARK  9 active torsions:
REMARK  status: ('A' for Active; 'I' for Inactive)
REMARK    1  A    between atoms: P_2  and  C_1 
REMARK    2  A    between atoms: O_8  and  P_2 
REMARK    3  A    between atoms: O_9  and  P_2 
REMARK    4  A    between atoms: N_10  and  C_4 
REMARK    5  A    between atoms: C_24  and  O_8 
REMARK    6  A    between atoms: C_23  and  O_9 
REMARK    7  A    between atoms: C_15  and  N_10 
REMARK    8  A    between atoms: O_25  and  C_16 
REMARK    9  A    between atoms: O_26  and  C_17 
ROOT
ATOM      1  C   UNL d   1     -39.481  15.228  19.205  0.00  0.00     0.174 A 
ATOM      2  C   UNL d   1     -40.174  15.198  19.663  0.00  0.00     0.100 A 
ATOM      3  C   UNL d   1     -40.135  15.331  20.477  0.00  0.00     0.095 A 
ATOM      4  N   UNL d   1     -38.757  15.390  19.564  0.00  0.00    -0.237 NA
ATOM      5  C   UNL d   1     -39.412  15.493  20.832  0.00  0.00     0.038 A 
ATOM      6  C   UNL d   1     -38.720  15.522  20.374  0.00  0.00     0.083 A 
ATOM      7  C   UNL d   1     -39.378  15.624  21.639  0.00  0.00     0.027 A 
ATOM      8 CL   UNL d   1     -40.901  15.035  19.301  0.00  0.00    -0.079 Cl
ATOM      9  C   UNL d   1     -37.998  15.684  20.730  0.00  0.00     0.021 A 
ATOM     10  C   UNL d   1     -38.649  15.788  22.004  0.00  0.00     0.094 A 
ATOM     11  C   UNL d   1     -37.956  15.818  21.546  0.00  0.00     0.026 A 
ENDROOT
BRANCH   1  12
ATOM     12  P   UNL d   1     -39.519  15.094  18.386  0.00  0.00     0.392 P 
ATOM     13  O   UNL d   1     -39.396  15.900  18.256  0.00  0.00    -0.251 OA
BRANCH  12  14
ATOM     14  O   UNL d   1     -39.647  14.280  18.317  0.00  0.00    -0.265 OA
BRANCH  14  15
ATOM     15  C   UNL d   1     -39.068  13.794  17.971  0.00  0.00     0.103 C 
ATOM     16  C   UNL d   1     -39.265  13.044  17.694  0.00  0.00     0.027 C 
ATOM     17  C   UNL d   1     -38.292  14.071  17.907  0.00  0.00     0.027 C 
ENDBRANCH  14  15
ENDBRANCH  12  14
BRANCH  12  18
ATOM     18  O   UNL d   1     -39.560  14.932  17.580  0.00  0.00    -0.265 OA
BRANCH  18  19
ATOM     19  C   UNL d   1     -39.704  15.539  17.041  0.00  0.00     0.103 C 
ATOM     20  C   UNL d   1     -40.478  15.768  16.870  0.00  0.00     0.027 C 
ATOM     21  C   UNL d   1     -39.072  15.918  16.673  0.00  0.00     0.027 C 
ENDBRANCH  18  19
ENDBRANCH  12  18
ENDBRANCH   1  12
BRANCH   3  22
ATOM     22  N   UNL d   1     -40.824  15.302  20.933  0.00  0.00    -0.245 NA
BRANCH  22  23
ATOM     23  C   UNL d   1     -41.252  14.595  21.003  0.00  0.00     0.082 A 
ATOM     24  C   UNL d   1     -42.003  14.542  20.676  0.00  0.00     0.021 A 
ATOM     25  C   UNL d   1     -42.441  13.838  20.741  0.00  0.00     0.026 A 
ATOM     26  C   UNL d   1     -42.104  13.196  21.139  0.00  0.00     0.094 A 
ATOM     27  C   UNL d   1     -41.349  13.250  21.467  0.00  0.00     0.026 A 
ATOM     28  C   UNL d   1     -40.923  13.952  21.398  0.00  0.00     0.021 A 
BRANCH  26  29
ATOM     29  O   UNL d   1     -42.542  12.490  21.204  0.00  0.00    -0.328 OA
ATOM     30  C   UNL d   1     -43.045  12.382  21.857  0.00  0.00     0.181 C 
ENDBRANCH  26  29
ENDBRANCH  22  23
ENDBRANCH   3  22
BRANCH  10  31
ATOM     31  O   UNL d   1     -38.612  15.920  22.815  0.00  0.00    -0.328 OA
ATOM     32  C   UNL d   1     -38.426  15.301  23.322  0.00  0.00     0.181 C 
ENDBRANCH  10  31
TORSDOF 9
ENDMDL
MODEL 3
REMARK VINA RESULT:      -1.9      1.258      2.053
REMARK  9 active torsions:
REMARK  status: ('A' for Active; 'I' for Inactive)
REMARK    1  A    between atoms: P_2  and  C_1 
REMARK    2  A    between atoms: O_8  and  P_2 
REMARK    3  A    between atoms: O_9  and  P_2 
REMARK    4  A    between atoms: N_10  and  C_4 
REMARK    5  A    between atoms: C_24  and  O_8 
REMARK    6  A    between atoms: C_23  and  O_9 
REMARK    7  A    between atoms: C_15  and  N_10 
REMARK    8  A    between atoms: O_25  and  C_16 
REMARK    9  A    between atoms: O_26  and  C_17 
ROOT
ATOM      1  C   UNL d   1     -38.593  14.571  20.528  0.00  0.00     0.174 A 
ATOM      2  C   UNL d   1     -38.698  15.130  19.923  0.00  0.00     0.100 A 
ATOM      3  C   UNL d   1     -38.588  14.911  19.135  0.00  0.00     0.095 A 
ATOM      4  N   UNL d   1     -38.378  13.797  20.340  0.00  0.00    -0.237 NA
ATOM      5  C   UNL d   1     -38.375  14.139  18.950  0.00  0.00     0.038 A 
ATOM      6  C   UNL d   1     -38.269  13.580  19.555  0.00  0.00     0.083 A 
ATOM      7  C   UNL d   1     -38.266  13.926  18.168  0.00  0.00     0.027 A 
ATOM      8 CL   UNL d   1     -38.914  15.907  20.114  0.00  0.00    -0.079 Cl
ATOM      9  C   UNL d   1     -38.055  12.809  19.369  0.00  0.00     0.021 A 
ATOM     10  C   UNL d   1     -38.050  13.146  17.974  0.00  0.00     0.094 A 
ATOM     11  C   UNL d   1     -37.944  12.586  18.579  0.00  0.00     0.026 A 
ENDROOT
BRANCH   1  12
ATOM     12  P   UNL d   1     -38.703  14.790  21.322  0.00  0.00     0.392 P 
ATOM     13  O   UNL d   1     -38.193  15.429  21.208  0.00  0.00    -0.251 OA
BRANCH  12  14
ATOM     14  O   UNL d   1     -39.225  14.222  21.620  0.00  0.00    -0.265 OA
BRANCH  14  15
ATOM     15  C   UNL d   1     -40.029  14.406  21.723  0.00  0.00     0.103 C 
ATOM     16  C   UNL d   1     -40.263  15.181  21.874  0.00  0.00     0.027 C 
ATOM     17  C   UNL d   1     -40.592  13.804  21.672  0.00  0.00     0.027 C 
ENDBRANCH  14  15
ENDBRANCH  12  14
BRANCH  12  18
ATOM     18  O   UNL d   1     -38.831  14.984  22.111  0.00  0.00    -0.265 OA
BRANCH  18  19
ATOM     19  C   UNL d   1     -38.299  14.739  22.690  0.00  0.00     0.103 C 
ATOM     20  C   UNL d   1     -38.121  13.939  22.781  0.00  0.00     0.027 C 
ATOM     21  C   UNL d   1     -37.943  15.297  23.180  0.00  0.00     0.027 C 
ENDBRANCH  18  19
ENDBRANCH  12  18
ENDBRANCH   1  12
BRANCH   3  22
ATOM     22  N   UNL d   1     -38.693  15.468  18.533  0.00  0.00    -0.245 NA
BRANCH  22  23
ATOM     23  C   UNL d   1     -39.440  15.581  18.191  0.00  0.00     0.082 A 
ATOM     24  C   UNL d   1     -40.097  15.673  18.676  0.00  0.00     0.021 A 
ATOM     25  C   UNL d   1     -40.851  15.787  18.344  0.00  0.00     0.026 A 
ATOM     26  C   UNL d   1     -40.924  15.806  17.520  0.00  0.00     0.094 A 
ATOM     27  C   UNL d   1     -40.263  15.714  17.034  0.00  0.00     0.026 A 
ATOM     28  C   UNL d   1     -39.521  15.602  17.373  0.00  0.00     0.021 A 
BRANCH  26  29
ATOM     29  O   UNL d   1     -41.679  15.921  17.187  0.00  0.00    -0.328 OA
ATOM     30  C   UNL d   1     -41.805  15.728  16.389  0.00  0.00     0.181 C 
ENDBRANCH  26  29
ENDBRANCH  22  23
ENDBRANCH   3  22
BRANCH  10  31
ATOM     31  O   UNL d   1     -37.941  12.929  17.189  0.00  0.00    -0.328 OA
ATOM     32  C   UNL d   1     -38.446  12.382  16.842  0.00  0.00     0.181 C 
ENDBRANCH  10  31
TORSDOF 9
ENDMDL
