MODEL 1
REMARK VINA RESULT:      -1.8      0.000      0.000
REMARK  4 active torsions:
REMARK  status: ('A' for Active; 'I' for Inactive)
REMARK    1  A    between atoms: N_7  and  C_1 
REMARK    2  A    between atoms: C_8  and  C_2 
REMARK    3  A    between atoms: C_11  and  N_7 
REMARK    4  A    between atoms: C_19  and  C_12 
ROOT
ATOM      1  C   UNL d   1      31.455  17.188 -24.343  0.00  0.00     0.189 A 
ATOM      2  C   UNL d   1      31.193  16.406 -24.367  0.00  0.00     0.119 A 
ATOM      3  C   UNL d   1      30.390  16.244 -24.467  0.00  0.00     0.204 A 
ATOM      4  O   UNL d   1      30.913  17.805 -24.420  0.00  0.00    -0.289 OA
ATOM      5  C   UNL d   1      29.855  16.859 -24.543  0.00  0.00     0.067 A 
ATOM      6  C   UNL d   1      30.117  17.641 -24.519  0.00  0.00     0.105 A 
ATOM      7  O   UNL d   1      30.127  15.460 -24.491  0.00  0.00    -0.286 OA
ATOM      8  C   UNL d   1      29.583  18.281 -24.595  0.00  0.00     0.027 C 
ENDROOT
BRANCH   1   9
ATOM      9  N   UNL d   1      32.284  17.365 -24.240  0.00  0.00    -0.222 NA
BRANCH   9  10
ATOM     10  C   UNL d   1      32.522  18.094 -23.949  0.00  0.00     0.084 A 
ATOM     11  C   UNL d   1      32.636  18.734 -24.464  0.00  0.00     0.019 A 
ATOM     12  C   UNL d   1      32.875  19.467 -24.171  0.00  0.00     0.002 A 
ATOM     13  C   UNL d   1      33.001  19.564 -23.361  0.00  0.00     0.000 A 
ATOM     14  C   UNL d   1      32.889  18.934 -22.850  0.00  0.00     0.002 A 
ATOM     15  C   UNL d   1      32.650  18.201 -23.143  0.00  0.00     0.019 A 
BRANCH  13  16
ATOM     16  C   UNL d   1      33.241  20.301 -23.066  0.00  0.00     0.000 C 
ATOM     17  C   UNL d   1      33.024  20.531 -22.311  0.00  0.00     0.000 C 
ENDBRANCH  13  16
ENDBRANCH   9  10
ENDBRANCH   1   9
BRANCH   2  18
ATOM     18  C   UNL d   1      31.754  15.782 -24.288  0.00  0.00     0.202 C 
ATOM     19  O   UNL d   1      31.944  15.503 -23.532  0.00  0.00    -0.286 OA
ATOM     20  C   UNL d   1      32.108  15.453 -24.949  0.00  0.00     0.046 C 
ENDBRANCH   2  18
TORSDOF 4
ENDMDL
MODEL 2
REMARK VINA RESULT:      -1.6      1.745      3.803
REMARK  4 active torsions:
REMARK  status: ('A' for Active; 'I' for Inactive)
REMARK    1  A    between atoms: N_7  and  C_1 
REMARK    2  A    between atoms: C_8  and  C_2 
REMARK    3  A    between atoms: C_11  and  N_7 
REMARK    4  A    between atoms: C_19  and  C_12 
ROOT
ATOM      1  C   UNL d   1      31.267  16.512 -24.566  0.00  0.00     0.189 A 
ATOM      2  C   UNL d   1      32.084  16.616 -24.527  0.00  0.00     0.119 A 
ATOM      3  C   UNL d   1      32.412  17.358 -24.678  0.00  0.00     0.204 A 
ATOM      4  O   UNL d   1      30.780  17.151 -24.756  0.00  0.00    -0.289 OA
ATOM      5  C   UNL d   1      31.926  17.990 -24.866  0.00  0.00     0.067 A 
ATOM      6  C   UNL d   1      31.109  17.886 -24.906  0.00  0.00     0.105 A 
ATOM      7  O   UNL d   1      33.232  17.462 -24.639  0.00  0.00    -0.286 OA
ATOM      8  C   UNL d   1      30.599  18.521 -25.097  0.00  0.00     0.027 C 
ENDROOT
BRANCH   1   9
ATOM      9  N   UNL d   1      30.918  15.748 -24.412  0.00  0.00    -0.222 NA
BRANCH   9  10
ATOM     10  C   UNL d   1      30.122  15.683 -24.221  0.00  0.00     0.084 A 
ATOM     11  C   UNL d   1      29.871  15.780 -23.437  0.00  0.00     0.019 A 
ATOM     12  C   UNL d   1      29.072  15.715 -23.245  0.00  0.00     0.002 A 
ATOM     13  C   UNL d   1      28.519  15.553 -23.836  0.00  0.00     0.000 A 
ATOM     14  C   UNL d   1      28.765  15.457 -24.611  0.00  0.00     0.002 A 
ATOM     15  C   UNL d   1      29.565  15.522 -24.803  0.00  0.00     0.019 A 
BRANCH  13  16
ATOM     16  C   UNL d   1      27.715  15.487 -23.644  0.00  0.00     0.000 C 
ATOM     17  C   UNL d   1      27.381  16.000 -23.100  0.00  0.00     0.000 C 
ENDBRANCH  13  16
ENDBRANCH   9  10
ENDBRANCH   1   9
BRANCH   2  18
ATOM     18  C   UNL d   1      32.573  15.958 -24.332  0.00  0.00     0.202 C 
ATOM     19  O   UNL d   1      32.763  15.817 -23.539  0.00  0.00    -0.286 OA
ATOM     20  C   UNL d   1      32.859  15.463 -24.918  0.00  0.00     0.046 C 
ENDBRANCH   2  18
TORSDOF 4
ENDMDL
MODEL 3
REMARK VINA RESULT:      -1.1      1.628      2.707
REMARK  4 active torsions:
REMARK  status: ('A' for Active; 'I' for Inactive)
REMARK    1  A    between atoms: N_7  and  C_1 
REMARK    2  A    between atoms: C_8  and  C_2 
REMARK    3  A    between atoms: C_11  and  N_7 
REMARK    4  A    between atoms: C_19  and  C_12 
ROOT
ATOM      1  C   UNL d   1      29.882  16.154 -23.917  0.00  0.00     0.189 A 
ATOM      2  C   UNL d   1      29.077  15.981 -23.876  0.00  0.00     0.119 A 
ATOM      3  C   UNL d   1      28.766  15.629 -23.197  0.00  0.00     0.204 A 
ATOM      4  O   UNL d   1      30.374  15.975 -23.278  0.00  0.00    -0.289 OA
ATOM      5  C   UNL d   1      29.256  15.453 -22.566  0.00  0.00     0.067 A 
ATOM      6  C   UNL d   1      30.061  15.626 -22.606  0.00  0.00     0.105 A 
ATOM      7  O   UNL d   1      27.957  15.455 -23.157  0.00  0.00    -0.286 OA
ATOM      8  C   UNL d   1      30.575  15.453 -21.969  0.00  0.00     0.027 C 
ENDROOT
BRANCH   1   9
ATOM      9  N   UNL d   1      30.214  16.518 -24.614  0.00  0.00    -0.222 NA
BRANCH   9  10
ATOM     10  C   UNL d   1      30.944  16.892 -24.583  0.00  0.00     0.084 A 
ATOM     11  C   UNL d   1      31.620  16.514 -24.880  0.00  0.00     0.019 A 
ATOM     12  C   UNL d   1      32.354  16.889 -24.849  0.00  0.00     0.002 A 
ATOM     13  C   UNL d   1      32.415  17.644 -24.521  0.00  0.00     0.000 A 
ATOM     14  C   UNL d   1      31.749  18.019 -24.227  0.00  0.00     0.002 A 
ATOM     15  C   UNL d   1      31.015  17.644 -24.259  0.00  0.00     0.019 A 
BRANCH  13  16
ATOM     16  C   UNL d   1      33.153  18.022 -24.490  0.00  0.00     0.000 C 
ATOM     17  C   UNL d   1      33.195  18.838 -24.458  0.00  0.00     0.000 C 
ENDBRANCH  13  16
ENDBRANCH   9  10
ENDBRANCH   1   9
BRANCH   2  18
ATOM     18  C   UNL d   1      28.583  16.167 -24.533  0.00  0.00     0.202 C 
ATOM     19  O   UNL d   1      28.308  16.942 -24.625  0.00  0.00    -0.286 OA
ATOM     20  C   UNL d   1      28.375  15.590 -25.075  0.00  0.00     0.046 C 
ENDBRANCH   2  18
TORSDOF 4
ENDMDL
MODEL 4
REMARK VINA RESULT:      -0.4      3.193      5.470
REMARK  4 active torsions:
REMARK  status: ('A' for Active; 'I' for Inactive)
REMARK    1  A    between atoms: N_7  and  C_1 
REMARK    2  A    between atoms: C_8  and  C_2 
REMARK    3  A    between atoms: C_11  and  N_7 
REMARK    4  A    between atoms: C_19  and  C_12 
ROOT
ATOM      1  C   UNL d   1      32.936  21.921 -21.971  0.00  0.00     0.189 A 
ATOM      2  C   UNL d   1      32.509  22.408 -21.460  0.00  0.00     0.119 A 
ATOM      3  C   UNL d   1      32.280  23.162 -21.706  0.00  0.00     0.204 A 
ATOM      4  O   UNL d   1      33.132  22.190 -22.726  0.00  0.00    -0.289 OA
ATOM      5  C   UNL d   1      32.477  23.425 -22.456  0.00  0.00     0.067 A 
ATOM      6  C   UNL d   1      32.903  22.938 -22.967  0.00  0.00     0.105 A 
ATOM      7  O   UNL d   1      31.851  23.651 -21.193  0.00  0.00    -0.286 OA
ATOM      8  C   UNL d   1      33.112  23.193 -23.736  0.00  0.00     0.027 C 
ENDROOT
BRANCH   1   9
ATOM      9  N   UNL d   1      33.177  21.140 -21.726  0.00  0.00    -0.222 NA
BRANCH   9  10
ATOM     10  C   UNL d   1      33.115  20.503 -22.240  0.00  0.00     0.084 A 
ATOM     11  C   UNL d   1      33.241  20.609 -23.053  0.00  0.00     0.019 A 
ATOM     12  C   UNL d   1      33.179  19.969 -23.570  0.00  0.00     0.002 A 
ATOM     13  C   UNL d   1      32.990  19.220 -23.277  0.00  0.00     0.000 A 
ATOM     14  C   UNL d   1      32.866  19.114 -22.475  0.00  0.00     0.002 A 
ATOM     15  C   UNL d   1      32.928  19.754 -21.958  0.00  0.00     0.019 A 
BRANCH  13  16
ATOM     16  C   UNL d   1      32.928  18.577 -23.796  0.00  0.00     0.000 C 
ATOM     17  C   UNL d   1      32.193  18.263 -23.974  0.00  0.00     0.000 C 
ENDBRANCH  13  16
ENDBRANCH   9  10
ENDBRANCH   1   9
BRANCH   2  18
ATOM     18  C   UNL d   1      32.313  22.125 -20.691  0.00  0.00     0.202 C 
ATOM     19  O   UNL d   1      31.586  21.746 -20.573  0.00  0.00    -0.286 OA
ATOM     20  C   UNL d   1      32.832  22.223 -20.066  0.00  0.00     0.046 C 
ENDBRANCH   2  18
TORSDOF 4
ENDMDL
MODEL 5
REMARK VINA RESULT:      -0.4      2.753      4.072
REMARK  4 active torsions:
REMARK  status: ('A' for Active; 'I' for Inactive)
REMARK    1  A    between atoms: N_7  and  C_1 
REMARK    2  A    between atoms: C_8  and  C_2 
REMARK    3  A    between atoms: C_11  and  N_7 
REMARK    4  A    between atoms: C_19  and  C_12 
ROOT
ATOM      1  C   UNL d   1      32.683  20.212 -22.590  0.00  0.00     0.189 A 
ATOM      2  C   UNL d   1      32.796  19.504 -22.996  0.00  0.00     0.119 A 
ATOM      3  C   UNL d   1      33.058  19.516 -23.779  0.00  0.00     0.204 A 
ATOM      4  O   UNL d   1      32.832  20.931 -22.967  0.00  0.00    -0.289 OA
ATOM      5  C   UNL d   1      33.205  20.231 -24.150  0.00  0.00     0.067 A 
ATOM      6  C   UNL d   1      33.092  20.940 -23.743  0.00  0.00     0.105 A 
ATOM      7  O   UNL d   1      33.172  18.805 -24.188  0.00  0.00    -0.286 OA
ATOM      8  C   UNL d   1      33.238  21.678 -24.108  0.00  0.00     0.027 C 
ENDROOT
BRANCH   1   9
ATOM      9  N   UNL d   1      32.412  20.210 -21.780  0.00  0.00    -0.222 NA
BRANCH   9  10
ATOM     10  C   UNL d   1      32.469  20.886 -21.319  0.00  0.00     0.084 A 
ATOM     11  C   UNL d   1      31.834  21.418 -21.276  0.00  0.00     0.019 A 
ATOM     12  C   UNL d   1      31.891  22.098 -20.812  0.00  0.00     0.002 A 
ATOM     13  C   UNL d   1      32.584  22.249 -20.389  0.00  0.00     0.000 A 
ATOM     14  C   UNL d   1      33.212  21.726 -20.430  0.00  0.00     0.002 A 
ATOM     15  C   UNL d   1      33.154  21.046 -20.893  0.00  0.00     0.019 A 
BRANCH  13  16
ATOM     16  C   UNL d   1      32.641  22.933 -19.923  0.00  0.00     0.000 C 
ATOM     17  C   UNL d   1      32.163  23.578 -20.080  0.00  0.00     0.000 C 
ENDBRANCH  13  16
ENDBRANCH   9  10
ENDBRANCH   1   9
BRANCH   2  18
ATOM     18  C   UNL d   1      32.641  18.775 -22.604  0.00  0.00     0.202 C 
ATOM     19  O   UNL d   1      31.876  18.460 -22.623  0.00  0.00    -0.286 OA
ATOM     20  C   UNL d   1      33.238  18.380 -22.207  0.00  0.00     0.046 C 
ENDBRANCH   2  18
TORSDOF 4
ENDMDL
