MODEL 1
REMARK VINA RESULT:      40.5      0.000      0.000
REMARK  6 active torsions:
REMARK  status: ('A' for Active; 'I' for Inactive)
REMARK    1  A    between atoms: N_3  and  C_1 
REMARK       I    between atoms: C_4  and  N_3 
REMARK       I    between atoms: N_10  and  C_4 
REMARK    2  A    between atoms: C_7  and  C_5 
REMARK    3  A    between atoms: C_9  and  C_7 
REMARK       I    between atoms: N_12  and  C_9 
REMARK    4  A    between atoms: C_13  and  N_10 
REMARK    5  A    between atoms: C_18  and  N_12 
REMARK    6  A    between atoms: C_17  and  C_18 
ROOT
ATOM      1  C   UNL d   1      13.063  13.699  -4.030  0.00  0.00     0.199 A 
ATOM      2  N   UNL d   1      13.338  13.230  -3.409  0.00  0.00    -0.220 NA
ATOM      3  C   UNL d   1      13.235  12.445  -3.624  0.00  0.00     0.095 A 
ATOM      4  S   UNL d   1      12.794  13.215  -4.619  0.00  0.00    -0.046 SA
ATOM      5  C   UNL d   1      12.897  12.435  -4.378  0.00  0.00     0.058 A 
ENDROOT
BRANCH   1   6
ATOM      6  N   UNL d   1      13.060  14.535  -4.051  0.00  0.00    -0.166 NA
ATOM      7  C   UNL d   1      13.712  14.960  -3.756  0.00  0.00     0.370 C 
ATOM      8  N   UNL d   1      13.720  15.786  -3.772  0.00  0.00    -0.191 NA
ATOM      9  O   UNL d   1      14.365  14.556  -3.442  0.00  0.00    -0.242 OA
BRANCH   8  10
ATOM     10  C   UNL d   1      14.357  16.210  -3.484  0.00  0.00     0.087 A 
ATOM     11  C   UNL d   1      14.392  16.434  -2.694  0.00  0.00     0.031 A 
ATOM     12  C   UNL d   1      15.022  16.854  -2.404  0.00  0.00     0.059 A 
ATOM     13 CL   UNL d   1      15.051  17.077  -1.608  0.00  0.00    -0.082 Cl
ATOM     14  C   UNL d   1      15.646  17.062  -2.918  0.00  0.00     0.011 A 
ATOM     15  C   UNL d   1      15.611  16.837  -3.708  0.00  0.00     0.002 A 
ATOM     16  C   UNL d   1      14.966  16.410  -3.993  0.00  0.00     0.019 A 
ENDBRANCH   8  10
ENDBRANCH   1   6
BRANCH   3  17
ATOM     17  C   UNL d   1      13.435  11.782  -3.166  0.00  0.00     0.082 C 
BRANCH  17  18
ATOM     18  C   UNL d   1      13.482  11.837  -2.332  0.00  0.00     0.281 C 
ATOM     19  N   UNL d   1      14.208  11.780  -1.946  0.00  0.00    -0.206 NA
ATOM     20  O   UNL d   1      12.787  11.949  -1.905  0.00  0.00    -0.265 OA
BRANCH  19  21
ATOM     21  C   UNL d   1      14.245  11.835  -1.129  0.00  0.00     0.104 C 
BRANCH  21  22
ATOM     22  C   UNL d   1      14.539  12.522  -0.778  0.00  0.00     0.038 A 
ATOM     23  C   UNL d   1      14.034  13.028  -0.362  0.00  0.00     0.101 A 
ATOM     24  N   UNL d   1      14.340  13.713  -0.014  0.00  0.00    -0.242 NA
ATOM     25  C   UNL d   1      15.149  13.895  -0.082  0.00  0.00     0.099 A 
ATOM     26  C   UNL d   1      15.636  13.387  -0.496  0.00  0.00     0.021 A 
ATOM     27  C   UNL d   1      15.330  12.700  -0.844  0.00  0.00     0.005 A 
ENDBRANCH  21  22
ENDBRANCH  19  21
ENDBRANCH  17  18
ENDBRANCH   3  17
TORSDOF 6
ENDMDL
MODEL 2
REMARK VINA RESULT:      41.3      1.770      3.576
REMARK  6 active torsions:
REMARK  status: ('A' for Active; 'I' for Inactive)
REMARK    1  A    between atoms: N_3  and  C_1 
REMARK       I    between atoms: C_4  and  N_3 
REMARK       I    between atoms: N_10  and  C_4 
REMARK    2  A    between atoms: C_7  and  C_5 
REMARK    3  A    between atoms: C_9  and  C_7 
REMARK       I    between atoms: N_12  and  C_9 
REMARK    4  A    between atoms: C_13  and  N_10 
REMARK    5  A    between atoms: C_18  and  N_12 
REMARK    6  A    between atoms: C_17  and  C_18 
ROOT
ATOM      1  C   UNL d   1      14.548  15.854  -3.204  0.00  0.00     0.199 A 
ATOM      2  N   UNL d   1      15.013  15.535  -2.602  0.00  0.00    -0.220 NA
ATOM      3  C   UNL d   1      15.091  16.105  -2.017  0.00  0.00     0.095 A 
ATOM      4  S   UNL d   1      14.339  16.607  -2.998  0.00  0.00    -0.046 SA
ATOM      5  C   UNL d   1      14.671  16.773  -2.263  0.00  0.00     0.058 A 
ENDROOT
BRANCH   1   6
ATOM      6  N   UNL d   1      14.325  15.466  -3.911  0.00  0.00    -0.166 NA
ATOM      7  C   UNL d   1      14.024  14.690  -3.883  0.00  0.00     0.370 C 
ATOM      8  N   UNL d   1      13.802  14.298  -4.575  0.00  0.00    -0.191 NA
ATOM      9  O   UNL d   1      13.945  14.301  -3.154  0.00  0.00    -0.242 OA
BRANCH   8  10
ATOM     10  C   UNL d   1      13.506  13.536  -4.554  0.00  0.00     0.087 A 
ATOM     11  C   UNL d   1      13.636  13.052  -3.904  0.00  0.00     0.031 A 
ATOM     12  C   UNL d   1      13.344  12.295  -3.878  0.00  0.00     0.059 A 
ATOM     13 CL   UNL d   1      13.478  11.813  -3.220  0.00  0.00    -0.082 Cl
ATOM     14  C   UNL d   1      12.904  12.004  -4.525  0.00  0.00     0.011 A 
ATOM     15  C   UNL d   1      12.775  12.490  -5.176  0.00  0.00     0.002 A 
ATOM     16  C   UNL d   1      13.075  13.257  -5.192  0.00  0.00     0.019 A 
ENDBRANCH   8  10
ENDBRANCH   1   6
BRANCH   3  17
ATOM     17  C   UNL d   1      15.514  16.024  -1.308  0.00  0.00     0.082 C 
BRANCH  17  18
ATOM     18  C   UNL d   1      15.190  15.600  -0.662  0.00  0.00     0.281 C 
ATOM     19  N   UNL d   1      15.202  14.776  -0.651  0.00  0.00    -0.206 NA
ATOM     20  O   UNL d   1      14.859  16.025  -0.039  0.00  0.00    -0.265 OA
BRANCH  19  21
ATOM     21  C   UNL d   1      14.882  14.370  -0.015  0.00  0.00     0.104 C 
BRANCH  21  22
ATOM     22  C   UNL d   1      14.697  13.569  -0.093  0.00  0.00     0.038 A 
ATOM     23  C   UNL d   1      13.914  13.312  -0.030  0.00  0.00     0.101 A 
ATOM     24  N   UNL d   1      13.742  12.507  -0.110  0.00  0.00    -0.242 NA
ATOM     25  C   UNL d   1      14.350  11.958  -0.253  0.00  0.00     0.099 A 
ATOM     26  C   UNL d   1      15.119  12.225  -0.313  0.00  0.00     0.021 A 
ATOM     27  C   UNL d   1      15.292  13.031  -0.233  0.00  0.00     0.005 A 
ENDBRANCH  21  22
ENDBRANCH  19  21
ENDBRANCH  17  18
ENDBRANCH   3  17
TORSDOF 6
ENDMDL
