MODEL 1
REMARK VINA RESULT:      -7.5      0.000      0.000
REMARK  7 active torsions:
REMARK  status: ('A' for Active; 'I' for Inactive)
REMARK    1  A    between atoms: C_2  and  C_1 
REMARK    2  A    between atoms: C_16  and  N_4 
REMARK    3  A    between atoms: C_14  and  C_21 
REMARK    4  A    between atoms: C_22  and  C_16 
REMARK    5  A    between atoms: C_21  and  C_23 
REMARK    6  A    between atoms: C_25  and  C_22 
REMARK    7  A    between atoms: C_23  and  C_25 
ROOT
ATOM      1  C   UNL d   1     -48.329  13.948  22.620  0.00  0.00     0.093 A 
ATOM      2  N   UNL d   1     -47.331  13.338  23.211  0.00  0.00    -0.259 N 
ATOM      3  C   UNL d   1     -47.039  14.004  22.850  0.00  0.00     0.153 A 
ATOM      4  C   UNL d   1     -48.126  13.307  23.067  0.00  0.00     0.272 A 
ATOM      5  S   UNL d   1     -47.660  14.383  22.482  0.00  0.00    -0.053 SA
ATOM      6  S   UNL d   1     -46.242  14.237  22.867  0.00  0.00    -0.052 SA
ATOM      7  O   UNL d   1     -48.652  12.702  23.342  0.00  0.00    -0.266 OA
ENDROOT
BRANCH   1   8
ATOM      8  C   UNL d   1     -49.122  14.059  22.386  0.00  0.00     0.069 A 
ATOM      9  C   UNL d   1     -49.466  13.681  21.739  0.00  0.00     0.265 A 
ATOM     10  N   UNL d   1     -50.236  13.916  21.676  0.00  0.00    -0.272 N 
ATOM     11  O   UNL d   1     -49.085  13.141  21.227  0.00  0.00    -0.267 OA
ATOM     12  C   UNL d   1     -50.775  13.656  21.088  0.00  0.00     0.102 C 
ATOM     13  C   UNL d   1     -50.387  14.445  22.283  0.00  0.00     0.067 A 
ATOM     14  C   UNL d   1     -49.689  14.535  22.729  0.00  0.00     0.021 A 
ATOM     15  C   UNL d   1     -51.056  14.856  22.494  0.00  0.00     0.018 A 
ATOM     16  C   UNL d   1     -49.681  15.041  23.380  0.00  0.00     0.002 A 
ATOM     17  C   UNL d   1     -50.346  15.468  23.613  0.00  0.00     0.000 A 
ATOM     18  C   UNL d   1     -51.047  15.367  23.153  0.00  0.00     0.002 A 
ENDBRANCH   1   8
BRANCH   2  19
ATOM     19  C   UNL d   1     -46.880  12.788  23.652  0.00  0.00     0.084 C 
BRANCH  19  20
ATOM     20  C   UNL d   1     -46.444  12.230  23.261  0.00  0.00     0.019 C 
BRANCH  20  21
ATOM     21  C   UNL d   1     -46.095  11.606  23.694  0.00  0.00     0.002 C 
BRANCH  21  22
ATOM     22  C   UNL d   1     -45.563  11.118  23.327  0.00  0.00     0.006 C 
BRANCH  22  23
ATOM     23  C   UNL d   1     -44.829  10.961  23.695  0.00  0.00     0.070 C 
BRANCH  23  24
ATOM     24  C   UNL d   1     -44.277  10.506  23.317  0.00  0.00     0.211 C 
ATOM     25  O   UNL d   1     -43.649  10.862  22.910  0.00  0.00    -0.644 OA
ATOM     26  O   UNL d   1     -44.323   9.687  23.326  0.00  0.00    -0.644 OA
ENDBRANCH  23  24
ENDBRANCH  22  23
ENDBRANCH  21  22
ENDBRANCH  20  21
ENDBRANCH  19  20
ENDBRANCH   2  19
TORSDOF 7
ENDMDL
MODEL 2
REMARK VINA RESULT:      -6.2      7.273      9.647
REMARK  7 active torsions:
REMARK  status: ('A' for Active; 'I' for Inactive)
REMARK    1  A    between atoms: C_2  and  C_1 
REMARK    2  A    between atoms: C_16  and  N_4 
REMARK    3  A    between atoms: C_14  and  C_21 
REMARK    4  A    between atoms: C_22  and  C_16 
REMARK    5  A    between atoms: C_21  and  C_23 
REMARK    6  A    between atoms: C_25  and  C_22 
REMARK    7  A    between atoms: C_23  and  C_25 
ROOT
ATOM      1  C   UNL d   1     -39.369  14.552  19.068  0.00  0.00     0.093 A 
ATOM      2  N   UNL d   1     -40.249  14.631  20.035  0.00  0.00    -0.259 N 
ATOM      3  C   UNL d   1     -39.524  14.833  20.339  0.00  0.00     0.153 A 
ATOM      4  C   UNL d   1     -40.150  14.459  19.252  0.00  0.00     0.272 A 
ATOM      5  S   UNL d   1     -38.977  14.783  19.736  0.00  0.00    -0.053 SA
ATOM      6  S   UNL d   1     -39.389  15.049  21.129  0.00  0.00    -0.052 SA
ATOM      7  O   UNL d   1     -40.765  14.221  18.719  0.00  0.00    -0.266 OA
ENDROOT
BRANCH   1   8
ATOM      8  C   UNL d   1     -39.105  14.409  18.289  0.00  0.00     0.069 A 
ATOM      9  C   UNL d   1     -39.151  14.965  17.680  0.00  0.00     0.265 A 
ATOM     10  N   UNL d   1     -38.847  14.642  17.006  0.00  0.00    -0.272 N 
ATOM     11  O   UNL d   1     -39.461  15.738  17.746  0.00  0.00    -0.267 OA
ATOM     12  C   UNL d   1     -38.793  15.029  16.264  0.00  0.00     0.102 C 
ATOM     13  C   UNL d   1     -38.604  13.879  17.180  0.00  0.00     0.067 A 
ATOM     14  C   UNL d   1     -38.766  13.732  17.985  0.00  0.00     0.021 A 
ATOM     15  C   UNL d   1     -38.262  13.298  16.726  0.00  0.00     0.018 A 
ATOM     16  C   UNL d   1     -38.578  13.000  18.314  0.00  0.00     0.002 A 
ATOM     17  C   UNL d   1     -38.230  12.396  17.874  0.00  0.00     0.000 A 
ATOM     18  C   UNL d   1     -38.072  12.558  17.060  0.00  0.00     0.002 A 
ENDBRANCH   1   8
BRANCH   2  19
ATOM     19  C   UNL d   1     -40.966  14.609  20.466  0.00  0.00     0.084 C 
BRANCH  19  20
ATOM     20  C   UNL d   1     -41.303  13.894  20.637  0.00  0.00     0.019 C 
BRANCH  20  21
ATOM     21  C   UNL d   1     -42.070  13.871  20.969  0.00  0.00     0.002 C 
BRANCH  21  22
ATOM     22  C   UNL d   1     -42.346  13.178  21.282  0.00  0.00     0.006 C 
BRANCH  22  23
ATOM     23  C   UNL d   1     -43.145  12.964  21.160  0.00  0.00     0.070 C 
BRANCH  23  24
ATOM     24  C   UNL d   1     -43.540  12.539  21.725  0.00  0.00     0.211 C 
ATOM     25  O   UNL d   1     -44.283  12.789  21.993  0.00  0.00    -0.644 OA
ATOM     26  O   UNL d   1     -43.218  11.855  22.044  0.00  0.00    -0.644 OA
ENDBRANCH  23  24
ENDBRANCH  22  23
ENDBRANCH  21  22
ENDBRANCH  20  21
ENDBRANCH  19  20
ENDBRANCH   2  19
TORSDOF 7
ENDMDL
MODEL 3
REMARK VINA RESULT:      -5.5      1.728      2.058
REMARK  7 active torsions:
REMARK  status: ('A' for Active; 'I' for Inactive)
REMARK    1  A    between atoms: C_2  and  C_1 
REMARK    2  A    between atoms: C_16  and  N_4 
REMARK    3  A    between atoms: C_14  and  C_21 
REMARK    4  A    between atoms: C_22  and  C_16 
REMARK    5  A    between atoms: C_21  and  C_23 
REMARK    6  A    between atoms: C_25  and  C_22 
REMARK    7  A    between atoms: C_23  and  C_25 
ROOT
ATOM      1  C   UNL d   1     -48.351  13.622  22.381  0.00  0.00     0.093 A 
ATOM      2  N   UNL d   1     -47.053  13.573  22.556  0.00  0.00    -0.259 N 
ATOM      3  C   UNL d   1     -47.300  14.329  22.720  0.00  0.00     0.153 A 
ATOM      4  C   UNL d   1     -47.703  13.140  22.348  0.00  0.00     0.272 A 
ATOM      5  S   UNL d   1     -48.108  14.359  22.611  0.00  0.00    -0.053 SA
ATOM      6  S   UNL d   1     -46.798  14.947  22.956  0.00  0.00    -0.052 SA
ATOM      7  O   UNL d   1     -47.700  12.321  22.132  0.00  0.00    -0.266 OA
ENDROOT
BRANCH   1   8
ATOM      8  C   UNL d   1     -49.105  13.319  22.193  0.00  0.00     0.069 A 
ATOM      9  C   UNL d   1     -49.506  13.491  21.492  0.00  0.00     0.265 A 
ATOM     10  N   UNL d   1     -50.216  13.106  21.494  0.00  0.00    -0.272 N 
ATOM     11  O   UNL d   1     -49.227  13.983  20.877  0.00  0.00    -0.267 OA
ATOM     12  C   UNL d   1     -50.786  13.139  20.880  0.00  0.00     0.102 C 
ATOM     13  C   UNL d   1     -50.272  12.687  22.195  0.00  0.00     0.067 A 
ATOM     14  C   UNL d   1     -49.575  12.820  22.634  0.00  0.00     0.021 A 
ATOM     15  C   UNL d   1     -50.853  12.205  22.498  0.00  0.00     0.018 A 
ATOM     16  C   UNL d   1     -49.481  12.462  23.371  0.00  0.00     0.002 A 
ATOM     17  C   UNL d   1     -50.055  11.970  23.698  0.00  0.00     0.000 A 
ATOM     18  C   UNL d   1     -50.756  11.844  23.243  0.00  0.00     0.002 A 
ENDBRANCH   1   8
BRANCH   2  19
ATOM     19  C   UNL d   1     -46.263  13.301  22.598  0.00  0.00     0.084 C 
BRANCH  19  20
ATOM     20  C   UNL d   1     -45.830  13.236  21.918  0.00  0.00     0.019 C 
BRANCH  20  21
ATOM     21  C   UNL d   1     -45.175  12.717  21.898  0.00  0.00     0.002 C 
BRANCH  21  22
ATOM     22  C   UNL d   1     -44.434  13.019  21.781  0.00  0.00     0.006 C 
BRANCH  22  23
ATOM     23  C   UNL d   1     -43.870  12.569  21.359  0.00  0.00     0.070 C 
BRANCH  23  24
ATOM     24  C   UNL d   1     -43.088  12.601  21.567  0.00  0.00     0.211 C 
ATOM     25  O   UNL d   1     -42.749  11.991  22.013  0.00  0.00    -0.644 OA
ATOM     26  O   UNL d   1     -42.615  13.234  21.345  0.00  0.00    -0.644 OA
ENDBRANCH  23  24
ENDBRANCH  22  23
ENDBRANCH  21  22
ENDBRANCH  20  21
ENDBRANCH  19  20
ENDBRANCH   2  19
TORSDOF 7
ENDMDL
