MODEL 1
REMARK VINA RESULT:      -3.3      0.000      0.000
REMARK  3 active torsions:
REMARK  status: ('A' for Active; 'I' for Inactive)
REMARK    1  A    between atoms: C_7  and  N_1 
REMARK    2  A    between atoms: C_13  and  C_7 
REMARK    3  A    between atoms: O_18  and  C_10 
ROOT
ATOM      1  N   UNL d   1      32.041  17.352 -24.023  0.00  0.00    -0.226 N 
ATOM      2  C   UNL d   1      32.248  16.702 -23.629  0.00  0.00     0.343 A 
ATOM      3  N   UNL d   1      31.564  16.127 -23.534  0.00  0.00    -0.241 N 
ATOM      4  C   UNL d   1      31.321  17.396 -24.256  0.00  0.00     0.273 A 
ATOM      5  C   UNL d   1      30.927  16.344 -23.831  0.00  0.00     0.158 A 
ATOM      6  C   UNL d   1      30.742  17.040 -24.243  0.00  0.00     0.113 A 
ATOM      7  N   UNL d   1      30.346  15.769 -23.706  0.00  0.00    -0.226 NA
ATOM      8  O   UNL d   1      32.694  16.481 -23.385  0.00  0.00    -0.245 OA
ATOM      9  C   UNL d   1      29.975  17.159 -24.529  0.00  0.00     0.103 A 
ATOM     10  O   UNL d   1      31.233  17.852 -24.516  0.00  0.00    -0.266 OA
ATOM     11  C   UNL d   1      31.675  15.472 -23.165  0.00  0.00     0.105 C 
ATOM     12  C   UNL d   1      29.580  15.890 -23.992  0.00  0.00     0.103 A 
ATOM     13  C   UNL d   1      29.394  16.585 -24.404  0.00  0.00     0.045 A 
ENDROOT
BRANCH   1  14
ATOM     14  C   UNL d   1      32.585  17.952 -24.172  0.00  0.00     0.087 C 
BRANCH  14  15
ATOM     15  C   UNL d   1      32.751  18.518 -23.601  0.00  0.00     0.018 A 
ATOM     16  C   UNL d   1      32.629  19.332 -23.768  0.00  0.00     0.002 A 
ATOM     17  C   UNL d   1      32.791  19.900 -23.209  0.00  0.00     0.011 A 
ATOM     18  C   UNL d   1      33.076  19.672 -22.479  0.00  0.00     0.058 A 
ATOM     19  C   UNL d   1      33.200  18.871 -22.304  0.00  0.00     0.011 A 
ATOM     20 CL   UNL d   1      33.241  20.245 -21.910  0.00  0.00    -0.082 Cl
ATOM     21  C   UNL d   1      33.040  18.302 -22.858  0.00  0.00     0.002 A 
ENDBRANCH  14  15
ENDBRANCH   1  14
BRANCH   9  22
ATOM     22  O   UNL d   1      29.793  17.939 -24.982  0.00  0.00    -0.328 OA
ATOM     23  C   UNL d   1      29.014  18.187 -25.097  0.00  0.00     0.181 C 
ENDBRANCH   9  22
TORSDOF 3
ENDMDL
MODEL 2
REMARK VINA RESULT:      -3.1      1.829      3.653
REMARK  3 active torsions:
REMARK  status: ('A' for Active; 'I' for Inactive)
REMARK    1  A    between atoms: C_7  and  N_1 
REMARK    2  A    between atoms: C_13  and  C_7 
REMARK    3  A    between atoms: O_18  and  C_10 
ROOT
ATOM      1  N   UNL d   1      30.923  16.521 -24.271  0.00  0.00    -0.226 N 
ATOM      2  C   UNL d   1      31.204  16.001 -23.750  0.00  0.00     0.343 A 
ATOM      3  N   UNL d   1      31.952  16.292 -23.346  0.00  0.00    -0.241 N 
ATOM      4  C   UNL d   1      31.311  17.167 -24.353  0.00  0.00     0.273 A 
ATOM      5  C   UNL d   1      32.185  16.957 -23.557  0.00  0.00     0.158 A 
ATOM      6  C   UNL d   1      31.864  17.482 -24.113  0.00  0.00     0.113 A 
ATOM      7  N   UNL d   1      32.874  17.159 -23.147  0.00  0.00    -0.226 NA
ATOM      8  O   UNL d   1      31.083  15.500 -23.548  0.00  0.00    -0.245 OA
ATOM      9  C   UNL d   1      32.232  18.209 -24.257  0.00  0.00     0.103 A 
ATOM     10  O   UNL d   1      31.080  17.482 -24.715  0.00  0.00    -0.266 OA
ATOM     11  C   UNL d   1      32.291  15.853 -22.827  0.00  0.00     0.105 C 
ATOM     12  C   UNL d   1      33.241  17.885 -23.291  0.00  0.00     0.103 A 
ATOM     13  C   UNL d   1      32.920  18.410 -23.846  0.00  0.00     0.045 A 
ENDROOT
BRANCH   1  14
ATOM     14  C   UNL d   1      30.240  16.365 -24.704  0.00  0.00     0.087 C 
BRANCH  14  15
ATOM     15  C   UNL d   1      29.510  16.317 -24.333  0.00  0.00     0.018 A 
ATOM     16  C   UNL d   1      29.163  15.567 -24.184  0.00  0.00     0.002 A 
ATOM     17  C   UNL d   1      28.440  15.508 -23.816  0.00  0.00     0.011 A 
ATOM     18  C   UNL d   1      28.051  16.189 -23.591  0.00  0.00     0.058 A 
ATOM     19  C   UNL d   1      28.384  16.935 -23.734  0.00  0.00     0.011 A 
ATOM     20 CL   UNL d   1      27.318  16.133 -23.218  0.00  0.00    -0.082 Cl
ATOM     21  C   UNL d   1      29.104  16.997 -24.099  0.00  0.00     0.002 A 
ENDBRANCH  14  15
ENDBRANCH   1  14
BRANCH   9  22
ATOM     22  O   UNL d   1      31.857  18.775 -24.878  0.00  0.00    -0.328 OA
ATOM     23  C   UNL d   1      32.237  19.475 -25.093  0.00  0.00     0.181 C 
ENDBRANCH   9  22
TORSDOF 3
ENDMDL
MODEL 3
REMARK VINA RESULT:      -2.7      1.923      4.099
REMARK  3 active torsions:
REMARK  status: ('A' for Active; 'I' for Inactive)
REMARK    1  A    between atoms: C_7  and  N_1 
REMARK    2  A    between atoms: C_13  and  C_7 
REMARK    3  A    between atoms: O_18  and  C_10 
ROOT
ATOM      1  N   UNL d   1      30.842  16.555 -24.550  0.00  0.00    -0.226 N 
ATOM      2  C   UNL d   1      30.724  17.293 -24.799  0.00  0.00     0.343 A 
ATOM      3  N   UNL d   1      31.381  17.849 -24.542  0.00  0.00    -0.241 N 
ATOM      4  C   UNL d   1      31.469  16.426 -24.145  0.00  0.00     0.273 A 
ATOM      5  C   UNL d   1      31.918  17.540 -24.146  0.00  0.00     0.158 A 
ATOM      6  C   UNL d   1      32.012  16.754 -23.900  0.00  0.00     0.113 A 
ATOM      7  N   UNL d   1      32.485  18.108 -23.946  0.00  0.00    -0.226 NA
ATOM      8  O   UNL d   1      30.354  17.585 -25.091  0.00  0.00    -0.245 OA
ATOM      9  C   UNL d   1      32.674  16.537 -23.453  0.00  0.00     0.103 A 
ATOM     10  O   UNL d   1      31.501  15.915 -24.002  0.00  0.00    -0.266 OA
ATOM     11  C   UNL d   1      31.347  18.583 -24.739  0.00  0.00     0.105 C 
ATOM     12  C   UNL d   1      33.145  17.890 -23.499  0.00  0.00     0.103 A 
ATOM     13  C   UNL d   1      33.240  17.104 -23.253  0.00  0.00     0.045 A 
ENDROOT
BRANCH   1  14
ATOM     14  C   UNL d   1      30.305  15.955 -24.725  0.00  0.00     0.087 C 
BRANCH  14  15
ATOM     15  C   UNL d   1      29.571  15.929 -24.359  0.00  0.00     0.018 A 
ATOM     16  C   UNL d   1      29.469  15.485 -23.654  0.00  0.00     0.002 A 
ATOM     17  C   UNL d   1      28.746  15.453 -23.283  0.00  0.00     0.011 A 
ATOM     18  C   UNL d   1      28.115  15.859 -23.604  0.00  0.00     0.058 A 
ATOM     19  C   UNL d   1      28.205  16.301 -24.300  0.00  0.00     0.011 A 
ATOM     20 CL   UNL d   1      27.380  15.829 -23.231  0.00  0.00    -0.082 Cl
ATOM     21  C   UNL d   1      28.923  16.335 -24.672  0.00  0.00     0.002 A 
ENDBRANCH  14  15
ENDBRANCH   1  14
BRANCH   9  22
ATOM     22  O   UNL d   1      32.757  15.659 -23.191  0.00  0.00    -0.328 OA
ATOM     23  C   UNL d   1      33.241  15.454 -22.555  0.00  0.00     0.181 C 
ENDBRANCH   9  22
TORSDOF 3
ENDMDL
MODEL 4
REMARK VINA RESULT:      -2.3      2.378      4.308
REMARK  3 active torsions:
REMARK  status: ('A' for Active; 'I' for Inactive)
REMARK    1  A    between atoms: C_7  and  N_1 
REMARK    2  A    between atoms: C_13  and  C_7 
REMARK    3  A    between atoms: O_18  and  C_10 
ROOT
ATOM      1  N   UNL d   1      33.230  19.396 -23.088  0.00  0.00    -0.226 N 
ATOM      2  C   UNL d   1      33.229  19.194 -22.326  0.00  0.00     0.343 A 
ATOM      3  N   UNL d   1      33.230  19.910 -21.783  0.00  0.00    -0.241 N 
ATOM      4  C   UNL d   1      33.232  20.137 -23.246  0.00  0.00     0.273 A 
ATOM      5  C   UNL d   1      33.232  20.562 -22.123  0.00  0.00     0.158 A 
ATOM      6  C   UNL d   1      33.234  20.741 -22.932  0.00  0.00     0.113 A 
ATOM      7  N   UNL d   1      33.233  21.172 -21.564  0.00  0.00    -0.226 NA
ATOM      8  O   UNL d   1      33.227  18.738 -22.011  0.00  0.00    -0.245 OA
ATOM      9  C   UNL d   1      33.236  21.529 -23.182  0.00  0.00     0.103 A 
ATOM     10  O   UNL d   1      33.233  20.219 -23.771  0.00  0.00    -0.266 OA
ATOM     11  C   UNL d   1      33.229  19.807 -21.030  0.00  0.00     0.105 C 
ATOM     12  C   UNL d   1      33.236  21.959 -21.814  0.00  0.00     0.103 A 
ATOM     13  C   UNL d   1      33.237  22.138 -22.624  0.00  0.00     0.045 A 
ENDROOT
BRANCH   1  14
ATOM     14  C   UNL d   1      33.229  18.824 -23.681  0.00  0.00     0.087 C 
BRANCH  14  15
ATOM     15  C   UNL d   1      32.582  18.329 -23.785  0.00  0.00     0.018 A 
ATOM     16  C   UNL d   1      32.057  18.453 -24.428  0.00  0.00     0.002 A 
ATOM     17  C   UNL d   1      31.414  17.969 -24.540  0.00  0.00     0.011 A 
ATOM     18  C   UNL d   1      31.282  17.355 -24.018  0.00  0.00     0.058 A 
ATOM     19  C   UNL d   1      31.794  17.224 -23.379  0.00  0.00     0.011 A 
ATOM     20 CL   UNL d   1      30.630  16.862 -24.128  0.00  0.00    -0.082 Cl
ATOM     21  C   UNL d   1      32.435  17.704 -23.265  0.00  0.00     0.002 A 
ENDBRANCH  14  15
ENDBRANCH   1  14
BRANCH   9  22
ATOM     22  O   UNL d   1      33.238  21.703 -24.086  0.00  0.00    -0.328 OA
ATOM     23  C   UNL d   1      32.866  22.375 -24.386  0.00  0.00     0.181 C 
ENDBRANCH   9  22
TORSDOF 3
ENDMDL
MODEL 5
REMARK VINA RESULT:      -1.9      2.097      3.379
REMARK  3 active torsions:
REMARK  status: ('A' for Active; 'I' for Inactive)
REMARK    1  A    between atoms: C_7  and  N_1 
REMARK    2  A    between atoms: C_13  and  C_7 
REMARK    3  A    between atoms: O_18  and  C_10 
ROOT
ATOM      1  N   UNL d   1      33.066  19.732 -22.836  0.00  0.00    -0.226 N 
ATOM      2  C   UNL d   1      33.116  20.231 -23.444  0.00  0.00     0.343 A 
ATOM      3  N   UNL d   1      32.911  19.839 -24.226  0.00  0.00    -0.241 N 
ATOM      4  C   UNL d   1      32.859  19.020 -22.994  0.00  0.00     0.273 A 
ATOM      5  C   UNL d   1      32.731  19.127 -24.183  0.00  0.00     0.158 A 
ATOM      6  C   UNL d   1      32.688  18.628 -23.523  0.00  0.00     0.113 A 
ATOM      7  N   UNL d   1      32.556  18.834 -24.936  0.00  0.00    -0.226 NA
ATOM      8  O   UNL d   1      33.241  20.762 -23.544  0.00  0.00    -0.245 OA
ATOM      9  C   UNL d   1      32.469  17.836 -23.616  0.00  0.00     0.103 A 
ATOM     10  O   UNL d   1      32.841  18.725 -22.552  0.00  0.00    -0.266 OA
ATOM     11  C   UNL d   1      32.934  20.249 -24.866  0.00  0.00     0.105 C 
ATOM     12  C   UNL d   1      32.338  18.042 -25.029  0.00  0.00     0.103 A 
ATOM     13  C   UNL d   1      32.294  17.543 -24.369  0.00  0.00     0.045 A 
ENDROOT
BRANCH   1  14
ATOM     14  C   UNL d   1      33.230  19.978 -22.068  0.00  0.00     0.087 C 
BRANCH  14  15
ATOM     15  C   UNL d   1      32.913  20.676 -21.773  0.00  0.00     0.018 A 
ATOM     16  C   UNL d   1      32.255  20.651 -21.252  0.00  0.00     0.002 A 
ATOM     17  C   UNL d   1      31.933  21.336 -20.955  0.00  0.00     0.011 A 
ATOM     18  C   UNL d   1      32.257  22.053 -21.169  0.00  0.00     0.058 A 
ATOM     19  C   UNL d   1      32.907  22.090 -21.683  0.00  0.00     0.011 A 
ATOM     20 CL   UNL d   1      31.933  22.750 -20.870  0.00  0.00    -0.082 Cl
ATOM     21  C   UNL d   1      33.230  21.409 -21.981  0.00  0.00     0.002 A 
ENDBRANCH  14  15
ENDBRANCH   1  14
BRANCH   9  22
ATOM     22  O   UNL d   1      32.428  17.301 -22.869  0.00  0.00    -0.328 OA
ATOM     23  C   UNL d   1      32.292  16.490 -22.938  0.00  0.00     0.181 C 
ENDBRANCH   9  22
TORSDOF 3
ENDMDL
