MODEL 1
REMARK VINA RESULT:      46.6      0.000      0.000
REMARK  7 active torsions:
REMARK  status: ('A' for Active; 'I' for Inactive)
REMARK    1  A    between atoms: C_7  and  N_1 
REMARK    2  A    between atoms: S_15  and  C_3 
REMARK    3  A    between atoms: O_8  and  C_7 
REMARK    4  A    between atoms: C_10  and  O_8 
REMARK    5  A    between atoms: C_19  and  C_10 
REMARK    6  A    between atoms: C_13  and  O_14 
REMARK    7  A    between atoms: O_14  and  C_19 
ROOT
ATOM      1  O   UNL d   1     -55.259 -99.265 -43.991  0.00  0.00    -0.251 OA
ENDROOT
BRANCH   1   2
ATOM      2  C   UNL d   1     -54.828 -99.968 -43.964  0.00  0.00     0.215 C 
BRANCH   2   3
ATOM      3  N   UNL d   1     -54.793-100.409 -43.265  0.00  0.00    -0.229 N 
ATOM      4  C   UNL d   1     -54.789-100.022 -42.536  0.00  0.00     0.287 A 
ATOM      5  C   UNL d   1     -54.754-100.459 -41.836  0.00  0.00     0.159 A 
ATOM      6  O   UNL d   1     -54.819 -99.198 -42.506  0.00  0.00    -0.265 OA
ATOM      7  C   UNL d   1     -54.750-100.059 -41.107  0.00  0.00     0.028 C 
ATOM      8  N   UNL d   1     -54.724-101.283 -41.866  0.00  0.00    -0.141 NA
ATOM      9  N   UNL d   1     -54.728-101.670 -42.595  0.00  0.00    -0.123 NA
ATOM     10  C   UNL d   1     -54.763-101.233 -43.294  0.00  0.00     0.200 A 
BRANCH  10  11
ATOM     11  S   UNL d   1     -54.767-101.620 -44.024  0.00  0.00    -0.074 SA
ATOM     12  C   UNL d   1     -54.858-102.439 -44.055  0.00  0.00     0.077 C 
ENDBRANCH  10  11
ENDBRANCH   2   3
ENDBRANCH   1   2
BRANCH   1  13
ATOM     13  C   UNL d   1     -55.707 -99.080 -44.660  0.00  0.00     0.327 C 
ATOM     14  O   UNL d   1     -55.398 -99.216 -45.413  0.00  0.00    -0.256 OA
BRANCH  13  15
ATOM     15  C   UNL d   1     -56.463 -98.761 -44.574  0.00  0.00     0.191 C 
BRANCH  15  16
ATOM     16  O   UNL d   1     -57.103 -99.252 -44.426  0.00  0.00    -0.299 OA
BRANCH  16  17
ATOM     17  C   UNL d   1     -57.816 -99.136 -44.824  0.00  0.00     0.111 A 
ATOM     18  C   UNL d   1     -58.504 -98.989 -44.406  0.00  0.00     0.081 A 
ATOM     19  C   UNL d   1     -59.217 -98.872 -44.805  0.00  0.00     0.025 A 
ATOM     20 CL   UNL d   1     -58.479 -98.958 -43.568  0.00  0.00    -0.080 Cl
ATOM     21  C   UNL d   1     -59.242 -98.902 -45.621  0.00  0.00     0.059 A 
ATOM     22  C   UNL d   1     -58.551 -99.050 -46.047  0.00  0.00     0.013 A 
ATOM     23 CL   UNL d   1     -59.957 -98.785 -46.015  0.00  0.00    -0.082 Cl
ATOM     24  C   UNL d   1     -57.838 -99.167 -45.649  0.00  0.00     0.026 A 
ENDBRANCH  16  17
ENDBRANCH  15  16
ENDBRANCH  13  15
ENDBRANCH   1  13
TORSDOF 7
ENDMDL
MODEL 2
REMARK VINA RESULT:      48.7      2.676      4.226
REMARK  7 active torsions:
REMARK  status: ('A' for Active; 'I' for Inactive)
REMARK    1  A    between atoms: C_7  and  N_1 
REMARK    2  A    between atoms: S_15  and  C_3 
REMARK    3  A    between atoms: O_8  and  C_7 
REMARK    4  A    between atoms: C_10  and  O_8 
REMARK    5  A    between atoms: C_19  and  C_10 
REMARK    6  A    between atoms: C_13  and  O_14 
REMARK    7  A    between atoms: O_14  and  C_19 
ROOT
ATOM      1  O   UNL d   1     -56.868 -99.418 -43.898  0.00  0.00    -0.251 OA
ENDROOT
BRANCH   1   2
ATOM      2  C   UNL d   1     -57.317 -98.759 -43.687  0.00  0.00     0.215 C 
BRANCH   2   3
ATOM      3  N   UNL d   1     -58.144 -98.791 -43.714  0.00  0.00    -0.229 N 
ATOM      4  C   UNL d   1     -58.576 -98.826 -43.011  0.00  0.00     0.287 A 
ATOM      5  C   UNL d   1     -59.401 -98.858 -43.034  0.00  0.00     0.159 A 
ATOM      6  O   UNL d   1     -58.183 -98.827 -42.285  0.00  0.00    -0.265 OA
ATOM      7  C   UNL d   1     -59.826 -98.893 -42.320  0.00  0.00     0.028 C 
ATOM      8  N   UNL d   1     -59.793 -98.857 -43.760  0.00  0.00    -0.141 NA
ATOM      9  N   UNL d   1     -59.361 -98.823 -44.462  0.00  0.00    -0.123 NA
ATOM     10  C   UNL d   1     -58.536 -98.790 -44.440  0.00  0.00     0.200 A 
BRANCH  10  11
ATOM     11  S   UNL d   1     -58.104 -98.756 -45.142  0.00  0.00    -0.074 SA
ATOM     12  C   UNL d   1     -58.300 -99.252 -45.771  0.00  0.00     0.077 C 
ENDBRANCH  10  11
ENDBRANCH   2   3
ENDBRANCH   1   2
BRANCH   1  13
ATOM     13  C   UNL d   1     -56.255 -99.341 -44.446  0.00  0.00     0.327 C 
ATOM     14  O   UNL d   1     -56.401 -98.998 -45.183  0.00  0.00    -0.256 OA
BRANCH  13  15
ATOM     15  C   UNL d   1     -55.498 -99.608 -44.257  0.00  0.00     0.191 C 
BRANCH  15  16
ATOM     16  O   UNL d   1     -55.390-100.364 -43.956  0.00  0.00    -0.299 OA
BRANCH  16  17
ATOM     17  C   UNL d   1     -55.221-100.992 -44.463  0.00  0.00     0.111 A 
ATOM     18  C   UNL d   1     -55.371-101.762 -44.231  0.00  0.00     0.081 A 
ATOM     19  C   UNL d   1     -55.202-102.390 -44.739  0.00  0.00     0.025 A 
ATOM     20 CL   UNL d   1     -55.699-101.908 -43.473  0.00  0.00    -0.080 Cl
ATOM     21  C   UNL d   1     -54.883-102.248 -45.478  0.00  0.00     0.059 A 
ATOM     22  C   UNL d   1     -54.729-101.473 -45.716  0.00  0.00     0.013 A 
ATOM     23 CL   UNL d   1     -54.715-102.879 -45.982  0.00  0.00    -0.082 Cl
ATOM     24  C   UNL d   1     -54.898-100.845 -45.209  0.00  0.00     0.026 A 
ENDBRANCH  16  17
ENDBRANCH  15  16
ENDBRANCH  13  15
ENDBRANCH   1  13
TORSDOF 7
ENDMDL
