MODEL 1
REMARK VINA RESULT:      68.0      0.000      0.000
REMARK  3 active torsions:
REMARK  status: ('A' for Active; 'I' for Inactive)
REMARK    1  A    between atoms: C_4  and  C_1 
REMARK    2  A    between atoms: C_9  and  N_2 
REMARK    3  A    between atoms: C_8  and  N_3 
ROOT
ATOM      1  C   UNL d   1     -55.129-100.653 -43.019  0.00  0.00     0.139 A 
ATOM      2  N   UNL d   1     -55.113 -99.862 -43.251  0.00  0.00    -0.290 N 
ATOM      3  N   UNL d   1     -54.881-100.702 -42.234  0.00  0.00    -0.290 N 
ATOM      4  C   UNL d   1     -54.858 -99.423 -42.617  0.00  0.00     0.101 A 
ATOM      5  C   UNL d   1     -54.715 -99.931 -41.995  0.00  0.00     0.101 A 
ENDROOT
BRANCH   2   6
ATOM      6  C   UNL d   1     -55.304 -99.486 -43.974  0.00  0.00     0.066 A 
ATOM      7  C   UNL d   1     -54.728 -99.121 -44.423  0.00  0.00     0.018 A 
ATOM      8  C   UNL d   1     -54.919 -98.756 -45.127  0.00  0.00     0.002 A 
ATOM      9  C   UNL d   1     -55.702 -98.755 -45.388  0.00  0.00     0.000 A 
ATOM     10  C   UNL d   1     -56.279 -99.120 -44.939  0.00  0.00     0.002 A 
ATOM     11  C   UNL d   1     -56.088 -99.488 -44.230  0.00  0.00     0.018 A 
ENDBRANCH   2   6
BRANCH   1  12
ATOM     12  C   UNL d   1     -55.361-101.276 -43.516  0.00  0.00     0.063 A 
ATOM     13  S   UNL d   1     -54.711-101.453 -44.038  0.00  0.00    -0.083 SA
ATOM     14  C   UNL d   1     -54.956-102.074 -44.527  0.00  0.00     0.035 A 
ATOM     15  C   UNL d   1     -55.720-102.285 -44.329  0.00  0.00     0.008 A 
ATOM     16  C   UNL d   1     -55.981-101.795 -43.701  0.00  0.00     0.010 A 
ENDBRANCH   1  12
BRANCH   3  17
ATOM     17  C   UNL d   1     -54.841-101.425 -41.853  0.00  0.00     0.066 A 
ATOM     18  C   UNL d   1     -54.766-102.123 -42.282  0.00  0.00     0.018 A 
ATOM     19  C   UNL d   1     -54.727-102.846 -41.878  0.00  0.00     0.002 A 
ATOM     20  C   UNL d   1     -54.761-102.876 -41.067  0.00  0.00     0.000 A 
ATOM     21  C   UNL d   1     -54.837-102.177 -40.619  0.00  0.00     0.002 A 
ATOM     22  C   UNL d   1     -54.877-101.453 -41.014  0.00  0.00     0.018 A 
ENDBRANCH   3  17
TORSDOF 3
ENDMDL
MODEL 2
REMARK VINA RESULT:      69.8      0.297      3.480
REMARK  3 active torsions:
REMARK  status: ('A' for Active; 'I' for Inactive)
REMARK    1  A    between atoms: C_4  and  C_1 
REMARK    2  A    between atoms: C_9  and  N_2 
REMARK    3  A    between atoms: C_8  and  N_3 
ROOT
ATOM      1  C   UNL d   1     -55.100-100.642 -42.903  0.00  0.00     0.139 A 
ATOM      2  N   UNL d   1     -54.886-100.766 -42.116  0.00  0.00    -0.290 N 
ATOM      3  N   UNL d   1     -55.056 -99.834 -43.063  0.00  0.00    -0.290 N 
ATOM      4  C   UNL d   1     -54.712-100.043 -41.790  0.00  0.00     0.101 A 
ATOM      5  C   UNL d   1     -54.814 -99.472 -42.364  0.00  0.00     0.101 A 
ENDROOT
BRANCH   2   6
ATOM      6  C   UNL d   1     -54.830-101.462 -41.654  0.00  0.00     0.066 A 
ATOM      7  C   UNL d   1     -54.777-101.423 -40.841  0.00  0.00     0.018 A 
ATOM      8  C   UNL d   1     -54.723-102.103 -40.395  0.00  0.00     0.002 A 
ATOM      9  C   UNL d   1     -54.720-102.838 -40.769  0.00  0.00     0.000 A 
ATOM     10  C   UNL d   1     -54.773-102.878 -41.583  0.00  0.00     0.002 A 
ATOM     11  C   UNL d   1     -54.828-102.194 -42.034  0.00  0.00     0.018 A 
ENDBRANCH   2   6
BRANCH   1  12
ATOM     12  C   UNL d   1     -55.318-101.250 -43.425  0.00  0.00     0.063 A 
ATOM     13  S   UNL d   1     -54.714-101.314 -44.022  0.00  0.00    -0.083 SA
ATOM     14  C   UNL d   1     -54.944-101.922 -44.534  0.00  0.00     0.035 A 
ATOM     15  C   UNL d   1     -55.657-102.231 -44.279  0.00  0.00     0.008 A 
ATOM     16  C   UNL d   1     -55.898-101.820 -43.590  0.00  0.00     0.010 A 
ENDBRANCH   1  12
BRANCH   3  17
ATOM     17  C   UNL d   1     -55.239 -99.545 -43.806  0.00  0.00     0.066 A 
ATOM     18  C   UNL d   1     -54.740 -99.682 -44.446  0.00  0.00     0.018 A 
ATOM     19  C   UNL d   1     -54.944 -99.381 -45.191  0.00  0.00     0.002 A 
ATOM     20  C   UNL d   1     -55.626 -98.955 -45.300  0.00  0.00     0.000 A 
ATOM     21  C   UNL d   1     -56.142 -98.808 -44.662  0.00  0.00     0.002 A 
ATOM     22  C   UNL d   1     -55.946 -99.104 -43.916  0.00  0.00     0.018 A 
ENDBRANCH   3  17
TORSDOF 3
ENDMDL
