MODEL 1
REMARK VINA RESULT:      24.1      0.000      0.000
REMARK  5 active torsions:
REMARK  status: ('A' for Active; 'I' for Inactive)
REMARK    1  A    between atoms: N_2  and  S_1 
REMARK    2  A    between atoms: C_5  and  S_1 
REMARK    3  A    between atoms: C_3  and  N_2 
REMARK    4  A    between atoms: C_4  and  C_3 
REMARK       I    between atoms: N_8  and  C_4 
REMARK    5  A    between atoms: C_13  and  N_8 
ROOT
ATOM      1  N   UNL d   1      14.205  12.042  -1.827  0.00  0.00    -0.223 N 
ATOM      2  C   UNL d   1      14.902  11.993  -2.267  0.00  0.00     0.112 C 
ENDROOT
BRANCH   1   3
ATOM      3  S   UNL d   1      13.479  11.986  -2.206  0.00  0.00     0.272 S 
ATOM      4  O   UNL d   1      12.804  11.782  -1.778  0.00  0.00    -0.200 OA
ATOM      5  O   UNL d   1      14.246  12.169  -2.446  0.00  0.00    -0.200 OA
BRANCH   3   6
ATOM      6  C   UNL d   1      13.421  12.131  -3.014  0.00  0.00     0.104 A 
ATOM      7  C   UNL d   1      12.821  12.620  -3.305  0.00  0.00     0.013 A 
ATOM      8  C   UNL d   1      12.770  12.761  -4.119  0.00  0.00     0.001 A 
ATOM      9  C   UNL d   1      13.310  12.421  -4.639  0.00  0.00     0.000 A 
ATOM     10  C   UNL d   1      13.909  11.934  -4.352  0.00  0.00     0.001 A 
ATOM     11  C   UNL d   1      13.249  12.569  -5.454  0.00  0.00     0.000 C 
ATOM     12  C   UNL d   1      13.968  11.787  -3.540  0.00  0.00     0.013 A 
ENDBRANCH   3   6
ENDBRANCH   1   3
BRANCH   1  13
ATOM     13  C   UNL d   1      14.240  12.148  -1.011  0.00  0.00     0.154 C 
BRANCH  13  14
ATOM     14  C   UNL d   1      14.444  12.881  -0.690  0.00  0.00     0.298 C 
ATOM     15  N   UNL d   1      15.057  13.326  -1.015  0.00  0.00    -0.207 NA
ATOM     16  O   UNL d   1      14.028  13.165  -0.036  0.00  0.00    -0.264 OA
BRANCH  15  17
ATOM     17  C   UNL d   1      15.252  14.054  -0.686  0.00  0.00     0.088 A 
ATOM     18  C   UNL d   1      15.992  14.160  -0.348  0.00  0.00     0.040 A 
ATOM     19  C   UNL d   1      16.187  14.890  -0.019  0.00  0.00     0.101 A 
ATOM     20  N   UNL d   1      15.639  15.505  -0.033  0.00  0.00    -0.242 NA
ATOM     21  C   UNL d   1      14.898  15.391  -0.375  0.00  0.00     0.101 A 
ATOM     22  C   UNL d   1      14.706  14.662  -0.702  0.00  0.00     0.040 A 
ENDBRANCH  15  17
ENDBRANCH  13  14
ENDBRANCH   1  13
TORSDOF 5
ENDMDL
MODEL 2
REMARK VINA RESULT:      24.8      1.356      4.267
REMARK  5 active torsions:
REMARK  status: ('A' for Active; 'I' for Inactive)
REMARK    1  A    between atoms: N_2  and  S_1 
REMARK    2  A    between atoms: C_5  and  S_1 
REMARK    3  A    between atoms: C_3  and  N_2 
REMARK    4  A    between atoms: C_4  and  C_3 
REMARK       I    between atoms: N_8  and  C_4 
REMARK    5  A    between atoms: C_13  and  N_8 
ROOT
ATOM      1  N   UNL d   1      13.826  11.976  -2.247  0.00  0.00    -0.223 N 
ATOM      2  C   UNL d   1      14.571  11.792  -2.548  0.00  0.00     0.112 C 
ENDROOT
BRANCH   1   3
ATOM      3  S   UNL d   1      13.741  12.161  -1.452  0.00  0.00     0.272 S 
ATOM      4  O   UNL d   1      13.137  11.817  -1.008  0.00  0.00    -0.200 OA
ATOM      5  O   UNL d   1      14.261  12.390  -2.049  0.00  0.00    -0.200 OA
BRANCH   3   6
ATOM      6  C   UNL d   1      14.259  12.692  -1.094  0.00  0.00     0.104 A 
ATOM      7  C   UNL d   1      14.765  12.436  -0.493  0.00  0.00     0.013 A 
ATOM      8  C   UNL d   1      15.282  12.975  -0.138  0.00  0.00     0.001 A 
ATOM      9  C   UNL d   1      15.296  13.763  -0.378  0.00  0.00     0.000 A 
ATOM     10  C   UNL d   1      14.793  14.021  -0.976  0.00  0.00     0.001 A 
ATOM     11  C   UNL d   1      15.819  14.297  -0.015  0.00  0.00     0.000 C 
ATOM     12  C   UNL d   1      14.272  13.489  -1.337  0.00  0.00     0.013 A 
ENDBRANCH   3   6
ENDBRANCH   1   3
BRANCH   1  13
ATOM     13  C   UNL d   1      13.169  11.973  -2.743  0.00  0.00     0.154 C 
BRANCH  13  14
ATOM     14  C   UNL d   1      13.202  12.325  -3.489  0.00  0.00     0.298 C 
ATOM     15  N   UNL d   1      13.340  11.870  -4.163  0.00  0.00    -0.207 NA
ATOM     16  O   UNL d   1      13.097  13.141  -3.556  0.00  0.00    -0.264 OA
BRANCH  15  17
ATOM     17  C   UNL d   1      13.372  12.232  -4.901  0.00  0.00     0.088 A 
ATOM     18  C   UNL d   1      13.213  13.034  -4.966  0.00  0.00     0.040 A 
ATOM     19  C   UNL d   1      13.245  13.396  -5.706  0.00  0.00     0.101 A 
ATOM     20  N   UNL d   1      13.435  12.950  -6.371  0.00  0.00    -0.242 NA
ATOM     21  C   UNL d   1      13.594  12.145  -6.298  0.00  0.00     0.101 A 
ATOM     22  C   UNL d   1      13.561  11.787  -5.560  0.00  0.00     0.040 A 
ENDBRANCH  15  17
ENDBRANCH  13  14
ENDBRANCH   1  13
TORSDOF 5
ENDMDL
