MODEL 1
REMARK VINA RESULT:      63.1      0.000      0.000
REMARK  4 active torsions:
REMARK  status: ('A' for Active; 'I' for Inactive)
REMARK    1  A    between atoms: N_10  and  C_3 
REMARK    2  A    between atoms: C_11  and  C_5 
REMARK    3  A    between atoms: C_12  and  N_10 
REMARK    4  A    between atoms: O_18  and  C_15 
ROOT
ATOM      1  N   UNL d   1      45.725 -18.102  41.616  0.00  0.00    -0.184 N 
ATOM      2  C   UNL d   1      45.925 -18.611  42.252  0.00  0.00     0.168 A 
ATOM      3  C   UNL d   1      45.842 -18.355  40.837  0.00  0.00     0.217 A 
ATOM      4  N   UNL d   1      45.300 -17.113  42.541  0.00  0.00    -0.162 NA
ATOM      5  C   UNL d   1      45.810 -18.365  43.012  0.00  0.00     0.055 A 
ATOM      6  N   UNL d   1      46.235 -19.355  42.087  0.00  0.00    -0.227 NA
ATOM      7  C   UNL d   1      46.150 -19.092  40.691  0.00  0.00     0.066 A 
ATOM      8  C   UNL d   1      45.497 -17.614  43.167  0.00  0.00     0.104 A 
ATOM      9  C   UNL d   1      46.353 -19.607  41.321  0.00  0.00     0.087 A 
ATOM     10  C   UNL d   1      46.324 -19.486  40.003  0.00  0.00     0.006 A 
ATOM     11  C   UNL d   1      45.384 -17.373  43.940  0.00  0.00     0.023 C 
ATOM     12  C   UNL d   1      46.646 -20.304  41.006  0.00  0.00     0.019 A 
ATOM     13  C   UNL d   1      46.627 -20.224  40.180  0.00  0.00     0.002 A 
ENDROOT
BRANCH   3  14
ATOM     14  N   UNL d   1      45.641 -17.844  40.192  0.00  0.00    -0.383 NA
BRANCH  14  15
ATOM     15  C   UNL d   1      45.305 -17.399  39.559  0.00  0.00     0.135 A 
ATOM     16  C   UNL d   1      45.813 -17.024  39.009  0.00  0.00     0.056 A 
ATOM     17  C   UNL d   1      45.477 -16.569  38.362  0.00  0.00     0.097 A 
ATOM     18  C   UNL d   1      44.631 -16.507  38.292  0.00  0.00     0.024 A 
ATOM     19  C   UNL d   1      44.131 -16.889  38.852  0.00  0.00     0.005 A 
ATOM     20  C   UNL d   1      44.465 -17.339  39.492  0.00  0.00     0.032 A 
BRANCH  17  21
ATOM     21  O   UNL d   1      45.976 -16.192  37.810  0.00  0.00    -0.328 OA
ATOM     22  C   UNL d   1      45.740 -15.464  37.447  0.00  0.00     0.181 C 
ENDBRANCH  17  21
ENDBRANCH  14  15
ENDBRANCH   3  14
BRANCH   5  23
ATOM     23  C   UNL d   1      46.006 -18.863  43.635  0.00  0.00     0.004 A 
ATOM     24  C   UNL d   1      46.444 -18.583  44.266  0.00  0.00     0.000 A 
ATOM     25  C   UNL d   1      46.642 -19.087  44.896  0.00  0.00     0.000 A 
ATOM     26  C   UNL d   1      46.399 -19.860  44.882  0.00  0.00     0.000 A 
ATOM     27  C   UNL d   1      45.957 -20.147  44.247  0.00  0.00     0.000 A 
ATOM     28  C   UNL d   1      45.763 -19.648  43.629  0.00  0.00     0.000 A 
ENDBRANCH   5  23
TORSDOF 4
ENDMDL
MODEL 2
REMARK VINA RESULT:      64.9      2.731      4.182
REMARK  4 active torsions:
REMARK  status: ('A' for Active; 'I' for Inactive)
REMARK    1  A    between atoms: N_10  and  C_3 
REMARK    2  A    between atoms: C_11  and  C_5 
REMARK    3  A    between atoms: C_12  and  N_10 
REMARK    4  A    between atoms: O_18  and  C_15 
ROOT
ATOM      1  N   UNL d   1      46.115 -16.783  43.731  0.00  0.00    -0.184 N 
ATOM      2  C   UNL d   1      46.255 -17.506  43.329  0.00  0.00     0.168 A 
ATOM      3  C   UNL d   1      46.148 -16.070  43.314  0.00  0.00     0.217 A 
ATOM      4  N   UNL d   1      45.913 -17.496  44.942  0.00  0.00    -0.162 NA
ATOM      5  C   UNL d   1      46.222 -18.203  43.735  0.00  0.00     0.055 A 
ATOM      6  N   UNL d   1      46.424 -17.489  42.524  0.00  0.00    -0.227 NA
ATOM      7  C   UNL d   1      46.316 -16.070  42.520  0.00  0.00     0.066 A 
ATOM      8  C   UNL d   1      46.051 -18.208  44.545  0.00  0.00     0.104 A 
ATOM      9  C   UNL d   1      46.458 -16.788  42.110  0.00  0.00     0.087 A 
ATOM     10  C   UNL d   1      46.386 -15.473  41.975  0.00  0.00     0.006 A 
ATOM     11  C   UNL d   1      46.020 -18.918  44.949  0.00  0.00     0.023 C 
ATOM     12  C   UNL d   1      46.611 -16.615  41.324  0.00  0.00     0.019 A 
ATOM     13  C   UNL d   1      46.565 -15.790  41.243  0.00  0.00     0.002 A 
ENDROOT
BRANCH   3  14
ATOM     14  N   UNL d   1      46.007 -15.338  43.717  0.00  0.00    -0.383 NA
BRANCH  14  15
ATOM     15  C   UNL d   1      45.964 -14.552  44.019  0.00  0.00     0.135 A 
ATOM     16  C   UNL d   1      45.415 -14.015  43.684  0.00  0.00     0.056 A 
ATOM     17  C   UNL d   1      45.367 -13.212  43.987  0.00  0.00     0.097 A 
ATOM     18  C   UNL d   1      45.878 -12.976  44.625  0.00  0.00     0.024 A 
ATOM     19  C   UNL d   1      46.426 -13.525  44.954  0.00  0.00     0.005 A 
ATOM     20  C   UNL d   1      46.473 -14.319  44.652  0.00  0.00     0.032 A 
BRANCH  17  21
ATOM     21  O   UNL d   1      44.823 -12.671  43.660  0.00  0.00    -0.328 OA
ATOM     22  C   UNL d   1      45.025 -12.225  42.969  0.00  0.00     0.181 C 
ENDBRANCH  17  21
ENDBRANCH  14  15
ENDBRANCH   3  14
BRANCH   5  23
ATOM     23  C   UNL d   1      46.359 -18.910  43.341  0.00  0.00     0.004 A 
ATOM     24  C   UNL d   1      46.508 -18.913  42.538  0.00  0.00     0.000 A 
ATOM     25  C   UNL d   1      46.647 -19.629  42.139  0.00  0.00     0.000 A 
ATOM     26  C   UNL d   1      46.634 -20.326  42.553  0.00  0.00     0.000 A 
ATOM     27  C   UNL d   1      46.485 -20.327  43.364  0.00  0.00     0.000 A 
ATOM     28  C   UNL d   1      46.349 -19.621  43.753  0.00  0.00     0.000 A 
ENDBRANCH   5  23
TORSDOF 4
ENDMDL
