MODEL 1
REMARK VINA RESULT:      -6.9      0.000      0.000
REMARK  4 active torsions:
REMARK  status: ('A' for Active; 'I' for Inactive)
REMARK    1  A    between atoms: C_8  and  C_1 
REMARK    2  A    between atoms: C_6  and  C_2 
REMARK    3  A    between atoms: O_17  and  C_8 
REMARK    4  A    between atoms: C_20  and  O_17 
ROOT
ATOM      1  C   UNL d   1     -49.622  13.145  22.964  0.00  0.00     0.099 A 
ATOM      2  C   UNL d   1     -48.939  12.716  23.055  0.00  0.00     0.093 A 
ATOM      3  C   UNL d   1     -50.353  12.796  23.116  0.00  0.00     0.093 A 
ATOM      4  C   UNL d   1     -49.684  11.585  23.450  0.00  0.00     0.369 A 
ATOM      5  N   UNL d   1     -50.381  12.017  23.358  0.00  0.00    -0.191 NA
ATOM      6  N   UNL d   1     -48.973  11.936  23.298  0.00  0.00    -0.191 NA
ATOM      7  O   UNL d   1     -49.700  10.786  23.697  0.00  0.00    -0.242 OA
ATOM      8  C   UNL d   1     -51.064  13.232  23.024  0.00  0.00     0.021 C 
ENDROOT
BRANCH   2   9
ATOM      9  C   UNL d   1     -48.004  13.118  22.874  0.00  0.00     0.029 A 
ATOM     10  C   UNL d   1     -47.674  12.897  22.163  0.00  0.00     0.060 A 
ATOM     11  C   UNL d   1     -46.902  13.232  22.019  0.00  0.00     0.023 A 
ATOM     12 CL   UNL d   1     -47.999  12.426  21.631  0.00  0.00    -0.082 Cl
ATOM     13  C   UNL d   1     -46.563  13.736  22.597  0.00  0.00     0.059 A 
ATOM     14  C   UNL d   1     -46.953  13.908  23.280  0.00  0.00     0.011 A 
ATOM     15 CL   UNL d   1     -45.808  14.069  22.468  0.00  0.00    -0.082 Cl
ATOM     16  C   UNL d   1     -47.706  13.589  23.433  0.00  0.00     0.003 A 
ENDBRANCH   2   9
BRANCH   1  17
ATOM     17  C   UNL d   1     -49.568  13.930  22.718  0.00  0.00     0.303 C 
ATOM     18  O   UNL d   1     -49.504  14.133  21.930  0.00  0.00    -0.259 OA
BRANCH  17  19
ATOM     19  O   UNL d   1     -49.579  14.560  23.293  0.00  0.00    -0.271 OA
BRANCH  19  20
ATOM     20  C   UNL d   1     -49.959  15.288  23.085  0.00  0.00     0.126 C 
ATOM     21  C   UNL d   1     -49.953  15.921  23.613  0.00  0.00     0.029 C 
ENDBRANCH  19  20
ENDBRANCH  17  19
ENDBRANCH   1  17
TORSDOF 4
ENDMDL
MODEL 2
REMARK VINA RESULT:      -6.3      1.478      2.685
REMARK  4 active torsions:
REMARK  status: ('A' for Active; 'I' for Inactive)
REMARK    1  A    between atoms: C_8  and  C_1 
REMARK    2  A    between atoms: C_6  and  C_2 
REMARK    3  A    between atoms: O_17  and  C_8 
REMARK    4  A    between atoms: C_20  and  O_17 
ROOT
ATOM      1  C   UNL d   1     -48.450  12.442  22.869  0.00  0.00     0.099 A 
ATOM      2  C   UNL d   1     -49.213  12.666  23.031  0.00  0.00     0.093 A 
ATOM      3  C   UNL d   1     -48.216  11.659  22.980  0.00  0.00     0.093 A 
ATOM      4  C   UNL d   1     -49.533  11.347  23.417  0.00  0.00     0.369 A 
ATOM      5  N   UNL d   1     -48.758  11.115  23.253  0.00  0.00    -0.191 NA
ATOM      6  N   UNL d   1     -49.752  12.116  23.306  0.00  0.00    -0.191 NA
ATOM      7  O   UNL d   1     -50.098  10.798  23.698  0.00  0.00    -0.242 OA
ATOM      8  C   UNL d   1     -47.429  11.420  22.814  0.00  0.00     0.021 C 
ENDROOT
BRANCH   2   9
ATOM      9  C   UNL d   1     -49.545  13.637  22.906  0.00  0.00     0.029 A 
ATOM     10  C   UNL d   1     -50.046  13.742  22.274  0.00  0.00     0.060 A 
ATOM     11  C   UNL d   1     -50.317  14.546  22.175  0.00  0.00     0.023 A 
ATOM     12 CL   UNL d   1     -50.284  13.188  21.776  0.00  0.00    -0.082 Cl
ATOM     13  C   UNL d   1     -50.056  15.133  22.714  0.00  0.00     0.059 A 
ATOM     14  C   UNL d   1     -49.557  14.949  23.319  0.00  0.00     0.011 A 
ATOM     15 CL   UNL d   1     -50.315  15.922  22.628  0.00  0.00    -0.082 Cl
ATOM     16  C   UNL d   1     -49.285  14.170  23.427  0.00  0.00     0.003 A 
ENDBRANCH   2   9
BRANCH   1  17
ATOM     17  C   UNL d   1     -47.919  13.011  22.593  0.00  0.00     0.303 C 
ATOM     18  O   UNL d   1     -47.922  13.264  21.818  0.00  0.00    -0.259 OA
BRANCH  17  19
ATOM     19  O   UNL d   1     -47.346  13.352  23.124  0.00  0.00    -0.271 OA
BRANCH  19  20
ATOM     20  C   UNL d   1     -46.649  13.702  22.792  0.00  0.00     0.126 C 
ATOM     21  C   UNL d   1     -46.062  14.002  23.287  0.00  0.00     0.029 C 
ENDBRANCH  19  20
ENDBRANCH  17  19
ENDBRANCH   1  17
TORSDOF 4
ENDMDL
MODEL 3
REMARK VINA RESULT:      -6.1      1.775      2.704
REMARK  4 active torsions:
REMARK  status: ('A' for Active; 'I' for Inactive)
REMARK    1  A    between atoms: C_8  and  C_1 
REMARK    2  A    between atoms: C_6  and  C_2 
REMARK    3  A    between atoms: O_17  and  C_8 
REMARK    4  A    between atoms: C_20  and  O_17 
ROOT
ATOM      1  C   UNL d   1     -48.500  13.668  22.346  0.00  0.00     0.099 A 
ATOM      2  C   UNL d   1     -47.744  13.762  22.626  0.00  0.00     0.093 A 
ATOM      3  C   UNL d   1     -48.949  14.326  22.134  0.00  0.00     0.093 A 
ATOM      4  C   UNL d   1     -47.856  15.163  22.495  0.00  0.00     0.369 A 
ATOM      5  N   UNL d   1     -48.625  15.071  22.210  0.00  0.00    -0.191 NA
ATOM      6  N   UNL d   1     -47.425  14.512  22.699  0.00  0.00    -0.191 NA
ATOM      7  O   UNL d   1     -47.513  15.921  22.577  0.00  0.00    -0.242 OA
ATOM      8  C   UNL d   1     -49.731  14.237  21.844  0.00  0.00     0.021 C 
ENDROOT
BRANCH   2   9
ATOM      9  C   UNL d   1     -47.150  12.963  22.901  0.00  0.00     0.029 A 
ATOM     10  C   UNL d   1     -46.457  12.898  22.480  0.00  0.00     0.060 A 
ATOM     11  C   UNL d   1     -45.969  12.236  22.712  0.00  0.00     0.023 A 
ATOM     12 CL   UNL d   1     -46.218  13.374  21.909  0.00  0.00    -0.082 Cl
ATOM     13  C   UNL d   1     -46.235  11.731  23.327  0.00  0.00     0.059 A 
ATOM     14  C   UNL d   1     -46.938  11.862  23.698  0.00  0.00     0.011 A 
ATOM     15 CL   UNL d   1     -45.768  11.080  23.562  0.00  0.00    -0.082 Cl
ATOM     16  C   UNL d   1     -47.422  12.503  23.482  0.00  0.00     0.003 A 
ENDBRANCH   2   9
BRANCH   1  17
ATOM     17  C   UNL d   1     -48.805  12.904  22.278  0.00  0.00     0.303 C 
ATOM     18  O   UNL d   1     -48.658  12.435  21.627  0.00  0.00    -0.259 OA
BRANCH  17  19
ATOM     19  O   UNL d   1     -49.292  12.583  22.900  0.00  0.00    -0.271 OA
BRANCH  19  20
ATOM     20  C   UNL d   1     -49.922  12.058  22.687  0.00  0.00     0.126 C 
ATOM     21  C   UNL d   1     -50.449  11.792  23.263  0.00  0.00     0.029 C 
ENDBRANCH  19  20
ENDBRANCH  17  19
ENDBRANCH   1  17
TORSDOF 4
ENDMDL
MODEL 4
REMARK VINA RESULT:      -6.0      1.834      3.387
REMARK  4 active torsions:
REMARK  status: ('A' for Active; 'I' for Inactive)
REMARK    1  A    between atoms: C_8  and  C_1 
REMARK    2  A    between atoms: C_6  and  C_2 
REMARK    3  A    between atoms: O_17  and  C_8 
REMARK    4  A    between atoms: C_20  and  O_17 
ROOT
ATOM      1  C   UNL d   1     -47.775  14.334  22.671  0.00  0.00     0.099 A 
ATOM      2  C   UNL d   1     -48.508  13.988  22.655  0.00  0.00     0.093 A 
ATOM      3  C   UNL d   1     -47.694  15.142  22.526  0.00  0.00     0.093 A 
ATOM      4  C   UNL d   1     -49.103  15.230  22.351  0.00  0.00     0.369 A 
ATOM      5  N   UNL d   1     -48.359  15.587  22.366  0.00  0.00    -0.191 NA
ATOM      6  N   UNL d   1     -49.171  14.439  22.495  0.00  0.00    -0.191 NA
ATOM      7  O   UNL d   1     -49.792  15.676  22.189  0.00  0.00    -0.242 OA
ATOM      8  C   UNL d   1     -46.939  15.507  22.540  0.00  0.00     0.021 C 
ENDROOT
BRANCH   2   9
ATOM      9  C   UNL d   1     -48.650  12.979  22.832  0.00  0.00     0.029 A 
ATOM     10  C   UNL d   1     -48.908  12.557  22.186  0.00  0.00     0.060 A 
ATOM     11  C   UNL d   1     -49.024  11.725  22.337  0.00  0.00     0.023 A 
ATOM     12 CL   UNL d   1     -49.050  12.845  21.474  0.00  0.00    -0.082 Cl
ATOM     13  C   UNL d   1     -48.869  11.426  23.105  0.00  0.00     0.059 A 
ATOM     14  C   UNL d   1     -48.614  11.910  23.697  0.00  0.00     0.011 A 
ATOM     15 CL   UNL d   1     -48.978  10.614  23.266  0.00  0.00    -0.082 Cl
ATOM     16  C   UNL d   1     -48.497  12.723  23.563  0.00  0.00     0.003 A 
ENDBRANCH   2   9
BRANCH   1  17
ATOM     17  C   UNL d   1     -47.117  13.864  22.835  0.00  0.00     0.303 C 
ATOM     18  O   UNL d   1     -46.920  13.645  23.596  0.00  0.00    -0.259 OA
BRANCH  17  19
ATOM     19  O   UNL d   1     -46.618  13.590  22.199  0.00  0.00    -0.271 OA
BRANCH  19  20
ATOM     20  C   UNL d   1     -45.799  13.448  22.363  0.00  0.00     0.126 C 
ATOM     21  C   UNL d   1     -45.353  12.978  21.853  0.00  0.00     0.029 C 
ENDBRANCH  19  20
ENDBRANCH  17  19
ENDBRANCH   1  17
TORSDOF 4
ENDMDL
MODEL 5
REMARK VINA RESULT:      -5.9      1.606      2.529
REMARK  4 active torsions:
REMARK  status: ('A' for Active; 'I' for Inactive)
REMARK    1  A    between atoms: C_8  and  C_1 
REMARK    2  A    between atoms: C_6  and  C_2 
REMARK    3  A    between atoms: O_17  and  C_8 
REMARK    4  A    between atoms: C_20  and  O_17 
ROOT
ATOM      1  C   UNL d   1     -49.741  14.069  22.337  0.00  0.00     0.099 A 
ATOM      2  C   UNL d   1     -49.251  14.520  22.802  0.00  0.00     0.093 A 
ATOM      3  C   UNL d   1     -50.550  14.226  22.314  0.00  0.00     0.093 A 
ATOM      4  C   UNL d   1     -50.350  15.293  23.234  0.00  0.00     0.369 A 
ATOM      5  N   UNL d   1     -50.851  14.837  22.763  0.00  0.00    -0.191 NA
ATOM      6  N   UNL d   1     -49.559  15.131  23.249  0.00  0.00    -0.191 NA
ATOM      7  O   UNL d   1     -50.647  15.922  23.698  0.00  0.00    -0.242 OA
ATOM      8  C   UNL d   1     -51.063  13.765  21.836  0.00  0.00     0.021 C 
ENDROOT
BRANCH   2   9
ATOM      9  C   UNL d   1     -48.232  14.355  22.858  0.00  0.00     0.029 A 
ATOM     10  C   UNL d   1     -47.779  14.923  22.492  0.00  0.00     0.060 A 
ATOM     11  C   UNL d   1     -46.938  14.782  22.541  0.00  0.00     0.023 A 
ATOM     12 CL   UNL d   1     -48.045  15.555  22.118  0.00  0.00    -0.082 Cl
ATOM     13  C   UNL d   1     -46.663  14.100  22.945  0.00  0.00     0.059 A 
ATOM     14  C   UNL d   1     -47.177  13.581  23.284  0.00  0.00     0.011 A 
ATOM     15 CL   UNL d   1     -45.843  13.952  23.000  0.00  0.00    -0.082 Cl
ATOM     16  C   UNL d   1     -47.999  13.706  23.243  0.00  0.00     0.003 A 
ENDBRANCH   2   9
BRANCH   1  17
ATOM     17  C   UNL d   1     -49.413  13.456  21.893  0.00  0.00     0.303 C 
ATOM     18  O   UNL d   1     -49.054  13.589  21.172  0.00  0.00    -0.259 OA
BRANCH  17  19
ATOM     19  O   UNL d   1     -49.443  12.655  22.182  0.00  0.00    -0.271 OA
BRANCH  19  20
ATOM     20  C   UNL d   1     -49.297  12.024  21.636  0.00  0.00     0.126 C 
ATOM     21  C   UNL d   1     -49.167  11.259  21.915  0.00  0.00     0.029 C 
ENDBRANCH  19  20
ENDBRANCH  17  19
ENDBRANCH   1  17
TORSDOF 4
ENDMDL
MODEL 6
REMARK VINA RESULT:      -5.8      9.214     10.606
REMARK  4 active torsions:
REMARK  status: ('A' for Active; 'I' for Inactive)
REMARK    1  A    between atoms: C_8  and  C_1 
REMARK    2  A    between atoms: C_6  and  C_2 
REMARK    3  A    between atoms: O_17  and  C_8 
REMARK    4  A    between atoms: C_20  and  O_17 
ROOT
ATOM      1  C   UNL d   1     -39.591  14.849  17.770  0.00  0.00     0.099 A 
ATOM      2  C   UNL d   1     -40.166  15.196  18.226  0.00  0.00     0.093 A 
ATOM      3  C   UNL d   1     -39.697  14.772  16.956  0.00  0.00     0.093 A 
ATOM      4  C   UNL d   1     -40.967  15.401  17.083  0.00  0.00     0.369 A 
ATOM      5  N   UNL d   1     -40.385  15.049  16.616  0.00  0.00    -0.191 NA
ATOM      6  N   UNL d   1     -40.853  15.471  17.879  0.00  0.00    -0.191 NA
ATOM      7  O   UNL d   1     -41.676  15.689  16.745  0.00  0.00    -0.242 OA
ATOM      8  C   UNL d   1     -39.108  14.415  16.478  0.00  0.00     0.021 C 
ENDROOT
BRANCH   2   9
ATOM      9  C   UNL d   1     -40.070  15.310  19.249  0.00  0.00     0.029 A 
ATOM     10  C   UNL d   1     -40.566  14.838  19.688  0.00  0.00     0.060 A 
ATOM     11  C   UNL d   1     -40.483  14.936  20.532  0.00  0.00     0.023 A 
ATOM     12 CL   UNL d   1     -41.086  14.327  19.406  0.00  0.00    -0.082 Cl
ATOM     13  C   UNL d   1     -39.922  15.487  20.825  0.00  0.00     0.059 A 
ATOM     14  C   UNL d   1     -39.465  15.921  20.323  0.00  0.00     0.011 A 
ATOM     15 CL   UNL d   1     -39.832  15.592  21.647  0.00  0.00    -0.082 Cl
ATOM     16  C   UNL d   1     -39.536  15.835  19.498  0.00  0.00     0.003 A 
ENDBRANCH   2   9
BRANCH   1  17
ATOM     17  C   UNL d   1     -38.904  14.577  18.138  0.00  0.00     0.303 C 
ATOM     18  O   UNL d   1     -38.286  15.076  18.324  0.00  0.00    -0.259 OA
BRANCH  17  19
ATOM     19  O   UNL d   1     -38.823  13.751  18.334  0.00  0.00    -0.271 OA
BRANCH  19  20
ATOM     20  C   UNL d   1     -38.043  13.426  18.395  0.00  0.00     0.126 C 
ATOM     21  C   UNL d   1     -37.940  12.643  18.632  0.00  0.00     0.029 C 
ENDBRANCH  19  20
ENDBRANCH  17  19
ENDBRANCH   1  17
TORSDOF 4
ENDMDL
MODEL 7
REMARK VINA RESULT:      -5.6      9.280     10.497
REMARK  4 active torsions:
REMARK  status: ('A' for Active; 'I' for Inactive)
REMARK    1  A    between atoms: C_8  and  C_1 
REMARK    2  A    between atoms: C_6  and  C_2 
REMARK    3  A    between atoms: O_17  and  C_8 
REMARK    4  A    between atoms: C_20  and  O_17 
ROOT
ATOM      1  C   UNL d   1     -39.432  14.484  17.585  0.00  0.00     0.099 A 
ATOM      2  C   UNL d   1     -39.392  14.208  18.347  0.00  0.00     0.093 A 
ATOM      3  C   UNL d   1     -39.088  14.055  16.971  0.00  0.00     0.093 A 
ATOM      4  C   UNL d   1     -38.670  13.076  17.914  0.00  0.00     0.369 A 
ATOM      5  N   UNL d   1     -38.708  13.353  17.138  0.00  0.00    -0.191 NA
ATOM      6  N   UNL d   1     -39.010  13.503  18.509  0.00  0.00    -0.191 NA
ATOM      7  O   UNL d   1     -38.283  12.357  18.098  0.00  0.00    -0.242 OA
ATOM      8  C   UNL d   1     -39.124  14.333  16.180  0.00  0.00     0.021 C 
ENDROOT
BRANCH   2   9
ATOM      9  C   UNL d   1     -39.811  14.715  19.144  0.00  0.00     0.029 A 
ATOM     10  C   UNL d   1     -40.462  14.352  19.470  0.00  0.00     0.060 A 
ATOM     11  C   UNL d   1     -40.805  14.776  20.128  0.00  0.00     0.023 A 
ATOM     12 CL   UNL d   1     -40.781  13.679  19.235  0.00  0.00    -0.082 Cl
ATOM     13  C   UNL d   1     -40.456  15.498  20.372  0.00  0.00     0.059 A 
ATOM     14  C   UNL d   1     -39.807  15.795  19.997  0.00  0.00     0.011 A 
ATOM     15 CL   UNL d   1     -40.781  15.922  21.014  0.00  0.00    -0.082 Cl
ATOM     16  C   UNL d   1     -39.464  15.393  19.355  0.00  0.00     0.003 A 
ENDBRANCH   2   9
BRANCH   1  17
ATOM     17  C   UNL d   1     -39.822  15.197  17.441  0.00  0.00     0.303 C 
ATOM     18  O   UNL d   1     -39.476  15.918  17.602  0.00  0.00    -0.259 OA
BRANCH  17  19
ATOM     19  O   UNL d   1     -40.609  15.195  17.114  0.00  0.00    -0.271 OA
BRANCH  19  20
ATOM     20  C   UNL d   1     -40.874  15.883  16.698  0.00  0.00     0.126 C 
ATOM     21  C   UNL d   1     -41.647  15.922  16.413  0.00  0.00     0.029 C 
ENDBRANCH  19  20
ENDBRANCH  17  19
ENDBRANCH   1  17
TORSDOF 4
ENDMDL
MODEL 8
REMARK VINA RESULT:      -5.3      1.677      2.311
REMARK  4 active torsions:
REMARK  status: ('A' for Active; 'I' for Inactive)
REMARK    1  A    between atoms: C_8  and  C_1 
REMARK    2  A    between atoms: C_6  and  C_2 
REMARK    3  A    between atoms: O_17  and  C_8 
REMARK    4  A    between atoms: C_20  and  O_17 
ROOT
ATOM      1  C   UNL d   1     -49.070  13.803  22.437  0.00  0.00     0.099 A 
ATOM      2  C   UNL d   1     -49.094  12.997  22.349  0.00  0.00     0.093 A 
ATOM      3  C   UNL d   1     -49.662  14.274  22.111  0.00  0.00     0.093 A 
ATOM      4  C   UNL d   1     -50.294  13.101  21.613  0.00  0.00     0.369 A 
ATOM      5  N   UNL d   1     -50.272  13.921  21.701  0.00  0.00    -0.191 NA
ATOM      6  N   UNL d   1     -49.709  12.649  21.936  0.00  0.00    -0.191 NA
ATOM      7  O   UNL d   1     -50.914  12.727  21.194  0.00  0.00    -0.242 OA
ATOM      8  C   UNL d   1     -49.644  15.109  22.198  0.00  0.00     0.021 C 
ENDROOT
BRANCH   2   9
ATOM      9  C   UNL d   1     -48.371  12.372  22.742  0.00  0.00     0.029 A 
ATOM     10  C   UNL d   1     -48.619  11.927  23.376  0.00  0.00     0.060 A 
ATOM     11  C   UNL d   1     -48.018  11.413  23.697  0.00  0.00     0.023 A 
ATOM     12 CL   UNL d   1     -49.333  11.936  23.696  0.00  0.00    -0.082 Cl
ATOM     13  C   UNL d   1     -47.255  11.410  23.348  0.00  0.00     0.059 A 
ATOM     14  C   UNL d   1     -47.086  11.883  22.718  0.00  0.00     0.011 A 
ATOM     15 CL   UNL d   1     -46.659  10.912  23.652  0.00  0.00    -0.082 Cl
ATOM     16  C   UNL d   1     -47.662  12.389  22.395  0.00  0.00     0.003 A 
ENDBRANCH   2   9
BRANCH   1  17
ATOM     17  C   UNL d   1     -48.443  14.137  22.857  0.00  0.00     0.303 C 
ATOM     18  O   UNL d   1     -48.463  14.225  23.668  0.00  0.00    -0.259 OA
BRANCH  17  19
ATOM     19  O   UNL d   1     -47.746  14.403  22.444  0.00  0.00    -0.271 OA
BRANCH  19  20
ATOM     20  C   UNL d   1     -47.255  14.985  22.817  0.00  0.00     0.126 C 
ATOM     21  C   UNL d   1     -46.519  15.170  22.495  0.00  0.00     0.029 C 
ENDBRANCH  19  20
ENDBRANCH  17  19
ENDBRANCH   1  17
TORSDOF 4
ENDMDL
MODEL 9
REMARK VINA RESULT:      -5.2      9.468     10.738
REMARK  4 active torsions:
REMARK  status: ('A' for Active; 'I' for Inactive)
REMARK    1  A    between atoms: C_8  and  C_1 
REMARK    2  A    between atoms: C_6  and  C_2 
REMARK    3  A    between atoms: O_17  and  C_8 
REMARK    4  A    between atoms: C_20  and  O_17 
ROOT
ATOM      1  C   UNL d   1     -38.897  14.271  19.494  0.00  0.00     0.099 A 
ATOM      2  C   UNL d   1     -39.570  14.719  19.439  0.00  0.00     0.093 A 
ATOM      3  C   UNL d   1     -38.637  14.002  20.229  0.00  0.00     0.093 A 
ATOM      4  C   UNL d   1     -39.749  14.648  20.837  0.00  0.00     0.369 A 
ATOM      5  N   UNL d   1     -39.064  14.192  20.898  0.00  0.00    -0.191 NA
ATOM      6  N   UNL d   1     -39.994  14.907  20.113  0.00  0.00    -0.191 NA
ATOM      7  O   UNL d   1     -40.195  14.850  21.515  0.00  0.00    -0.242 OA
ATOM      8  C   UNL d   1     -37.941  13.538  20.295  0.00  0.00     0.021 C 
ENDROOT
BRANCH   2   9
ATOM      9  C   UNL d   1     -39.928  15.075  18.537  0.00  0.00     0.029 A 
ATOM     10  C   UNL d   1     -40.618  14.723  18.287  0.00  0.00     0.060 A 
ATOM     11  C   UNL d   1     -40.910  15.020  17.541  0.00  0.00     0.023 A 
ATOM     12 CL   UNL d   1     -41.012  14.162  18.661  0.00  0.00    -0.082 Cl
ATOM     13  C   UNL d   1     -40.479  15.623  17.147  0.00  0.00     0.059 A 
ATOM     14  C   UNL d   1     -39.800  15.922  17.461  0.00  0.00     0.011 A 
ATOM     15 CL   UNL d   1     -40.754  15.922  16.418  0.00  0.00    -0.082 Cl
ATOM     16  C   UNL d   1     -39.505  15.641  18.186  0.00  0.00     0.003 A 
ENDBRANCH   2   9
BRANCH   1  17
ATOM     17  C   UNL d   1     -38.481  14.091  18.804  0.00  0.00     0.303 C 
ATOM     18  O   UNL d   1     -37.980  14.628  18.449  0.00  0.00    -0.259 OA
BRANCH  17  19
ATOM     19  O   UNL d   1     -38.569  13.325  18.440  0.00  0.00    -0.271 OA
BRANCH  19  20
ATOM     20  C   UNL d   1     -37.967  13.063  17.905  0.00  0.00     0.126 C 
ATOM     21  C   UNL d   1     -38.073  12.369  17.473  0.00  0.00     0.029 C 
ENDBRANCH  19  20
ENDBRANCH  17  19
ENDBRANCH   1  17
TORSDOF 4
ENDMDL
