MODEL 1
REMARK VINA RESULT:      -3.8      0.000      0.000
REMARK  7 active torsions:
REMARK  status: ('A' for Active; 'I' for Inactive)
REMARK       I    between atoms: C_2  and  N_1 
REMARK    1  A    between atoms: C_3  and  N_1 
REMARK    2  A    between atoms: C_4  and  C_2 
REMARK    3  A    between atoms: N_9  and  C_3 
REMARK    4  A    between atoms: O_19  and  C_6 
REMARK    5  A    between atoms: C_7  and  C_18 
REMARK    6  A    between atoms: C_18  and  N_9 
REMARK    7  A    between atoms: O_20  and  C_12 
ROOT
ATOM      1  N   UNL d   1      57.865   0.584  29.902  0.00  0.00    -0.179 NA
ATOM      2  C   UNL d   1      58.157   0.263  29.197  0.00  0.00     0.281 C 
ATOM      3  O   UNL d   1      57.900   0.560  28.467  0.00  0.00    -0.265 OA
ENDROOT
BRANCH   2   4
ATOM      4  C   UNL d   1      58.704  -0.354  29.214  0.00  0.00     0.060 A 
ATOM      5  C   UNL d   1      58.448  -1.141  29.207  0.00  0.00     0.031 A 
ATOM      6  C   UNL d   1      58.998  -1.757  29.224  0.00  0.00     0.116 A 
ATOM      7  C   UNL d   1      59.808  -1.582  29.248  0.00  0.00     0.116 A 
ATOM      8  C   UNL d   1      60.064  -0.795  29.254  0.00  0.00     0.026 A 
ATOM      9  C   UNL d   1      59.503  -0.186  29.237  0.00  0.00     0.007 A 
BRANCH   6  10
ATOM     10  O   UNL d   1      58.742  -2.544  29.218  0.00  0.00    -0.326 OA
ATOM     11  C   UNL d   1      58.379  -2.859  28.548  0.00  0.00     0.181 C 
ENDBRANCH   6  10
BRANCH   7  12
ATOM     12  O   UNL d   1      60.358  -2.203  29.265  0.00  0.00    -0.326 OA
ATOM     13  C   UNL d   1      61.126  -2.070  29.535  0.00  0.00     0.181 C 
ENDBRANCH   7  12
ENDBRANCH   2   4
BRANCH   1  14
ATOM     14  C   UNL d   1      58.123   0.285  30.624  0.00  0.00     0.224 C 
ATOM     15  S   UNL d   1      58.859   0.431  30.986  0.00  0.00    -0.037 SA
BRANCH  14  16
ATOM     16  N   UNL d   1      57.694  -0.221  31.127  0.00  0.00    -0.214 NA
BRANCH  16  17
ATOM     17  C   UNL d   1      57.362  -0.010  31.856  0.00  0.00     0.126 C 
BRANCH  17  18
ATOM     18  C   UNL d   1      56.779  -0.485  32.191  0.00  0.00     0.119 A 
ATOM     19  O   UNL d   1      56.517  -1.244  32.015  0.00  0.00    -0.304 OA
ATOM     20  C   UNL d   1      55.915  -1.432  32.544  0.00  0.00     0.123 A 
ATOM     21  C   UNL d   1      55.807  -0.788  33.044  0.00  0.00     0.029 A 
ATOM     22  C   UNL d   1      56.340  -0.202  32.829  0.00  0.00     0.028 A 
ENDBRANCH  17  18
ENDBRANCH  16  17
ENDBRANCH  14  16
ENDBRANCH   1  14
TORSDOF 7
ENDMDL
MODEL 2
REMARK VINA RESULT:      -3.7      0.710      1.331
REMARK  7 active torsions:
REMARK  status: ('A' for Active; 'I' for Inactive)
REMARK       I    between atoms: C_2  and  N_1 
REMARK    1  A    between atoms: C_3  and  N_1 
REMARK    2  A    between atoms: C_4  and  C_2 
REMARK    3  A    between atoms: N_9  and  C_3 
REMARK    4  A    between atoms: O_19  and  C_6 
REMARK    5  A    between atoms: C_7  and  C_18 
REMARK    6  A    between atoms: C_18  and  N_9 
REMARK    7  A    between atoms: O_20  and  C_12 
ROOT
ATOM      1  N   UNL d   1      57.517   0.681  29.890  0.00  0.00    -0.179 NA
ATOM      2  C   UNL d   1      57.866   0.425  29.184  0.00  0.00     0.281 C 
ATOM      3  O   UNL d   1      57.566   0.680  28.455  0.00  0.00    -0.265 OA
ENDROOT
BRANCH   2   4
ATOM      4  C   UNL d   1      58.514  -0.085  29.200  0.00  0.00     0.060 A 
ATOM      5  C   UNL d   1      59.284   0.215  29.156  0.00  0.00     0.031 A 
ATOM      6  C   UNL d   1      59.931  -0.298  29.172  0.00  0.00     0.116 A 
ATOM      7  C   UNL d   1      59.804  -1.115  29.233  0.00  0.00     0.116 A 
ATOM      8  C   UNL d   1      59.034  -1.415  29.277  0.00  0.00     0.026 A 
ATOM      9  C   UNL d   1      58.394  -0.890  29.260  0.00  0.00     0.007 A 
BRANCH   6  10
ATOM     10  O   UNL d   1      60.701   0.001  29.128  0.00  0.00    -0.326 OA
ATOM     11  C   UNL d   1      60.952   0.411  28.458  0.00  0.00     0.181 C 
ENDBRANCH   6  10
BRANCH   7  12
ATOM     12  O   UNL d   1      60.456  -1.628  29.248  0.00  0.00    -0.326 OA
ATOM     13  C   UNL d   1      60.359  -2.429  29.079  0.00  0.00     0.181 C 
ENDBRANCH   7  12
ENDBRANCH   2   4
BRANCH   1  14
ATOM     14  C   UNL d   1      57.819   0.425  30.611  0.00  0.00     0.224 C 
ATOM     15  S   UNL d   1      58.524   0.681  30.973  0.00  0.00    -0.037 SA
BRANCH  14  16
ATOM     16  N   UNL d   1      57.473  -0.142  31.114  0.00  0.00    -0.214 NA
BRANCH  16  17
ATOM     17  C   UNL d   1      57.168   0.005  31.869  0.00  0.00     0.126 C 
BRANCH  17  18
ATOM     18  C   UNL d   1      56.653  -0.538  32.214  0.00  0.00     0.119 A 
ATOM     19  O   UNL d   1      56.622  -1.360  32.192  0.00  0.00    -0.304 OA
ATOM     20  C   UNL d   1      55.979  -1.600  32.646  0.00  0.00     0.123 A 
ATOM     21  C   UNL d   1      55.615  -0.927  32.947  0.00  0.00     0.029 A 
ATOM     22  C   UNL d   1      56.029  -0.269  32.682  0.00  0.00     0.028 A 
ENDBRANCH  17  18
ENDBRANCH  16  17
ENDBRANCH  14  16
ENDBRANCH   1  14
TORSDOF 7
ENDMDL
