MODEL 1
REMARK VINA RESULT:      -3.6      0.000      0.000
REMARK  2 active torsions:
REMARK  status: ('A' for Active; 'I' for Inactive)
REMARK    1  A    between atoms: S_4  and  C_1 
REMARK    2  A    between atoms: C_9  and  S_4 
ROOT
ATOM      1  C   UNL d   1      30.452  16.550 -24.289  0.00  0.00     0.107 A 
ATOM      2  C   UNL d   1      29.812  17.058 -24.450  0.00  0.00     0.201 A 
ATOM      3  C   UNL d   1      30.390  15.911 -23.814  0.00  0.00     0.201 A 
ATOM      4  C   UNL d   1      29.012  16.212 -23.597  0.00  0.00     0.043 A 
ATOM      5  C   UNL d   1      29.081  16.886 -24.099  0.00  0.00     0.020 A 
ATOM      6  C   UNL d   1      29.671  15.731 -23.460  0.00  0.00     0.020 A 
ATOM      7  O   UNL d   1      31.051  15.453 -23.695  0.00  0.00    -0.286 OA
ATOM      8  O   UNL d   1      29.864  17.717 -24.936  0.00  0.00    -0.286 OA
ATOM      9  C   UNL d   1      28.682  15.667 -23.105  0.00  0.00     0.009 C 
ATOM     10  C   UNL d   1      28.244  16.499 -23.560  0.00  0.00     0.009 C 
ENDROOT
BRANCH   1  11
ATOM     11  S   UNL d   1      31.210  16.716 -24.645  0.00  0.00    -0.081 SA
BRANCH  11  12
ATOM     12  C   UNL d   1      31.727  17.256 -24.256  0.00  0.00     0.030 A 
ATOM     13  C   UNL d   1      32.079  17.072 -23.530  0.00  0.00     0.007 A 
ATOM     14  C   UNL d   1      32.580  17.623 -23.176  0.00  0.00     0.007 A 
ATOM     15  C   UNL d   1      32.731  18.346 -23.534  0.00  0.00     0.035 A 
ATOM     16  C   UNL d   1      32.375  18.519 -24.258  0.00  0.00     0.007 A 
ATOM     17 BR   UNL d   1      33.241  18.893 -23.163  0.00  0.00    -0.049 Br
ATOM     18  C   UNL d   1      31.872  17.980 -24.625  0.00  0.00     0.007 A 
ENDBRANCH  11  12
ENDBRANCH   1  11
TORSDOF 2
ENDMDL
MODEL 2
REMARK VINA RESULT:      -3.4      1.519      3.360
REMARK  2 active torsions:
REMARK  status: ('A' for Active; 'I' for Inactive)
REMARK    1  A    between atoms: S_4  and  C_1 
REMARK    2  A    between atoms: C_9  and  S_4 
ROOT
ATOM      1  C   UNL d   1      31.708  16.943 -24.120  0.00  0.00     0.107 A 
ATOM      2  C   UNL d   1      31.662  17.740 -24.357  0.00  0.00     0.201 A 
ATOM      3  C   UNL d   1      32.202  16.689 -23.547  0.00  0.00     0.201 A 
ATOM      4  C   UNL d   1      32.678  18.023 -23.371  0.00  0.00     0.043 A 
ATOM      5  C   UNL d   1      32.155  18.288 -23.977  0.00  0.00     0.020 A 
ATOM      6  C   UNL d   1      32.695  17.222 -23.163  0.00  0.00     0.020 A 
ATOM      7  O   UNL d   1      32.202  15.897 -23.360  0.00  0.00    -0.286 OA
ATOM      8  O   UNL d   1      31.158  18.013 -24.945  0.00  0.00    -0.286 OA
ATOM      9  C   UNL d   1      33.240  18.045 -22.795  0.00  0.00     0.009 C 
ATOM     10  C   UNL d   1      32.857  18.823 -23.376  0.00  0.00     0.009 C 
ENDROOT
BRANCH   1  11
ATOM     11  S   UNL d   1      31.206  16.369 -24.504  0.00  0.00    -0.081 SA
BRANCH  11  12
ATOM     12  C   UNL d   1      30.424  16.259 -24.210  0.00  0.00     0.030 A 
ATOM     13  C   UNL d   1      30.281  15.857 -23.502  0.00  0.00     0.007 A 
ATOM     14  C   UNL d   1      29.503  15.766 -23.242  0.00  0.00     0.007 A 
ATOM     15  C   UNL d   1      28.876  16.069 -23.676  0.00  0.00     0.035 A 
ATOM     16  C   UNL d   1      29.031  16.468 -24.381  0.00  0.00     0.007 A 
ATOM     17 BR   UNL d   1      28.094  15.969 -23.400  0.00  0.00    -0.049 Br
ATOM     18  C   UNL d   1      29.801  16.567 -24.655  0.00  0.00     0.007 A 
ENDBRANCH  11  12
ENDBRANCH   1  11
TORSDOF 2
ENDMDL
MODEL 3
REMARK VINA RESULT:      -2.9      2.214      4.222
REMARK  2 active torsions:
REMARK  status: ('A' for Active; 'I' for Inactive)
REMARK    1  A    between atoms: S_4  and  C_1 
REMARK    2  A    between atoms: C_9  and  S_4 
ROOT
ATOM      1  C   UNL d   1      33.240  18.778 -23.361  0.00  0.00     0.107 A 
ATOM      2  C   UNL d   1      33.240  18.656 -22.538  0.00  0.00     0.201 A 
ATOM      3  C   UNL d   1      33.240  19.503 -23.692  0.00  0.00     0.201 A 
ATOM      4  C   UNL d   1      33.241  20.092 -22.392  0.00  0.00     0.043 A 
ATOM      5  C   UNL d   1      33.240  19.323 -22.046  0.00  0.00     0.020 A 
ATOM      6  C   UNL d   1      33.240  20.172 -23.215  0.00  0.00     0.020 A 
ATOM      7  O   UNL d   1      33.240  19.558 -24.504  0.00  0.00    -0.286 OA
ATOM      8  O   UNL d   1      33.240  17.914 -22.186  0.00  0.00    -0.286 OA
ATOM      9  C   UNL d   1      33.241  20.895 -22.449  0.00  0.00     0.009 C 
ATOM     10  C   UNL d   1      33.241  20.292 -21.597  0.00  0.00     0.009 C 
ENDROOT
BRANCH   1  11
ATOM     11  S   UNL d   1      33.239  18.098 -23.879  0.00  0.00    -0.081 SA
BRANCH  11  12
ATOM     12  C   UNL d   1      32.504  17.721 -24.046  0.00  0.00     0.030 A 
ATOM     13  C   UNL d   1      31.926  18.089 -24.510  0.00  0.00     0.007 A 
ATOM     14  C   UNL d   1      31.217  17.693 -24.655  0.00  0.00     0.007 A 
ATOM     15  C   UNL d   1      31.082  16.944 -24.347  0.00  0.00     0.035 A 
ATOM     16  C   UNL d   1      31.666  16.587 -23.887  0.00  0.00     0.007 A 
ATOM     17 BR   UNL d   1      30.360  16.556 -24.504  0.00  0.00    -0.049 Br
ATOM     18  C   UNL d   1      32.379  16.969 -23.732  0.00  0.00     0.007 A 
ENDBRANCH  11  12
ENDBRANCH   1  11
TORSDOF 2
ENDMDL
MODEL 4
REMARK VINA RESULT:      -2.0      2.488      4.311
REMARK  2 active torsions:
REMARK  status: ('A' for Active; 'I' for Inactive)
REMARK    1  A    between atoms: S_4  and  C_1 
REMARK    2  A    between atoms: C_9  and  S_4 
ROOT
ATOM      1  C   UNL d   1      33.125  19.405 -22.943  0.00  0.00     0.107 A 
ATOM      2  C   UNL d   1      33.033  20.158 -23.285  0.00  0.00     0.201 A 
ATOM      3  C   UNL d   1      33.137  19.285 -22.154  0.00  0.00     0.201 A 
ATOM      4  C   UNL d   1      32.961  20.686 -21.944  0.00  0.00     0.043 A 
ATOM      5  C   UNL d   1      32.950  20.808 -22.778  0.00  0.00     0.020 A 
ATOM      6  C   UNL d   1      33.055  19.922 -21.641  0.00  0.00     0.020 A 
ATOM      7  O   UNL d   1      33.230  18.525 -21.879  0.00  0.00    -0.286 OA
ATOM      8  O   UNL d   1      33.020  20.293 -24.095  0.00  0.00    -0.286 OA
ATOM      9  C   UNL d   1      32.937  20.849 -21.156  0.00  0.00     0.009 C 
ATOM     10  C   UNL d   1      32.860  21.499 -21.969  0.00  0.00     0.009 C 
ENDROOT
BRANCH   1  11
ATOM     11  S   UNL d   1      33.212  18.727 -23.455  0.00  0.00    -0.081 SA
BRANCH  11  12
ATOM     12  C   UNL d   1      32.516  18.357 -23.754  0.00  0.00     0.030 A 
ATOM     13  C   UNL d   1      32.131  18.643 -24.428  0.00  0.00     0.007 A 
ATOM     14  C   UNL d   1      31.452  18.259 -24.695  0.00  0.00     0.007 A 
ATOM     15  C   UNL d   1      31.158  17.601 -24.302  0.00  0.00     0.035 A 
ATOM     16  C   UNL d   1      31.550  17.325 -23.632  0.00  0.00     0.007 A 
ATOM     17 BR   UNL d   1      30.469  17.223 -24.585  0.00  0.00    -0.049 Br
ATOM     18  C   UNL d   1      32.230  17.697 -23.351  0.00  0.00     0.007 A 
ENDBRANCH  11  12
ENDBRANCH   1  11
TORSDOF 2
ENDMDL
MODEL 5
REMARK VINA RESULT:      -1.8      1.356      1.999
REMARK  2 active torsions:
REMARK  status: ('A' for Active; 'I' for Inactive)
REMARK    1  A    between atoms: S_4  and  C_1 
REMARK    2  A    between atoms: C_9  and  S_4 
ROOT
ATOM      1  C   UNL d   1      32.275  17.427 -23.967  0.00  0.00     0.107 A 
ATOM      2  C   UNL d   1      31.675  17.687 -24.482  0.00  0.00     0.201 A 
ATOM      3  C   UNL d   1      32.193  16.794 -23.490  0.00  0.00     0.201 A 
ATOM      4  C   UNL d   1      30.871  16.593 -23.991  0.00  0.00     0.043 A 
ATOM      5  C   UNL d   1      30.962  17.264 -24.494  0.00  0.00     0.020 A 
ATOM      6  C   UNL d   1      31.491  16.366 -23.492  0.00  0.00     0.020 A 
ATOM      7  O   UNL d   1      32.815  16.588 -23.008  0.00  0.00    -0.286 OA
ATOM      8  O   UNL d   1      31.749  18.337 -24.978  0.00  0.00    -0.286 OA
ATOM      9  C   UNL d   1      30.533  15.954 -23.637  0.00  0.00     0.009 C 
ATOM     10  C   UNL d   1      30.140  16.596 -24.361  0.00  0.00     0.009 C 
ENDROOT
BRANCH   1  11
ATOM     11  S   UNL d   1      33.014  17.855 -23.946  0.00  0.00    -0.081 SA
BRANCH  11  12
ATOM     12  C   UNL d   1      33.074  18.530 -23.444  0.00  0.00     0.030 A 
ATOM     13  C   UNL d   1      33.183  18.453 -22.628  0.00  0.00     0.007 A 
ATOM     14  C   UNL d   1      33.237  19.133 -22.165  0.00  0.00     0.007 A 
ATOM     15  C   UNL d   1      33.184  19.879 -22.503  0.00  0.00     0.035 A 
ATOM     16  C   UNL d   1      33.075  19.943 -23.318  0.00  0.00     0.007 A 
ATOM     17 BR   UNL d   1      33.241  20.558 -22.021  0.00  0.00    -0.049 Br
ATOM     18  C   UNL d   1      33.019  19.274 -23.796  0.00  0.00     0.007 A 
ENDBRANCH  11  12
ENDBRANCH   1  11
TORSDOF 2
ENDMDL
