MODEL 1
REMARK VINA RESULT:      22.2      0.000      0.000
REMARK  1 active torsions:
REMARK  status: ('A' for Active; 'I' for Inactive)
REMARK    1  A    between atoms: C_6  and  N_1 
ROOT
ATOM      1  N   UNL d   1     -57.240 -98.764 -44.231  0.00  0.00    -0.210 N 
ATOM      2  C   UNL d   1     -57.778 -98.760 -44.853  0.00  0.00     0.196 A 
ATOM      3  N   UNL d   1     -57.668 -98.768 -43.519  0.00  0.00    -0.161 NA
ATOM      4  C   UNL d   1     -58.536 -98.763 -44.532  0.00  0.00     0.127 A 
ATOM      5  C   UNL d   1     -58.474 -98.768 -43.714  0.00  0.00     0.134 A 
ATOM      6  C   UNL d   1     -59.245 -98.761 -44.963  0.00  0.00     0.106 C 
ATOM      7  N   UNL d   1     -59.958 -98.759 -45.390  0.00  0.00    -0.191 NA
ATOM      8  N   UNL d   1     -57.580 -98.755 -45.674  0.00  0.00    -0.126 N 
ENDROOT
BRANCH   1   9
ATOM      9  C   UNL d   1     -56.411 -98.763 -44.258  0.00  0.00     0.085 A 
ATOM     10  C   UNL d   1     -55.987 -98.759 -43.550  0.00  0.00     0.019 A 
ATOM     11  C   UNL d   1     -55.153 -98.759 -43.574  0.00  0.00     0.002 A 
ATOM     12  C   UNL d   1     -54.711 -98.755 -42.862  0.00  0.00     0.000 C 
ATOM     13  C   UNL d   1     -54.763 -98.761 -44.298  0.00  0.00     0.000 A 
ATOM     14  C   UNL d   1     -55.189 -98.764 -45.003  0.00  0.00     0.002 A 
ATOM     15  C   UNL d   1     -56.020 -98.765 -44.982  0.00  0.00     0.019 A 
ENDBRANCH   1   9
TORSDOF 1
ENDMDL
