MODEL 1
REMARK VINA RESULT:      61.6      0.000      0.000
REMARK  4 active torsions:
REMARK  status: ('A' for Active; 'I' for Inactive)
REMARK    1  A    between atoms: C_4  and  N_1 
REMARK    2  A    between atoms: C_8  and  C_2 
REMARK    3  A    between atoms: C_17  and  C_6 
REMARK    4  A    between atoms: C_7  and  C_8 
ROOT
ATOM      1  N   UNL d   1      45.945 -18.137  43.470  0.00  0.00    -0.255 N 
ATOM      2  C   UNL d   1      45.456 -16.898  43.509  0.00  0.00     0.101 A 
ATOM      3  C   UNL d   1      45.989 -17.869  44.259  0.00  0.00     0.305 A 
ATOM      4  C   UNL d   1      45.688 -17.106  44.283  0.00  0.00     0.256 A 
ATOM      5  C   UNL d   1      45.619 -17.537  43.022  0.00  0.00     0.075 A 
ATOM      6  O   UNL d   1      46.283 -18.294  44.902  0.00  0.00    -0.263 OA
ATOM      7  O   UNL d   1      45.626 -16.630  44.954  0.00  0.00    -0.281 OA
ENDROOT
BRANCH   2   8
ATOM      8  C   UNL d   1      45.123 -16.178  43.280  0.00  0.00     0.223 C 
ATOM      9  O   UNL d   1      44.563 -16.152  42.686  0.00  0.00    -0.284 OA
BRANCH   8  10
ATOM     10  C   UNL d   1      45.357 -15.479  43.652  0.00  0.00     0.139 A 
ATOM     11  O   UNL d   1      46.087 -15.345  44.015  0.00  0.00    -0.304 OA
ATOM     12  C   UNL d   1      46.080 -14.578  44.311  0.00  0.00     0.100 A 
ATOM     13  C   UNL d   1      46.647 -14.143  44.722  0.00  0.00     0.025 A 
ATOM     14  C   UNL d   1      45.355 -14.235  44.136  0.00  0.00     0.025 A 
ATOM     15  C   UNL d   1      46.490 -13.380  44.953  0.00  0.00     0.002 A 
ATOM     16  C   UNL d   1      45.757 -13.036  44.774  0.00  0.00     0.000 A 
ATOM     17  C   UNL d   1      45.195 -13.464  44.368  0.00  0.00     0.002 A 
ATOM     18  C   UNL d   1      44.907 -14.792  43.728  0.00  0.00     0.030 A 
ENDBRANCH   8  10
ENDBRANCH   2   8
BRANCH   5  19
ATOM     19  C   UNL d   1      45.472 -17.560  42.206  0.00  0.00     0.017 A 
ATOM     20  C   UNL d   1      46.077 -17.392  41.673  0.00  0.00     0.001 A 
ATOM     21  C   UNL d   1      45.930 -17.415  40.861  0.00  0.00     0.000 A 
ATOM     22  C   UNL d   1      45.175 -17.607  40.587  0.00  0.00     0.000 A 
ATOM     23  C   UNL d   1      44.566 -17.776  41.124  0.00  0.00     0.000 A 
ATOM     24  C   UNL d   1      45.024 -17.631  39.772  0.00  0.00     0.000 C 
ATOM     25  C   UNL d   1      44.722 -17.751  41.939  0.00  0.00     0.001 A 
ENDBRANCH   5  19
BRANCH   1  26
ATOM     26  C   UNL d   1      46.191 -18.880  43.195  0.00  0.00     0.179 A 
ATOM     27  N   UNL d   1      46.417 -19.510  43.665  0.00  0.00    -0.108 NA
ATOM     28  O   UNL d   1      46.617 -20.138  43.163  0.00  0.00    -0.210 OA
ATOM     29  C   UNL d   1      46.513 -19.889  42.388  0.00  0.00     0.128 A 
ATOM     30  C   UNL d   1      46.245 -19.098  42.403  0.00  0.00     0.067 A 
ATOM     31  C   UNL d   1      46.645 -20.329  41.704  0.00  0.00     0.029 C 
ENDBRANCH   1  26
TORSDOF 4
ENDMDL
