MODEL 1
REMARK VINA RESULT:      -9.0      0.000      0.000
REMARK  3 active torsions:
REMARK  status: ('A' for Active; 'I' for Inactive)
REMARK    1  A    between atoms: C_2  and  S_1 
REMARK    2  A    between atoms: N_3  and  S_1 
REMARK    3  A    between atoms: C_8  and  N_3 
ROOT
ATOM      1  S   UNL d   1     -48.584  12.298  23.046  0.00  0.00     0.327 S 
ATOM      2  O   UNL d   1     -48.545  12.861  23.653  0.00  0.00    -0.186 OA
ATOM      3  O   UNL d   1     -48.624  11.737  22.442  0.00  0.00    -0.186 OA
ENDROOT
BRANCH   1   4
ATOM      4  C   UNL d   1     -49.407  12.327  23.073  0.00  0.00     0.116 A 
ATOM      5  C   UNL d   1     -49.820  12.824  22.563  0.00  0.00     0.013 A 
ATOM      6  C   UNL d   1     -50.652  12.853  22.590  0.00  0.00     0.001 A 
ATOM      7  C   UNL d   1     -49.416  13.299  22.021  0.00  0.00     0.001 A 
ATOM      8  C   UNL d   1     -51.064  13.351  22.080  0.00  0.00     0.000 A 
ATOM      9  C   UNL d   1     -51.064  12.385  23.127  0.00  0.00     0.000 A 
ATOM     10  C   UNL d   1     -50.652  13.820  21.543  0.00  0.00     0.000 A 
ATOM     11  C   UNL d   1     -49.828  13.797  21.510  0.00  0.00     0.000 A 
ATOM     12  C   UNL d   1     -50.652  11.884  23.640  0.00  0.00     0.001 A 
ATOM     13  C   UNL d   1     -49.820  11.855  23.613  0.00  0.00     0.014 A 
ENDBRANCH   1   4
BRANCH   1  14
ATOM     14  N   UNL d   1     -47.760  12.269  23.020  0.00  0.00    -0.318 NA
BRANCH  14  15
ATOM     15  C   UNL d   1     -46.936  12.240  22.993  0.00  0.00     0.141 A 
ATOM     16  C   UNL d   1     -46.513  12.842  22.641  0.00  0.00     0.028 A 
ATOM     17  C   UNL d   1     -45.697  12.814  22.614  0.00  0.00     0.101 A 
ATOM     18  C   UNL d   1     -45.689  13.537  22.217  0.00  0.00     0.029 C 
ATOM     19  C   UNL d   1     -45.106  13.308  22.312  0.00  0.00     0.029 C 
ATOM     20  N   UNL d   1     -45.296  12.175  22.944  0.00  0.00    -0.295 NA
ATOM     21  C   UNL d   1     -45.719  11.565  23.301  0.00  0.00     0.101 A 
ATOM     22  C   UNL d   1     -46.543  11.594  23.327  0.00  0.00     0.028 A 
ATOM     23  C   UNL d   1     -45.736  10.842  23.698  0.00  0.00     0.029 C 
ATOM     24  C   UNL d   1     -45.145  11.030  23.564  0.00  0.00     0.029 C 
ENDBRANCH  14  15
ENDBRANCH   1  14
TORSDOF 3
ENDMDL
MODEL 2
REMARK VINA RESULT:      -8.9      1.546      4.555
REMARK  3 active torsions:
REMARK  status: ('A' for Active; 'I' for Inactive)
REMARK    1  A    between atoms: C_2  and  S_1 
REMARK    2  A    between atoms: N_3  and  S_1 
REMARK    3  A    between atoms: C_8  and  N_3 
ROOT
ATOM      1  S   UNL d   1     -47.522  13.603  22.640  0.00  0.00     0.327 S 
ATOM      2  O   UNL d   1     -47.340  14.044  23.318  0.00  0.00    -0.186 OA
ATOM      3  O   UNL d   1     -47.703  13.165  21.965  0.00  0.00    -0.186 OA
ENDROOT
BRANCH   1   4
ATOM      4  C   UNL d   1     -46.765  13.277  22.649  0.00  0.00     0.116 A 
ATOM      5  C   UNL d   1     -46.637  12.543  22.999  0.00  0.00     0.013 A 
ATOM      6  C   UNL d   1     -45.872  12.213  23.008  0.00  0.00     0.001 A 
ATOM      7  C   UNL d   1     -47.261  12.125  23.343  0.00  0.00     0.001 A 
ATOM      8  C   UNL d   1     -45.743  11.478  23.358  0.00  0.00     0.000 A 
ATOM      9  C   UNL d   1     -45.242  12.620  22.668  0.00  0.00     0.000 A 
ATOM     10  C   UNL d   1     -46.373  11.071  23.698  0.00  0.00     0.000 A 
ATOM     11  C   UNL d   1     -47.133  11.391  23.693  0.00  0.00     0.000 A 
ATOM     12  C   UNL d   1     -45.369  13.358  22.316  0.00  0.00     0.001 A 
ATOM     13  C   UNL d   1     -46.134  13.688  22.307  0.00  0.00     0.014 A 
ENDBRANCH   1   4
BRANCH   1  14
ATOM     14  N   UNL d   1     -48.279  13.930  22.631  0.00  0.00    -0.318 NA
BRANCH  14  15
ATOM     15  C   UNL d   1     -49.037  14.257  22.622  0.00  0.00     0.141 A 
ATOM     16  C   UNL d   1     -49.221  14.887  23.107  0.00  0.00     0.028 A 
ATOM     17  C   UNL d   1     -49.971  15.210  23.098  0.00  0.00     0.101 A 
ATOM     18  C   UNL d   1     -49.738  15.755  23.671  0.00  0.00     0.029 C 
ATOM     19  C   UNL d   1     -50.343  15.831  23.500  0.00  0.00     0.029 C 
ATOM     20  N   UNL d   1     -50.547  14.902  22.598  0.00  0.00    -0.295 NA
ATOM     21  C   UNL d   1     -50.366  14.266  22.106  0.00  0.00     0.101 A 
ATOM     22  C   UNL d   1     -49.609  13.939  22.116  0.00  0.00     0.028 A 
ATOM     23  C   UNL d   1     -50.591  13.717  21.533  0.00  0.00     0.029 C 
ATOM     24  C   UNL d   1     -51.064  14.108  21.692  0.00  0.00     0.029 C 
ENDBRANCH  14  15
ENDBRANCH   1  14
TORSDOF 3
ENDMDL
MODEL 3
REMARK VINA RESULT:      -6.9      8.410     10.525
REMARK  3 active torsions:
REMARK  status: ('A' for Active; 'I' for Inactive)
REMARK    1  A    between atoms: C_2  and  S_1 
REMARK    2  A    between atoms: N_3  and  S_1 
REMARK    3  A    between atoms: C_8  and  N_3 
ROOT
ATOM      1  S   UNL d   1     -39.277  14.494  18.305  0.00  0.00     0.327 S 
ATOM      2  O   UNL d   1     -38.568  14.883  18.486  0.00  0.00    -0.186 OA
ATOM      3  O   UNL d   1     -39.983  14.107  18.126  0.00  0.00    -0.186 OA
ENDROOT
BRANCH   1   4
ATOM      4  C   UNL d   1     -39.008  14.360  17.538  0.00  0.00     0.116 A 
ATOM      5  C   UNL d   1     -38.653  13.643  17.345  0.00  0.00     0.013 A 
ATOM      6  C   UNL d   1     -38.381  13.507  16.570  0.00  0.00     0.001 A 
ATOM      7  C   UNL d   1     -38.561  13.051  17.915  0.00  0.00     0.001 A 
ATOM      8  C   UNL d   1     -38.025  12.789  16.376  0.00  0.00     0.000 A 
ATOM      9  C   UNL d   1     -38.467  14.089  15.994  0.00  0.00     0.000 A 
ATOM     10  C   UNL d   1     -37.940  12.207  16.952  0.00  0.00     0.000 A 
ATOM     11  C   UNL d   1     -38.206  12.334  17.723  0.00  0.00     0.000 A 
ATOM     12  C   UNL d   1     -38.824  14.810  16.186  0.00  0.00     0.001 A 
ATOM     13  C   UNL d   1     -39.096  14.946  16.961  0.00  0.00     0.014 A 
ENDBRANCH   1   4
BRANCH   1  14
ATOM     14  N   UNL d   1     -39.547  14.629  19.074  0.00  0.00    -0.318 NA
BRANCH  14  15
ATOM     15  C   UNL d   1     -39.816  14.764  19.842  0.00  0.00     0.141 A 
ATOM     16  C   UNL d   1     -39.458  14.395  20.476  0.00  0.00     0.028 A 
ATOM     17  C   UNL d   1     -39.724  14.528  21.236  0.00  0.00     0.101 A 
ATOM     18  C   UNL d   1     -39.145  14.016  21.524  0.00  0.00     0.029 C 
ATOM     19  C   UNL d   1     -39.503  14.259  21.987  0.00  0.00     0.029 C 
ATOM     20  N   UNL d   1     -40.357  15.037  21.368  0.00  0.00    -0.295 NA
ATOM     21  C   UNL d   1     -40.722  15.411  20.731  0.00  0.00     0.101 A 
ATOM     22  C   UNL d   1     -40.453  15.277  19.963  0.00  0.00     0.028 A 
ATOM     23  C   UNL d   1     -41.298  15.922  20.435  0.00  0.00     0.029 C 
ATOM     24  C   UNL d   1     -41.324  15.870  21.066  0.00  0.00     0.029 C 
ENDBRANCH  14  15
ENDBRANCH   1  14
TORSDOF 3
ENDMDL
MODEL 4
REMARK VINA RESULT:      -6.9      9.316     10.123
REMARK  3 active torsions:
REMARK  status: ('A' for Active; 'I' for Inactive)
REMARK    1  A    between atoms: C_2  and  S_1 
REMARK    2  A    between atoms: N_3  and  S_1 
REMARK    3  A    between atoms: C_8  and  N_3 
ROOT
ATOM      1  S   UNL d   1     -39.438  14.895  20.454  0.00  0.00     0.327 S 
ATOM      2  O   UNL d   1     -40.142  14.498  20.639  0.00  0.00    -0.186 OA
ATOM      3  O   UNL d   1     -38.738  15.290  20.270  0.00  0.00    -0.186 OA
ENDROOT
BRANCH   1   4
ATOM      4  C   UNL d   1     -39.315  15.049  21.254  0.00  0.00     0.116 A 
ATOM      5  C   UNL d   1     -38.941  14.491  21.730  0.00  0.00     0.013 A 
ATOM      6  C   UNL d   1     -38.817  14.647  22.539  0.00  0.00     0.001 A 
ATOM      7  C   UNL d   1     -38.685  13.772  21.413  0.00  0.00     0.001 A 
ATOM      8  C   UNL d   1     -38.442  14.088  23.014  0.00  0.00     0.000 A 
ATOM      9  C   UNL d   1     -39.068  15.359  22.865  0.00  0.00     0.000 A 
ATOM     10  C   UNL d   1     -38.191  13.375  22.687  0.00  0.00     0.000 A 
ATOM     11  C   UNL d   1     -38.310  13.213  21.887  0.00  0.00     0.000 A 
ATOM     12  C   UNL d   1     -39.444  15.922  22.389  0.00  0.00     0.001 A 
ATOM     13  C   UNL d   1     -39.568  15.766  21.580  0.00  0.00     0.014 A 
ENDBRANCH   1   4
BRANCH   1  14
ATOM     14  N   UNL d   1     -39.562  14.740  19.653  0.00  0.00    -0.318 NA
BRANCH  14  15
ATOM     15  C   UNL d   1     -39.685  14.586  18.852  0.00  0.00     0.141 A 
ATOM     16  C   UNL d   1     -39.259  14.001  18.474  0.00  0.00     0.028 A 
ATOM     17  C   UNL d   1     -39.381  13.848  17.681  0.00  0.00     0.101 A 
ATOM     18  C   UNL d   1     -38.810  13.254  17.713  0.00  0.00     0.029 C 
ATOM     19  C   UNL d   1     -39.062  13.315  17.134  0.00  0.00     0.029 C 
ATOM     20  N   UNL d   1     -39.935  14.285  17.258  0.00  0.00    -0.295 NA
ATOM     21  C   UNL d   1     -40.367  14.876  17.635  0.00  0.00     0.101 A 
ATOM     22  C   UNL d   1     -40.244  15.031  18.436  0.00  0.00     0.028 A 
ATOM     23  C   UNL d   1     -40.937  15.472  17.612  0.00  0.00     0.029 C 
ATOM     24  C   UNL d   1     -40.860  15.191  17.049  0.00  0.00     0.029 C 
ENDBRANCH  14  15
ENDBRANCH   1  14
TORSDOF 3
ENDMDL
MODEL 5
REMARK VINA RESULT:      -6.8      8.586     10.432
REMARK  3 active torsions:
REMARK  status: ('A' for Active; 'I' for Inactive)
REMARK    1  A    between atoms: C_2  and  S_1 
REMARK    2  A    between atoms: N_3  and  S_1 
REMARK    3  A    between atoms: C_8  and  N_3 
ROOT
ATOM      1  S   UNL d   1     -39.036  13.945  18.593  0.00  0.00     0.327 S 
ATOM      2  O   UNL d   1     -39.773  13.619  18.397  0.00  0.00    -0.186 OA
ATOM      3  O   UNL d   1     -38.303  14.270  18.787  0.00  0.00    -0.186 OA
ENDROOT
BRANCH   1   4
ATOM      4  C   UNL d   1     -38.728  13.677  17.877  0.00  0.00     0.116 A 
ATOM      5  C   UNL d   1     -38.696  14.180  17.226  0.00  0.00     0.013 A 
ATOM      6  C   UNL d   1     -38.384  13.908  16.503  0.00  0.00     0.001 A 
ATOM      7  C   UNL d   1     -38.972  14.957  17.281  0.00  0.00     0.001 A 
ATOM      8  C   UNL d   1     -38.352  14.412  15.852  0.00  0.00     0.000 A 
ATOM      9  C   UNL d   1     -38.106  13.137  16.437  0.00  0.00     0.000 A 
ATOM     10  C   UNL d   1     -38.630  15.184  15.918  0.00  0.00     0.000 A 
ATOM     11  C   UNL d   1     -38.941  15.461  16.631  0.00  0.00     0.000 A 
ATOM     12  C   UNL d   1     -38.137  12.629  17.090  0.00  0.00     0.001 A 
ATOM     13  C   UNL d   1     -38.449  12.900  17.813  0.00  0.00     0.014 A 
ENDBRANCH   1   4
BRANCH   1  14
ATOM     14  N   UNL d   1     -39.345  14.214  19.309  0.00  0.00    -0.318 NA
BRANCH  14  15
ATOM     15  C   UNL d   1     -39.654  14.482  20.025  0.00  0.00     0.141 A 
ATOM     16  C   UNL d   1     -40.212  15.079  20.037  0.00  0.00     0.028 A 
ATOM     17  C   UNL d   1     -40.518  15.345  20.746  0.00  0.00     0.101 A 
ATOM     18  C   UNL d   1     -40.987  15.884  20.335  0.00  0.00     0.029 C 
ATOM     19  C   UNL d   1     -41.072  15.920  20.962  0.00  0.00     0.029 C 
ATOM     20  N   UNL d   1     -40.265  15.012  21.454  0.00  0.00    -0.295 NA
ATOM     21  C   UNL d   1     -39.703  14.410  21.448  0.00  0.00     0.101 A 
ATOM     22  C   UNL d   1     -39.394  14.141  20.732  0.00  0.00     0.028 A 
ATOM     23  C   UNL d   1     -39.230  13.867  21.850  0.00  0.00     0.029 C 
ATOM     24  C   UNL d   1     -39.586  14.214  22.243  0.00  0.00     0.029 C 
ENDBRANCH  14  15
ENDBRANCH   1  14
TORSDOF 3
ENDMDL
MODEL 6
REMARK VINA RESULT:      -6.7      8.747     10.201
REMARK  3 active torsions:
REMARK  status: ('A' for Active; 'I' for Inactive)
REMARK    1  A    between atoms: C_2  and  S_1 
REMARK    2  A    between atoms: N_3  and  S_1 
REMARK    3  A    between atoms: C_8  and  N_3 
ROOT
ATOM      1  S   UNL d   1     -39.673  14.641  19.087  0.00  0.00     0.327 S 
ATOM      2  O   UNL d   1     -40.323  14.134  19.002  0.00  0.00    -0.186 OA
ATOM      3  O   UNL d   1     -39.026  15.146  19.171  0.00  0.00    -0.186 OA
ENDROOT
BRANCH   1   4
ATOM      4  C   UNL d   1     -40.032  14.994  19.739  0.00  0.00     0.116 A 
ATOM      5  C   UNL d   1     -39.808  14.778  20.501  0.00  0.00     0.013 A 
ATOM      6  C   UNL d   1     -40.172  15.134  21.161  0.00  0.00     0.001 A 
ATOM      7  C   UNL d   1     -39.222  14.208  20.622  0.00  0.00     0.001 A 
ATOM      8  C   UNL d   1     -39.947  14.917  21.923  0.00  0.00     0.000 A 
ATOM      9  C   UNL d   1     -40.757  15.703  21.053  0.00  0.00     0.000 A 
ATOM     10  C   UNL d   1     -39.362  14.348  22.031  0.00  0.00     0.000 A 
ATOM     11  C   UNL d   1     -38.997  13.991  21.384  0.00  0.00     0.000 A 
ATOM     12  C   UNL d   1     -40.984  15.921  20.288  0.00  0.00     0.001 A 
ATOM     13  C   UNL d   1     -40.620  15.565  19.628  0.00  0.00     0.014 A 
ENDBRANCH   1   4
BRANCH   1  14
ATOM     14  N   UNL d   1     -39.312  14.289  18.434  0.00  0.00    -0.318 NA
BRANCH  14  15
ATOM     15  C   UNL d   1     -38.952  13.936  17.781  0.00  0.00     0.141 A 
ATOM     16  C   UNL d   1     -38.891  14.341  17.075  0.00  0.00     0.028 A 
ATOM     17  C   UNL d   1     -38.534  13.991  16.428  0.00  0.00     0.101 A 
ATOM     18  C   UNL d   1     -38.675  14.674  15.987  0.00  0.00     0.029 C 
ATOM     19  C   UNL d   1     -38.378  14.227  15.650  0.00  0.00     0.029 C 
ATOM     20  N   UNL d   1     -38.234  13.228  16.485  0.00  0.00    -0.295 NA
ATOM     21  C   UNL d   1     -38.293  12.815  17.196  0.00  0.00     0.101 A 
ATOM     22  C   UNL d   1     -38.654  13.168  17.849  0.00  0.00     0.028 A 
ATOM     23  C   UNL d   1     -38.157  12.136  17.644  0.00  0.00     0.029 C 
ATOM     24  C   UNL d   1     -37.940  12.081  17.050  0.00  0.00     0.029 C 
ENDBRANCH  14  15
ENDBRANCH   1  14
TORSDOF 3
ENDMDL
MODEL 7
REMARK VINA RESULT:      -6.7      9.340      9.914
REMARK  3 active torsions:
REMARK  status: ('A' for Active; 'I' for Inactive)
REMARK    1  A    between atoms: C_2  and  S_1 
REMARK    2  A    between atoms: N_3  and  S_1 
REMARK    3  A    between atoms: C_8  and  N_3 
ROOT
ATOM      1  S   UNL d   1     -39.319  14.434  19.034  0.00  0.00     0.327 S 
ATOM      2  O   UNL d   1     -38.664  14.931  18.925  0.00  0.00    -0.186 OA
ATOM      3  O   UNL d   1     -39.971  13.939  19.141  0.00  0.00    -0.186 OA
ENDROOT
BRANCH   1   4
ATOM      4  C   UNL d   1     -39.431  14.403  18.218  0.00  0.00     0.116 A 
ATOM      5  C   UNL d   1     -39.983  14.896  17.858  0.00  0.00     0.013 A 
ATOM      6  C   UNL d   1     -40.096  14.865  17.033  0.00  0.00     0.001 A 
ATOM      7  C   UNL d   1     -40.431  15.426  18.307  0.00  0.00     0.001 A 
ATOM      8  C   UNL d   1     -40.649  15.359  16.673  0.00  0.00     0.000 A 
ATOM      9  C   UNL d   1     -39.655  14.342  16.575  0.00  0.00     0.000 A 
ATOM     10  C   UNL d   1     -41.089  15.882  17.131  0.00  0.00     0.000 A 
ATOM     11  C   UNL d   1     -40.984  15.919  17.948  0.00  0.00     0.000 A 
ATOM     12  C   UNL d   1     -39.100  13.846  16.935  0.00  0.00     0.001 A 
ATOM     13  C   UNL d   1     -38.987  13.876  17.760  0.00  0.00     0.014 A 
ENDBRANCH   1   4
BRANCH   1  14
ATOM     14  N   UNL d   1     -39.207  14.464  19.850  0.00  0.00    -0.318 NA
BRANCH  14  15
ATOM     15  C   UNL d   1     -39.095  14.495  20.667  0.00  0.00     0.141 A 
ATOM     16  C   UNL d   1     -38.724  13.881  21.056  0.00  0.00     0.028 A 
ATOM     17  C   UNL d   1     -38.614  13.911  21.865  0.00  0.00     0.101 A 
ATOM     18  C   UNL d   1     -38.245  13.174  21.837  0.00  0.00     0.029 C 
ATOM     19  C   UNL d   1     -38.271  13.407  22.426  0.00  0.00     0.029 C 
ATOM     20  N   UNL d   1     -38.877  14.563  22.293  0.00  0.00    -0.295 NA
ATOM     21  C   UNL d   1     -39.252  15.185  21.905  0.00  0.00     0.101 A 
ATOM     22  C   UNL d   1     -39.363  15.154  21.088  0.00  0.00     0.028 A 
ATOM     23  C   UNL d   1     -39.622  15.922  21.923  0.00  0.00     0.029 C 
ATOM     24  C   UNL d   1     -39.435  15.731  22.499  0.00  0.00     0.029 C 
ENDBRANCH  14  15
ENDBRANCH   1  14
TORSDOF 3
ENDMDL
MODEL 8
REMARK VINA RESULT:      -6.4      9.428     10.364
REMARK  3 active torsions:
REMARK  status: ('A' for Active; 'I' for Inactive)
REMARK    1  A    between atoms: C_2  and  S_1 
REMARK    2  A    between atoms: N_3  and  S_1 
REMARK    3  A    between atoms: C_8  and  N_3 
ROOT
ATOM      1  S   UNL d   1     -38.976  14.332  19.757  0.00  0.00     0.327 S 
ATOM      2  O   UNL d   1     -39.634  13.836  19.844  0.00  0.00    -0.186 OA
ATOM      3  O   UNL d   1     -38.321  14.825  19.669  0.00  0.00    -0.186 OA
ENDROOT
BRANCH   1   4
ATOM      4  C   UNL d   1     -38.780  14.211  20.548  0.00  0.00     0.116 A 
ATOM      5  C   UNL d   1     -39.041  14.739  21.123  0.00  0.00     0.013 A 
ATOM      6  C   UNL d   1     -38.842  14.617  21.923  0.00  0.00     0.001 A 
ATOM      7  C   UNL d   1     -39.501  15.393  20.916  0.00  0.00     0.001 A 
ATOM      8  C   UNL d   1     -39.104  15.145  22.498  0.00  0.00     0.000 A 
ATOM      9  C   UNL d   1     -38.384  13.969  22.141  0.00  0.00     0.000 A 
ATOM     10  C   UNL d   1     -39.562  15.794  22.281  0.00  0.00     0.000 A 
ATOM     11  C   UNL d   1     -39.763  15.922  21.491  0.00  0.00     0.000 A 
ATOM     12  C   UNL d   1     -38.120  13.437  21.564  0.00  0.00     0.001 A 
ATOM     13  C   UNL d   1     -38.319  13.559  20.764  0.00  0.00     0.014 A 
ENDBRANCH   1   4
BRANCH   1  14
ATOM     14  N   UNL d   1     -39.173  14.452  18.964  0.00  0.00    -0.318 NA
BRANCH  14  15
ATOM     15  C   UNL d   1     -39.369  14.573  18.172  0.00  0.00     0.141 A 
ATOM     16  C   UNL d   1     -40.041  14.990  17.973  0.00  0.00     0.028 A 
ATOM     17  C   UNL d   1     -40.236  15.110  17.188  0.00  0.00     0.101 A 
ATOM     18  C   UNL d   1     -40.907  15.528  17.424  0.00  0.00     0.029 C 
ATOM     19  C   UNL d   1     -40.854  15.493  16.793  0.00  0.00     0.029 C 
ATOM     20  N   UNL d   1     -39.754  14.809  16.594  0.00  0.00    -0.295 NA
ATOM     21  C   UNL d   1     -39.075  14.387  16.790  0.00  0.00     0.101 A 
ATOM     22  C   UNL d   1     -38.878  14.266  17.582  0.00  0.00     0.028 A 
ATOM     23  C   UNL d   1     -38.401  13.968  16.564  0.00  0.00     0.029 C 
ATOM     24  C   UNL d   1     -38.735  14.174  16.066  0.00  0.00     0.029 C 
ENDBRANCH  14  15
ENDBRANCH   1  14
TORSDOF 3
ENDMDL
