MODEL 1
REMARK VINA RESULT:      -1.7      0.000      0.000
REMARK  0 active torsions:
REMARK  status: ('A' for Active; 'I' for Inactive)
ROOT
ATOM      1  C   UNL d   1      45.085 -12.610  43.377  0.00  0.00     0.286 A 
ATOM      2  N   UNL d   1      45.614 -12.081  43.640  0.00  0.00    -0.170 NA
ATOM      3  C   UNL d   1      45.151 -13.287  43.839  0.00  0.00     0.066 A 
ATOM      4  S   UNL d   1      46.037 -12.380  44.266  0.00  0.00     0.017 SA
ATOM      5  C   UNL d   1      45.757 -13.140  44.405  0.00  0.00     0.052 A 
ATOM      6  O   UNL d   1      44.561 -12.510  42.757  0.00  0.00    -0.265 OA
ATOM      7  C   UNL d   1      44.756 -14.006  43.830  0.00  0.00     0.005 A 
ATOM      8  C   UNL d   1      45.960 -13.715  44.955  0.00  0.00     0.008 A 
ATOM      9  C   UNL d   1      44.957 -14.590  44.383  0.00  0.00     0.000 A 
ATOM     10  C   UNL d   1      45.563 -14.443  44.950  0.00  0.00     0.001 A 
ENDROOT
TORSDOF 0
ENDMDL
MODEL 2
REMARK VINA RESULT:      -1.0      1.346      1.948
REMARK  0 active torsions:
REMARK  status: ('A' for Active; 'I' for Inactive)
ROOT
ATOM      1  C   UNL d   1      45.255 -14.189  44.518  0.00  0.00     0.286 A 
ATOM      2  N   UNL d   1      45.909 -14.078  44.955  0.00  0.00    -0.170 NA
ATOM      3  C   UNL d   1      45.156 -13.531  44.037  0.00  0.00     0.066 A 
ATOM      4  S   UNL d   1      46.254 -13.362  44.783  0.00  0.00     0.017 SA
ATOM      5  C   UNL d   1      45.792 -13.004  44.206  0.00  0.00     0.052 A 
ATOM      6  O   UNL d   1      44.762 -14.841  44.536  0.00  0.00    -0.265 OA
ATOM      7  C   UNL d   1      44.589 -13.332  43.477  0.00  0.00     0.005 A 
ATOM      8  C   UNL d   1      45.852 -12.286  43.812  0.00  0.00     0.008 A 
ATOM      9  C   UNL d   1      44.646 -12.608  43.078  0.00  0.00     0.000 A 
ATOM     10  C   UNL d   1      45.282 -12.082  43.247  0.00  0.00     0.001 A 
ENDROOT
TORSDOF 0
ENDMDL
MODEL 3
REMARK VINA RESULT:       0.8      7.233      7.598
REMARK  0 active torsions:
REMARK  status: ('A' for Active; 'I' for Inactive)
ROOT
ATOM      1  C   UNL d   1      45.558 -14.423  37.081  0.00  0.00     0.286 A 
ATOM      2  N   UNL d   1      46.167 -14.756  36.695  0.00  0.00    -0.170 NA
ATOM      3  C   UNL d   1      44.903 -14.910  36.990  0.00  0.00     0.066 A 
ATOM      4  S   UNL d   1      45.942 -15.455  36.346  0.00  0.00     0.017 SA
ATOM      5  C   UNL d   1      45.147 -15.568  36.522  0.00  0.00     0.052 A 
ATOM      6  O   UNL d   1      45.570 -13.720  37.497  0.00  0.00    -0.265 OA
ATOM      7  C   UNL d   1      44.129 -14.857  37.258  0.00  0.00     0.005 A 
ATOM      8  C   UNL d   1      44.614 -16.162  36.330  0.00  0.00     0.008 A 
ATOM      9  C   UNL d   1      43.588 -15.455  37.067  0.00  0.00     0.000 A 
ATOM     10  C   UNL d   1      43.832 -16.112  36.599  0.00  0.00     0.001 A 
ENDROOT
TORSDOF 0
ENDMDL
