MODEL 1
REMARK VINA RESULT:      62.0      0.000      0.000
REMARK  4 active torsions:
REMARK  status: ('A' for Active; 'I' for Inactive)
REMARK    1  A    between atoms: C_6  and  N_1 
REMARK    2  A    between atoms: C_11  and  C_6 
REMARK    3  A    between atoms: O_14  and  C_8 
REMARK    4  A    between atoms: O_15  and  C_9 
ROOT
ATOM      1  C   UNL d   1     -54.854-101.959 -43.314  0.00  0.00     0.084 C 
ENDROOT
BRANCH   1   2
ATOM      2  N   UNL d   1     -55.421-101.469 -43.660  0.00  0.00    -0.268 N 
ATOM      3  C   UNL d   1     -56.172-101.704 -43.917  0.00  0.00     0.296 A 
ATOM      4  S   UNL d   1     -56.552-101.033 -44.228  0.00  0.00    -0.025 SA
ATOM      5  O   UNL d   1     -56.485-102.466 -43.872  0.00  0.00    -0.259 OA
ATOM      6  C   UNL d   1     -56.035-100.394 -44.160  0.00  0.00     0.050 A 
ATOM      7  C   UNL d   1     -55.336-100.659 -43.811  0.00  0.00     0.073 A 
ATOM      8  C   UNL d   1     -56.101 -99.592 -44.371  0.00  0.00     0.008 A 
ATOM      9  C   UNL d   1     -54.712-100.140 -43.671  0.00  0.00     0.018 A 
ATOM     10  C   UNL d   1     -54.783 -99.346 -43.882  0.00  0.00     0.002 A 
ATOM     11  C   UNL d   1     -55.481 -99.071 -44.233  0.00  0.00     0.001 A 
ENDBRANCH   1   2
BRANCH   1  12
ATOM     12  C   UNL d   1     -54.821-102.034 -42.488  0.00  0.00     0.020 A 
ATOM     13  C   UNL d   1     -54.794-101.363 -42.025  0.00  0.00     0.028 A 
ATOM     14  C   UNL d   1     -54.760-101.435 -41.208  0.00  0.00     0.116 A 
ATOM     15  C   UNL d   1     -54.754-102.189 -40.852  0.00  0.00     0.116 A 
ATOM     16  C   UNL d   1     -54.782-102.862 -41.332  0.00  0.00     0.026 A 
ATOM     17  C   UNL d   1     -54.815-102.782 -42.156  0.00  0.00     0.004 A 
BRANCH  14  18
ATOM     18  O   UNL d   1     -54.733-100.761 -40.734  0.00  0.00    -0.326 OA
ATOM     19  C   UNL d   1     -54.774-100.828 -39.906  0.00  0.00     0.181 C 
ENDBRANCH  14  18
BRANCH  15  20
ATOM     20  O   UNL d   1     -54.721-102.228 -40.031  0.00  0.00    -0.326 OA
ATOM     21  C   UNL d   1     -55.261-102.685 -39.616  0.00  0.00     0.181 C 
ENDBRANCH  15  20
ENDBRANCH   1  12
TORSDOF 4
ENDMDL
MODEL 2
REMARK VINA RESULT:      64.1      1.564      2.397
REMARK  4 active torsions:
REMARK  status: ('A' for Active; 'I' for Inactive)
REMARK    1  A    between atoms: C_6  and  N_1 
REMARK    2  A    between atoms: C_11  and  C_6 
REMARK    3  A    between atoms: O_14  and  C_8 
REMARK    4  A    between atoms: O_15  and  C_9 
ROOT
ATOM      1  C   UNL d   1     -55.082 -99.742 -44.469  0.00  0.00     0.084 C 
ENDROOT
BRANCH   1   2
ATOM      2  N   UNL d   1     -55.835 -99.463 -44.658  0.00  0.00    -0.268 N 
ATOM      3  C   UNL d   1     -56.129 -99.345 -45.423  0.00  0.00     0.296 A 
ATOM      4  S   UNL d   1     -56.907 -99.060 -45.352  0.00  0.00    -0.025 SA
ATOM      5  O   UNL d   1     -55.722 -99.484 -46.128  0.00  0.00    -0.259 OA
ATOM      6  C   UNL d   1     -57.085 -99.006 -44.548  0.00  0.00     0.050 A 
ATOM      7  C   UNL d   1     -56.426 -99.253 -44.117  0.00  0.00     0.073 A 
ATOM      8  C   UNL d   1     -57.766 -98.761 -44.138  0.00  0.00     0.008 A 
ATOM      9  C   UNL d   1     -56.439 -99.260 -43.293  0.00  0.00     0.018 A 
ATOM     10  C   UNL d   1     -57.117 -99.017 -42.892  0.00  0.00     0.002 A 
ATOM     11  C   UNL d   1     -57.783 -98.766 -43.317  0.00  0.00     0.001 A 
ENDBRANCH   1   2
BRANCH   1  12
ATOM     12  C   UNL d   1     -54.995-100.477 -44.094  0.00  0.00     0.020 A 
ATOM     13  C   UNL d   1     -54.935-100.507 -43.280  0.00  0.00     0.028 A 
ATOM     14  C   UNL d   1     -54.849-101.233 -42.907  0.00  0.00     0.116 A 
ATOM     15  C   UNL d   1     -54.822-101.936 -43.355  0.00  0.00     0.116 A 
ATOM     16  C   UNL d   1     -54.884-101.893 -44.178  0.00  0.00     0.026 A 
ATOM     17  C   UNL d   1     -54.970-101.157 -44.548  0.00  0.00     0.004 A 
BRANCH  14  18
ATOM     18  O   UNL d   1     -54.788-101.271 -42.086  0.00  0.00    -0.326 OA
ATOM     19  C   UNL d   1     -54.716-100.574 -41.638  0.00  0.00     0.181 C 
ENDBRANCH  14  18
BRANCH  15  20
ATOM     20  O   UNL d   1     -54.735-102.648 -42.951  0.00  0.00    -0.326 OA
ATOM     21  C   UNL d   1     -55.125-102.771 -42.240  0.00  0.00     0.181 C 
ENDBRANCH  15  20
ENDBRANCH   1  12
TORSDOF 4
ENDMDL
MODEL 3
REMARK VINA RESULT:      64.9      1.466      3.920
REMARK  4 active torsions:
REMARK  status: ('A' for Active; 'I' for Inactive)
REMARK    1  A    between atoms: C_6  and  N_1 
REMARK    2  A    between atoms: C_11  and  C_6 
REMARK    3  A    between atoms: O_14  and  C_8 
REMARK    4  A    between atoms: O_15  and  C_9 
ROOT
ATOM      1  C   UNL d   1     -54.711-101.103 -42.293  0.00  0.00     0.084 C 
ENDROOT
BRANCH   1   2
ATOM      2  N   UNL d   1     -55.091-101.734 -41.923  0.00  0.00    -0.268 N 
ATOM      3  C   UNL d   1     -55.551-102.311 -42.299  0.00  0.00     0.296 A 
ATOM      4  S   UNL d   1     -55.824-102.836 -41.715  0.00  0.00    -0.025 SA
ATOM      5  O   UNL d   1     -55.709-102.355 -43.108  0.00  0.00    -0.259 OA
ATOM      6  C   UNL d   1     -55.531-102.580 -40.987  0.00  0.00     0.050 A 
ATOM      7  C   UNL d   1     -55.079-101.901 -41.111  0.00  0.00     0.073 A 
ATOM      8  C   UNL d   1     -55.613-102.874 -40.213  0.00  0.00     0.008 A 
ATOM      9  C   UNL d   1     -54.713-101.518 -40.480  0.00  0.00     0.018 A 
ATOM     10  C   UNL d   1     -54.798-101.813 -39.716  0.00  0.00     0.002 A 
ATOM     11  C   UNL d   1     -55.250-102.495 -39.582  0.00  0.00     0.001 A 
ENDBRANCH   1   2
BRANCH   1  12
ATOM     12  C   UNL d   1     -55.033-100.771 -42.981  0.00  0.00     0.020 A 
ATOM     13  C   UNL d   1     -54.873-101.115 -43.705  0.00  0.00     0.028 A 
ATOM     14  C   UNL d   1     -55.191-100.789 -44.388  0.00  0.00     0.116 A 
ATOM     15  C   UNL d   1     -55.675-100.110 -44.344  0.00  0.00     0.116 A 
ATOM     16  C   UNL d   1     -55.830 -99.771 -43.606  0.00  0.00     0.026 A 
ATOM     17  C   UNL d   1     -55.506-100.106 -42.921  0.00  0.00     0.004 A 
BRANCH  14  18
ATOM     18  O   UNL d   1     -55.033-101.130 -45.121  0.00  0.00    -0.326 OA
ATOM     19  C   UNL d   1     -55.167-101.942 -45.243  0.00  0.00     0.181 C 
ENDBRANCH  14  18
BRANCH  15  20
ATOM     20  O   UNL d   1     -55.978 -99.807 -45.047  0.00  0.00    -0.326 OA
ATOM     21  C   UNL d   1     -56.568 -99.238 -45.031  0.00  0.00     0.181 C 
ENDBRANCH  15  20
ENDBRANCH   1  12
TORSDOF 4
ENDMDL
