MODEL 1
REMARK VINA RESULT:      -5.1      0.000      0.000
REMARK  5 active torsions:
REMARK  status: ('A' for Active; 'I' for Inactive)
REMARK    1  A    between atoms: N_2  and  S_1 
REMARK    2  A    between atoms: C_5  and  S_1 
REMARK    3  A    between atoms: S_8  and  C_3 
REMARK    4  A    between atoms: C_13  and  S_8 
REMARK    5  A    between atoms: C_15  and  C_13 
ROOT
ATOM      1  N   UNL d   1     -41.377-122.545 -53.510  0.00  0.00    -0.208 N 
ATOM      2  C   UNL d   1     -41.418-123.007 -52.820  0.00  0.00     0.189 A 
ATOM      3  N   UNL d   1     -41.260-123.793 -53.025  0.00  0.00    -0.219 NA
ATOM      4  C   UNL d   1     -41.193-123.051 -54.145  0.00  0.00     0.114 A 
ATOM      5  C   UNL d   1     -41.123-123.816 -53.843  0.00  0.00     0.121 A 
ENDROOT
BRANCH   1   6
ATOM      6  S   UNL d   1     -41.499-121.727 -53.554  0.00  0.00     0.273 S 
ATOM      7  O   UNL d   1     -41.501-120.919 -53.374  0.00  0.00    -0.200 OA
ATOM      8  O   UNL d   1     -41.123-121.668 -52.828  0.00  0.00    -0.200 OA
BRANCH   6   9
ATOM      9  C   UNL d   1     -41.881-121.765 -54.286  0.00  0.00     0.104 A 
ATOM     10  C   UNL d   1     -42.699-121.747 -54.314  0.00  0.00     0.015 A 
ATOM     11  C   UNL d   1     -43.078-121.786 -55.044  0.00  0.00     0.030 A 
ATOM     12  C   UNL d   1     -42.632-121.842 -55.738  0.00  0.00     0.140 A 
ATOM     13  C   UNL d   1     -41.811-121.860 -55.707  0.00  0.00     0.030 A 
ATOM     14  F   UNL d   1     -43.013-121.881 -56.471  0.00  0.00    -0.204 F 
ATOM     15  C   UNL d   1     -41.432-121.821 -54.972  0.00  0.00     0.015 A 
ENDBRANCH   6   9
ENDBRANCH   1   6
BRANCH   2  16
ATOM     16  S   UNL d   1     -41.587-122.726 -52.054  0.00  0.00    -0.049 SA
BRANCH  16  17
ATOM     17  C   UNL d   1     -41.302-123.134 -51.395  0.00  0.00     0.038 C 
BRANCH  17  18
ATOM     18  C   UNL d   1     -41.728-123.111 -50.681  0.00  0.00     0.007 A 
ATOM     19  C   UNL d   1     -42.071-123.803 -50.374  0.00  0.00     0.001 A 
ATOM     20  C   UNL d   1     -42.491-123.786 -49.670  0.00  0.00     0.000 A 
ATOM     21  C   UNL d   1     -42.574-123.073 -49.264  0.00  0.00     0.000 A 
ATOM     22  C   UNL d   1     -42.234-122.381 -49.568  0.00  0.00     0.000 A 
ATOM     23  C   UNL d   1     -42.995-123.048 -48.557  0.00  0.00     0.000 C 
ATOM     24  C   UNL d   1     -41.812-122.402 -50.274  0.00  0.00     0.001 A 
ENDBRANCH  17  18
ENDBRANCH  16  17
ENDBRANCH   2  16
TORSDOF 5
ENDMDL
MODEL 2
REMARK VINA RESULT:      -4.1      2.396      5.024
REMARK  5 active torsions:
REMARK  status: ('A' for Active; 'I' for Inactive)
REMARK    1  A    between atoms: N_2  and  S_1 
REMARK    2  A    between atoms: C_5  and  S_1 
REMARK    3  A    between atoms: S_8  and  C_3 
REMARK    4  A    between atoms: C_13  and  S_8 
REMARK    5  A    between atoms: C_15  and  C_13 
ROOT
ATOM      1  N   UNL d   1     -41.896-122.496 -50.602  0.00  0.00    -0.208 N 
ATOM      2  C   UNL d   1     -41.525-122.247 -51.303  0.00  0.00     0.189 A 
ATOM      3  N   UNL d   1     -41.122-121.541 -51.145  0.00  0.00    -0.219 NA
ATOM      4  C   UNL d   1     -41.722-121.940 -50.009  0.00  0.00     0.114 A 
ATOM      5  C   UNL d   1     -41.246-121.355 -50.347  0.00  0.00     0.121 A 
ENDROOT
BRANCH   1   6
ATOM      6  S   UNL d   1     -42.358-123.179 -50.515  0.00  0.00     0.273 S 
ATOM      7  O   UNL d   1     -42.883-123.801 -50.666  0.00  0.00    -0.200 OA
ATOM      8  O   UNL d   1     -42.619-123.058 -51.282  0.00  0.00    -0.200 OA
BRANCH   6   9
ATOM      9  C   UNL d   1     -42.106-123.319 -49.740  0.00  0.00     0.104 A 
ATOM     10  C   UNL d   1     -41.382-123.679 -49.611  0.00  0.00     0.015 A 
ATOM     11  C   UNL d   1     -41.134-123.817 -48.839  0.00  0.00     0.030 A 
ATOM     12  C   UNL d   1     -41.613-123.592 -48.204  0.00  0.00     0.140 A 
ATOM     13  C   UNL d   1     -42.339-123.230 -48.336  0.00  0.00     0.030 A 
ATOM     14  F   UNL d   1     -41.362-123.731 -47.428  0.00  0.00    -0.204 F 
ATOM     15  C   UNL d   1     -42.587-123.092 -49.113  0.00  0.00     0.015 A 
ENDBRANCH   6   9
ENDBRANCH   1   6
BRANCH   2  16
ATOM     16  S   UNL d   1     -41.552-122.640 -52.037  0.00  0.00    -0.049 SA
BRANCH  16  17
ATOM     17  C   UNL d   1     -41.126-122.343 -52.678  0.00  0.00     0.038 C 
BRANCH  17  18
ATOM     18  C   UNL d   1     -41.444-122.397 -53.445  0.00  0.00     0.007 A 
ATOM     19  C   UNL d   1     -41.276-123.054 -53.925  0.00  0.00     0.001 A 
ATOM     20  C   UNL d   1     -41.587-123.111 -54.682  0.00  0.00     0.000 A 
ATOM     21  C   UNL d   1     -42.072-122.510 -54.968  0.00  0.00     0.000 A 
ATOM     22  C   UNL d   1     -42.242-121.853 -54.491  0.00  0.00     0.000 A 
ATOM     23  C   UNL d   1     -42.389-122.560 -55.726  0.00  0.00     0.000 C 
ATOM     24  C   UNL d   1     -41.928-121.798 -53.733  0.00  0.00     0.001 A 
ENDBRANCH  17  18
ENDBRANCH  16  17
ENDBRANCH   2  16
TORSDOF 5
ENDMDL
