MODEL 1
REMARK VINA RESULT:      73.3      0.000      0.000
REMARK  4 active torsions:
REMARK  status: ('A' for Active; 'I' for Inactive)
REMARK    1  A    between atoms: N_2  and  C_1 
REMARK    2  A    between atoms: C_16  and  N_6 
REMARK    3  A    between atoms: C_14  and  C_7 
REMARK    4  A    between atoms: N_8  and  C_12 
ROOT
ATOM      1  N   UNL d   1      13.578  12.947  -4.402  0.00  0.00    -0.288 N 
ATOM      2  C   UNL d   1      13.804  12.875  -3.635  0.00  0.00     0.196 A 
ATOM      3  S   UNL d   1      13.493  12.175  -3.330  0.00  0.00    -0.092 SA
ATOM      4  C   UNL d   1      13.123  12.303  -4.607  0.00  0.00     0.268 A 
ATOM      5  C   UNL d   1      13.067  11.822  -3.948  0.00  0.00     0.093 A 
ATOM      6  O   UNL d   1      12.768  12.150  -5.358  0.00  0.00    -0.266 OA
ENDROOT
BRANCH   1   7
ATOM      7  C   UNL d   1      13.810  13.603  -4.857  0.00  0.00     0.139 A 
ATOM      8  C   UNL d   1      13.533  14.378  -4.723  0.00  0.00     0.296 A 
ATOM      9  N   UNL d   1      13.889  14.884  -5.290  0.00  0.00    -0.209 N 
ATOM     10  O   UNL d   1      12.993  14.575  -4.117  0.00  0.00    -0.264 OA
ATOM     11  N   UNL d   1      14.376  14.429  -5.764  0.00  0.00    -0.238 N 
ATOM     12  C   UNL d   1      14.328  13.634  -5.497  0.00  0.00     0.102 A 
ATOM     13  C   UNL d   1      14.831  14.687  -6.387  0.00  0.00     0.120 C 
ATOM     14  C   UNL d   1      14.736  12.997  -5.827  0.00  0.00     0.022 C 
BRANCH   9  15
ATOM     15  C   UNL d   1      13.826  15.692  -5.426  0.00  0.00     0.085 A 
ATOM     16  C   UNL d   1      14.246  16.227  -4.988  0.00  0.00     0.019 A 
ATOM     17  C   UNL d   1      14.183  17.035  -5.124  0.00  0.00     0.002 A 
ATOM     18  C   UNL d   1      13.684  17.309  -5.715  0.00  0.00     0.000 A 
ATOM     19  C   UNL d   1      13.260  16.781  -6.157  0.00  0.00     0.002 A 
ATOM     20  C   UNL d   1      13.313  15.960  -6.032  0.00  0.00     0.019 A 
ENDBRANCH   9  15
ENDBRANCH   1   7
BRANCH   2  21
ATOM     21  C   UNL d   1      14.073  12.867  -2.854  0.00  0.00    -0.001 A 
ATOM     22  C   UNL d   1      14.810  12.526  -2.669  0.00  0.00    -0.001 A 
ATOM     23  C   UNL d   1      15.081  12.519  -1.879  0.00  0.00     0.023 A 
ATOM     24  C   UNL d   1      14.618  12.849  -1.286  0.00  0.00     0.127 A 
ATOM     25  C   UNL d   1      13.884  13.188  -1.472  0.00  0.00     0.023 A 
ATOM     26  C   UNL d   1      13.614  13.195  -2.262  0.00  0.00    -0.001 A 
BRANCH  24  27
ATOM     27  N   UNL d   1      14.895  12.834  -0.520  0.00  0.00    -0.114 N 
ATOM     28  O   UNL d   1      15.225  13.487  -0.137  0.00  0.00    -0.532 OA
ATOM     29  O   UNL d   1      14.889  12.180  -0.023  0.00  0.00    -0.532 OA
ENDBRANCH  24  27
ENDBRANCH   2  21
TORSDOF 4
ENDMDL
MODEL 2
REMARK VINA RESULT:      75.8      1.644      4.417
REMARK  4 active torsions:
REMARK  status: ('A' for Active; 'I' for Inactive)
REMARK    1  A    between atoms: N_2  and  C_1 
REMARK    2  A    between atoms: C_16  and  N_6 
REMARK    3  A    between atoms: C_14  and  C_7 
REMARK    4  A    between atoms: N_8  and  C_12 
ROOT
ATOM      1  N   UNL d   1      13.572  13.554  -4.125  0.00  0.00    -0.288 N 
ATOM      2  C   UNL d   1      13.818  14.291  -4.328  0.00  0.00     0.196 A 
ATOM      3  S   UNL d   1      13.538  14.467  -5.083  0.00  0.00    -0.092 SA
ATOM      4  C   UNL d   1      13.135  13.241  -4.737  0.00  0.00     0.268 A 
ATOM      5  C   UNL d   1      13.110  13.801  -5.333  0.00  0.00     0.093 A 
ATOM      6  O   UNL d   1      12.769  12.481  -4.763  0.00  0.00    -0.266 OA
ENDROOT
BRANCH   1   7
ATOM      7  C   UNL d   1      13.771  13.224  -3.388  0.00  0.00     0.139 A 
ATOM      8  C   UNL d   1      14.255  13.606  -2.827  0.00  0.00     0.296 A 
ATOM      9  N   UNL d   1      14.329  13.104  -2.159  0.00  0.00    -0.209 N 
ATOM     10  O   UNL d   1      14.590  14.362  -2.948  0.00  0.00    -0.264 OA
ATOM     11  N   UNL d   1      13.898  12.425  -2.306  0.00  0.00    -0.238 N 
ATOM     12  C   UNL d   1      13.552  12.497  -3.068  0.00  0.00     0.102 A 
ATOM     13  C   UNL d   1      13.811  11.784  -1.813  0.00  0.00     0.120 C 
ATOM     14  C   UNL d   1      13.072  11.930  -3.429  0.00  0.00     0.022 C 
BRANCH   9  15
ATOM     15  C   UNL d   1      14.731  13.186  -1.448  0.00  0.00     0.085 A 
ATOM     16  C   UNL d   1      15.042  13.897  -1.219  0.00  0.00     0.019 A 
ATOM     17  C   UNL d   1      15.444  13.979  -0.507  0.00  0.00     0.002 A 
ATOM     18  C   UNL d   1      15.535  13.328  -0.015  0.00  0.00     0.000 A 
ATOM     19  C   UNL d   1      15.226  12.613  -0.236  0.00  0.00     0.002 A 
ATOM     20  C   UNL d   1      14.817  12.515  -0.953  0.00  0.00     0.019 A 
ENDBRANCH   9  15
ENDBRANCH   1   7
BRANCH   2  21
ATOM     21  C   UNL d   1      14.104  15.053  -4.469  0.00  0.00    -0.001 A 
ATOM     22  C   UNL d   1      14.461  15.237  -5.199  0.00  0.00    -0.001 A 
ATOM     23  C   UNL d   1      14.750  16.008  -5.339  0.00  0.00     0.023 A 
ATOM     24  C   UNL d   1      14.681  16.583  -4.757  0.00  0.00     0.127 A 
ATOM     25  C   UNL d   1      14.326  16.398  -4.030  0.00  0.00     0.023 A 
ATOM     26  C   UNL d   1      14.037  15.627  -3.890  0.00  0.00    -0.001 A 
BRANCH  24  27
ATOM     27  N   UNL d   1      14.968  17.330  -4.909  0.00  0.00    -0.114 N 
ATOM     28  O   UNL d   1      15.742  17.486  -5.153  0.00  0.00    -0.532 OA
ATOM     29  O   UNL d   1      14.539  18.028  -4.845  0.00  0.00    -0.532 OA
ENDBRANCH  24  27
ENDBRANCH   2  21
TORSDOF 4
ENDMDL
