MODEL 1
REMARK VINA RESULT:       5.1      0.000      0.000
REMARK  7 active torsions:
REMARK  status: ('A' for Active; 'I' for Inactive)
REMARK    1  A    between atoms: N_4  and  C_1 
REMARK    2  A    between atoms: N_8  and  C_1 
REMARK    3  A    between atoms: C_2  and  C_3 
REMARK    4  A    between atoms: C_5  and  C_2 
REMARK    5  A    between atoms: N_6  and  C_2 
REMARK    6  A    between atoms: C_3  and  N_4 
REMARK    7  A    between atoms: C_14  and  N_8 
ROOT
ATOM      1  C   UNL d   1     -48.796  13.048  23.101  0.00  0.00     0.100 C 
ATOM      2  C   UNL d   1     -49.007  12.527  23.698  0.00  0.00     0.022 C 
ENDROOT
BRANCH   1   3
ATOM      3  C   UNL d   1     -49.370  13.526  22.752  0.00  0.00     0.088 C 
BRANCH   3   4
ATOM      4  C   UNL d   1     -49.458  14.311  22.994  0.00  0.00     0.047 A 
ATOM      5  S   UNL d   1     -49.142  14.981  22.623  0.00  0.00    -0.085 SA
ATOM      6  C   UNL d   1     -49.370  15.646  23.053  0.00  0.00     0.035 A 
ATOM      7  C   UNL d   1     -49.829  15.402  23.696  0.00  0.00     0.007 A 
ATOM      8  C   UNL d   1     -49.887  14.569  23.664  0.00  0.00     0.009 A 
ENDBRANCH   3   4
BRANCH   3   9
ATOM      9  N   UNL d   1     -49.862  13.223  22.155  0.00  0.00    -0.299 N 
ATOM     10  C   UNL d   1     -49.643  13.291  21.370  0.00  0.00     0.107 A 
ATOM     11  C   UNL d   1     -50.124  12.993  20.771  0.00  0.00     0.142 A 
ATOM     12  O   UNL d   1     -50.844  12.617  20.959  0.00  0.00    -0.300 OA
ATOM     13  C   UNL d   1     -51.064  12.550  21.759  0.00  0.00     0.142 A 
ATOM     14  C   UNL d   1     -50.575  12.852  22.354  0.00  0.00     0.107 A 
ENDBRANCH   3   9
ENDBRANCH   1   3
BRANCH   1  15
ATOM     15  N   UNL d   1     -48.015  13.100  22.846  0.00  0.00    -0.216 NA
BRANCH  15  16
ATOM     16  C   UNL d   1     -47.423  12.666  23.236  0.00  0.00     0.221 C 
ATOM     17  S   UNL d   1     -47.539  11.865  23.387  0.00  0.00    -0.037 SA
BRANCH  16  18
ATOM     18  N   UNL d   1     -46.726  13.040  23.467  0.00  0.00    -0.217 NA
BRANCH  18  19
ATOM     19  C   UNL d   1     -46.050  13.000  22.992  0.00  0.00     0.084 A 
ATOM     20  C   UNL d   1     -45.811  13.669  22.559  0.00  0.00     0.021 A 
ATOM     21  C   UNL d   1     -45.147  13.623  22.094  0.00  0.00     0.031 A 
ATOM     22  C   UNL d   1     -44.707  12.923  22.048  0.00  0.00     0.140 A 
ATOM     23  C   UNL d   1     -44.947  12.262  22.480  0.00  0.00     0.031 A 
ATOM     24  F   UNL d   1     -44.029  12.888  21.569  0.00  0.00    -0.204 F 
ATOM     25  C   UNL d   1     -45.618  12.303  22.950  0.00  0.00     0.021 A 
ENDBRANCH  18  19
ENDBRANCH  16  18
ENDBRANCH  15  16
ENDBRANCH   1  15
TORSDOF 7
ENDMDL
