MODEL 1
REMARK VINA RESULT:      14.3      0.000      0.000
REMARK  6 active torsions:
REMARK  status: ('A' for Active; 'I' for Inactive)
REMARK    1  A    between atoms: C_2  and  S_1 
REMARK    2  A    between atoms: N_4  and  S_1 
REMARK    3  A    between atoms: C_12  and  N_4 
REMARK    4  A    between atoms: O_14  and  C_6 
REMARK    5  A    between atoms: C_13  and  C_12 
REMARK    6  A    between atoms: C_18  and  O_14 
ROOT
ATOM      1  C   UNL d   1      46.360 -18.115  43.509  0.00  0.00     0.107 A 
ATOM      2  C   UNL d   1      46.435 -18.160  42.686  0.00  0.00     0.038 A 
ATOM      3  C   UNL d   1      46.381 -18.801  43.962  0.00  0.00     0.012 A 
ATOM      4  C   UNL d   1      46.531 -18.901  42.318  0.00  0.00     0.101 A 
ATOM      5  C   UNL d   1      46.477 -19.542  43.594  0.00  0.00     0.003 A 
ATOM      6  C   UNL d   1      46.552 -19.590  42.775  0.00  0.00     0.023 A 
ATOM      7  C   UNL d   1      46.306 -18.757  44.788  0.00  0.00     0.001 C 
ATOM      8  C   UNL d   1      46.647 -20.324  42.411  0.00  0.00     0.002 C 
ENDROOT
BRANCH   1   9
ATOM      9  S   UNL d   1      46.265 -17.381  43.873  0.00  0.00     0.285 S 
ATOM     10  O   UNL d   1      46.626 -17.014  43.230  0.00  0.00    -0.198 OA
ATOM     11  O   UNL d   1      45.901 -17.750  44.522  0.00  0.00    -0.198 OA
BRANCH   9  12
ATOM     12  N   UNL d   1      46.170 -16.647  44.238  0.00  0.00    -0.155 NA
BRANCH  12  13
ATOM     13  C   UNL d   1      45.658 -16.086  43.909  0.00  0.00     0.131 C 
BRANCH  13  14
ATOM     14  C   UNL d   1      45.585 -15.342  44.257  0.00  0.00     0.101 A 
ATOM     15  N   UNL d   1      44.863 -15.104  44.574  0.00  0.00    -0.242 NA
ATOM     16  C   UNL d   1      44.790 -14.359  44.923  0.00  0.00     0.099 A 
ATOM     17  C   UNL d   1      45.439 -13.853  44.953  0.00  0.00     0.021 A 
ATOM     18  C   UNL d   1      46.165 -14.090  44.636  0.00  0.00     0.003 A 
ATOM     19  C   UNL d   1      46.238 -14.835  44.288  0.00  0.00     0.021 A 
ENDBRANCH  13  14
ENDBRANCH  12  13
ENDBRANCH   9  12
ENDBRANCH   1   9
BRANCH   4  20
ATOM     20  O   UNL d   1      46.605 -18.949  41.499  0.00  0.00    -0.305 OA
BRANCH  20  21
ATOM     21  C   UNL d   1      46.223 -18.398  41.020  0.00  0.00     0.123 C 
ATOM     22  C   UNL d   1      46.410 -18.352  40.219  0.00  0.00     0.029 C 
ENDBRANCH  20  21
ENDBRANCH   4  20
TORSDOF 6
ENDMDL
MODEL 2
REMARK VINA RESULT:      17.2      0.893      1.866
REMARK  6 active torsions:
REMARK  status: ('A' for Active; 'I' for Inactive)
REMARK    1  A    between atoms: C_2  and  S_1 
REMARK    2  A    between atoms: N_4  and  S_1 
REMARK    3  A    between atoms: C_12  and  N_4 
REMARK    4  A    between atoms: O_14  and  C_6 
REMARK    5  A    between atoms: C_13  and  C_12 
REMARK    6  A    between atoms: C_18  and  O_14 
ROOT
ATOM      1  C   UNL d   1      46.256 -18.001  43.086  0.00  0.00     0.107 A 
ATOM      2  C   UNL d   1      46.455 -18.685  43.506  0.00  0.00     0.038 A 
ATOM      3  C   UNL d   1      46.034 -18.056  42.295  0.00  0.00     0.012 A 
ATOM      4  C   UNL d   1      46.431 -19.428  43.129  0.00  0.00     0.101 A 
ATOM      5  C   UNL d   1      46.009 -18.798  41.918  0.00  0.00     0.003 A 
ATOM      6  C   UNL d   1      46.207 -19.480  42.334  0.00  0.00     0.023 A 
ATOM      7  C   UNL d   1      45.834 -17.370  41.870  0.00  0.00     0.001 C 
ATOM      8  C   UNL d   1      46.182 -20.215  41.961  0.00  0.00     0.002 C 
ENDROOT
BRANCH   1   9
ATOM      9  S   UNL d   1      46.281 -17.266  43.459  0.00  0.00     0.285 S 
ATOM     10  O   UNL d   1      46.127 -16.895  42.739  0.00  0.00    -0.198 OA
ATOM     11  O   UNL d   1      46.436 -17.640  44.184  0.00  0.00    -0.198 OA
BRANCH   9  12
ATOM     12  N   UNL d   1      46.305 -16.531  43.833  0.00  0.00    -0.155 NA
BRANCH  12  13
ATOM     13  C   UNL d   1      45.715 -16.324  44.374  0.00  0.00     0.131 C 
BRANCH  13  14
ATOM     14  C   UNL d   1      45.559 -15.529  44.527  0.00  0.00     0.101 A 
ATOM     15  N   UNL d   1      46.167 -14.974  44.491  0.00  0.00    -0.242 NA
ATOM     16  C   UNL d   1      46.011 -14.178  44.644  0.00  0.00     0.099 A 
ATOM     17  C   UNL d   1      45.247 -13.938  44.835  0.00  0.00     0.021 A 
ATOM     18  C   UNL d   1      44.635 -14.493  44.872  0.00  0.00     0.003 A 
ATOM     19  C   UNL d   1      44.791 -15.288  44.718  0.00  0.00     0.021 A 
ENDBRANCH  13  14
ENDBRANCH  12  13
ENDBRANCH   9  12
ENDBRANCH   1   9
BRANCH   4  20
ATOM     20  O   UNL d   1      46.629 -20.110  43.547  0.00  0.00    -0.305 OA
BRANCH  20  21
ATOM     21  C   UNL d   1      46.231 -20.293  44.244  0.00  0.00     0.123 C 
ATOM     22  C   UNL d   1      46.646 -20.330  44.955  0.00  0.00     0.029 C 
ENDBRANCH  20  21
ENDBRANCH   4  20
TORSDOF 6
ENDMDL
