MODEL 1
REMARK VINA RESULT:      -3.3      0.000      0.000
REMARK  4 active torsions:
REMARK  status: ('A' for Active; 'I' for Inactive)
REMARK    1  A    between atoms: C_3  and  C_1 
REMARK    2  A    between atoms: C_4  and  C_3 
REMARK    3  A    between atoms: C_7  and  C_4 
REMARK    4  A    between atoms: C_14  and  C_7 
ROOT
ATOM      1  C   UNL d   1      32.539  18.192 -23.444  0.00  0.00     0.042 C 
ENDROOT
BRANCH   1   2
ATOM      2  C   UNL d   1      32.485  17.531 -23.945  0.00  0.00     0.199 C 
ATOM      3  O   UNL d   1      33.155  17.314 -24.438  0.00  0.00    -0.286 OA
BRANCH   2   4
ATOM      4  C   UNL d   1      31.807  17.105 -23.959  0.00  0.00     0.078 A 
ATOM      5  C   UNL d   1      31.749  16.383 -23.563  0.00  0.00     0.199 A 
ATOM      6  C   UNL d   1      31.049  15.956 -23.586  0.00  0.00     0.042 A 
ATOM      7  O   UNL d   1      32.402  16.071 -23.131  0.00  0.00    -0.286 OA
ATOM      8  C   UNL d   1      30.400  16.248 -24.005  0.00  0.00     0.003 A 
ATOM      9  C   UNL d   1      30.457  16.970 -24.401  0.00  0.00     0.000 A 
ATOM     10  C   UNL d   1      29.698  15.821 -24.028  0.00  0.00     0.000 C 
ATOM     11  C   UNL d   1      31.164  17.399 -24.378  0.00  0.00     0.006 A 
ENDBRANCH   2   4
ENDBRANCH   1   2
BRANCH   1  12
ATOM     12  C   UNL d   1      33.227  18.652 -23.430  0.00  0.00     0.003 C 
BRANCH  12  13
ATOM     13  C   UNL d   1      33.229  19.374 -23.040  0.00  0.00     0.002 A 
ATOM     14  C   UNL d   1      33.222  19.395 -22.213  0.00  0.00     0.027 A 
ATOM     15  C   UNL d   1      33.224  20.117 -21.823  0.00  0.00     0.123 A 
ATOM     16  O   UNL d   1      33.217  20.141 -20.991  0.00  0.00    -0.301 OA
ATOM     17  C   UNL d   1      33.234  20.821 -22.253  0.00  0.00     0.123 A 
ATOM     18  C   UNL d   1      33.219  20.867 -20.596  0.00  0.00     0.149 A 
ATOM     19  C   UNL d   1      33.229  21.571 -21.025  0.00  0.00     0.149 A 
ATOM     20  O   UNL d   1      33.236  21.549 -21.851  0.00  0.00    -0.301 OA
ATOM     21  C   UNL d   1      33.241  20.803 -23.073  0.00  0.00     0.027 A 
ATOM     22  C   UNL d   1      33.239  20.078 -23.470  0.00  0.00     0.002 A 
ENDBRANCH  12  13
ENDBRANCH   1  12
TORSDOF 4
ENDMDL
MODEL 2
REMARK VINA RESULT:      -2.7      1.387      2.203
REMARK  4 active torsions:
REMARK  status: ('A' for Active; 'I' for Inactive)
REMARK    1  A    between atoms: C_3  and  C_1 
REMARK    2  A    between atoms: C_4  and  C_3 
REMARK    3  A    between atoms: C_7  and  C_4 
REMARK    4  A    between atoms: C_14  and  C_7 
ROOT
ATOM      1  C   UNL d   1      31.480  17.112 -23.593  0.00  0.00     0.042 C 
ENDROOT
BRANCH   1   2
ATOM      2  C   UNL d   1      31.221  16.342 -23.770  0.00  0.00     0.199 C 
ATOM      3  O   UNL d   1      31.795  15.732 -23.961  0.00  0.00    -0.286 OA
BRANCH   2   4
ATOM      4  C   UNL d   1      30.436  16.181 -23.759  0.00  0.00     0.078 A 
ATOM      5  C   UNL d   1      30.100  15.744 -23.145  0.00  0.00     0.199 A 
ATOM      6  C   UNL d   1      29.294  15.586 -23.145  0.00  0.00     0.042 A 
ATOM      7  O   UNL d   1      30.571  15.453 -22.509  0.00  0.00    -0.286 OA
ATOM      8  C   UNL d   1      28.819  15.864 -23.761  0.00  0.00     0.003 A 
ATOM      9  C   UNL d   1      29.155  16.300 -24.375  0.00  0.00     0.000 A 
ATOM     10  C   UNL d   1      28.013  15.705 -23.761  0.00  0.00     0.000 C 
ATOM     11  C   UNL d   1      29.966  16.459 -24.373  0.00  0.00     0.006 A 
ENDBRANCH   2   4
ENDBRANCH   1   2
BRANCH   1  12
ATOM     12  C   UNL d   1      32.282  17.307 -23.653  0.00  0.00     0.003 C 
BRANCH  12  13
ATOM     13  C   UNL d   1      32.518  18.091 -23.594  0.00  0.00     0.002 A 
ATOM     14  C   UNL d   1      32.530  18.569 -24.268  0.00  0.00     0.027 A 
ATOM     15  C   UNL d   1      32.766  19.354 -24.209  0.00  0.00     0.123 A 
ATOM     16  O   UNL d   1      32.780  19.837 -24.886  0.00  0.00    -0.301 OA
ATOM     17  C   UNL d   1      32.990  19.665 -23.478  0.00  0.00     0.123 A 
ATOM     18  C   UNL d   1      33.017  20.627 -24.829  0.00  0.00     0.149 A 
ATOM     19  C   UNL d   1      33.241  20.938 -24.098  0.00  0.00     0.149 A 
ATOM     20  O   UNL d   1      33.228  20.460 -23.425  0.00  0.00    -0.301 OA
ATOM     21  C   UNL d   1      32.978  19.192 -22.808  0.00  0.00     0.027 A 
ATOM     22  C   UNL d   1      32.742  18.403 -22.864  0.00  0.00     0.002 A 
ENDBRANCH  12  13
ENDBRANCH   1  12
TORSDOF 4
ENDMDL
MODEL 3
REMARK VINA RESULT:      -2.4      1.106      4.880
REMARK  4 active torsions:
REMARK  status: ('A' for Active; 'I' for Inactive)
REMARK    1  A    between atoms: C_3  and  C_1 
REMARK    2  A    between atoms: C_4  and  C_3 
REMARK    3  A    between atoms: C_7  and  C_4 
REMARK    4  A    between atoms: C_14  and  C_7 
ROOT
ATOM      1  C   UNL d   1      32.426  18.623 -23.331  0.00  0.00     0.042 C 
ENDROOT
BRANCH   1   2
ATOM      2  C   UNL d   1      32.876  19.321 -23.376  0.00  0.00     0.199 C 
ATOM      3  O   UNL d   1      33.240  19.546 -24.121  0.00  0.00    -0.286 OA
BRANCH   2   4
ATOM      4  C   UNL d   1      32.963  19.773 -22.721  0.00  0.00     0.078 A 
ATOM      5  C   UNL d   1      32.985  20.597 -22.772  0.00  0.00     0.199 A 
ATOM      6  C   UNL d   1      33.074  21.050 -22.093  0.00  0.00     0.042 A 
ATOM      7  O   UNL d   1      32.916  20.988 -23.515  0.00  0.00    -0.286 OA
ATOM      8  C   UNL d   1      33.143  20.681 -21.357  0.00  0.00     0.003 A 
ATOM      9  C   UNL d   1      33.122  19.858 -21.306  0.00  0.00     0.000 A 
ATOM     10  C   UNL d   1      33.233  21.134 -20.677  0.00  0.00     0.000 C 
ATOM     11  C   UNL d   1      33.031  19.403 -21.990  0.00  0.00     0.006 A 
ENDBRANCH   2   4
ENDBRANCH   1   2
BRANCH   1  12
ATOM     12  C   UNL d   1      32.419  18.089 -23.963  0.00  0.00     0.003 C 
BRANCH  12  13
ATOM     13  C   UNL d   1      31.901  17.452 -23.955  0.00  0.00     0.002 A 
ATOM     14  C   UNL d   1      31.140  17.536 -24.265  0.00  0.00     0.027 A 
ATOM     15  C   UNL d   1      30.622  16.899 -24.257  0.00  0.00     0.123 A 
ATOM     16  O   UNL d   1      29.855  16.981 -24.569  0.00  0.00    -0.301 OA
ATOM     17  C   UNL d   1      30.859  16.175 -23.940  0.00  0.00     0.123 A 
ATOM     18  C   UNL d   1      29.332  16.342 -24.562  0.00  0.00     0.149 A 
ATOM     19  C   UNL d   1      29.569  15.618 -24.245  0.00  0.00     0.149 A 
ATOM     20  O   UNL d   1      30.330  15.534 -23.934  0.00  0.00    -0.301 OA
ATOM     21  C   UNL d   1      31.615  16.089 -23.631  0.00  0.00     0.027 A 
ATOM     22  C   UNL d   1      32.139  16.728 -23.638  0.00  0.00     0.002 A 
ENDBRANCH  12  13
ENDBRANCH   1  12
TORSDOF 4
ENDMDL
MODEL 4
REMARK VINA RESULT:      -1.9      1.804      5.713
REMARK  4 active torsions:
REMARK  status: ('A' for Active; 'I' for Inactive)
REMARK    1  A    between atoms: C_3  and  C_1 
REMARK    2  A    between atoms: C_4  and  C_3 
REMARK    3  A    between atoms: C_7  and  C_4 
REMARK    4  A    between atoms: C_14  and  C_7 
ROOT
ATOM      1  C   UNL d   1      32.606  21.592 -21.324  0.00  0.00     0.042 C 
ENDROOT
BRANCH   1   2
ATOM      2  C   UNL d   1      32.581  22.414 -21.203  0.00  0.00     0.199 C 
ATOM      3  O   UNL d   1      32.518  22.943 -21.878  0.00  0.00    -0.286 OA
BRANCH   2   4
ATOM      4  C   UNL d   1      32.617  22.702 -20.456  0.00  0.00     0.078 A 
ATOM      5  C   UNL d   1      32.127  23.320 -20.214  0.00  0.00     0.199 A 
ATOM      6  C   UNL d   1      32.172  23.606 -19.446  0.00  0.00     0.042 A 
ATOM      7  O   UNL d   1      31.573  23.669 -20.745  0.00  0.00    -0.286 OA
ATOM      8  C   UNL d   1      32.710  23.274 -18.913  0.00  0.00     0.003 A 
ATOM      9  C   UNL d   1      33.200  22.655 -19.155  0.00  0.00     0.000 A 
ATOM     10  C   UNL d   1      32.756  23.559 -18.144  0.00  0.00     0.000 C 
ATOM     11  C   UNL d   1      33.152  22.369 -19.929  0.00  0.00     0.006 A 
ENDBRANCH   2   4
ENDBRANCH   1   2
BRANCH   1  12
ATOM     12  C   UNL d   1      32.722  21.285 -22.083  0.00  0.00     0.003 C 
BRANCH  12  13
ATOM     13  C   UNL d   1      32.846  20.479 -22.184  0.00  0.00     0.002 A 
ATOM     14  C   UNL d   1      32.707  20.130 -22.920  0.00  0.00     0.027 A 
ATOM     15  C   UNL d   1      32.831  19.325 -23.021  0.00  0.00     0.123 A 
ATOM     16  O   UNL d   1      32.692  18.971 -23.761  0.00  0.00    -0.301 OA
ATOM     17  C   UNL d   1      33.095  18.864 -22.390  0.00  0.00     0.123 A 
ATOM     18  C   UNL d   1      32.816  18.161 -23.865  0.00  0.00     0.149 A 
ATOM     19  C   UNL d   1      33.080  17.700 -23.234  0.00  0.00     0.149 A 
ATOM     20  O   UNL d   1      33.219  18.049 -22.499  0.00  0.00    -0.301 OA
ATOM     21  C   UNL d   1      33.234  19.208 -21.658  0.00  0.00     0.027 A 
ATOM     22  C   UNL d   1      33.110  20.018 -21.553  0.00  0.00     0.002 A 
ENDBRANCH  12  13
ENDBRANCH   1  12
TORSDOF 4
ENDMDL
