MODEL 1
REMARK VINA RESULT:      -9.0      0.000      0.000
REMARK  2 active torsions:
REMARK  status: ('A' for Active; 'I' for Inactive)
REMARK    1  A    between atoms: C_10  and  N_3 
REMARK    2  A    between atoms: C_11  and  C_4 
ROOT
ATOM      1  C   UNL d   1     -48.676  12.933  22.279  0.00  0.00     0.152 A 
ATOM      2  C   UNL d   1     -49.241  13.523  22.337  0.00  0.00     0.065 A 
ATOM      3  N   UNL d   1     -48.229  12.938  22.975  0.00  0.00    -0.290 N 
ATOM      4  C   UNL d   1     -49.149  13.898  23.068  0.00  0.00     0.023 A 
ATOM      5  C   UNL d   1     -48.525  13.535  23.458  0.00  0.00     0.082 A 
ATOM      6  N   UNL d   1     -48.632  12.462  21.604  0.00  0.00    -0.206 NA
ATOM      7  C   UNL d   1     -49.773  13.652  21.719  0.00  0.00     0.143 A 
ATOM      8  N   UNL d   1     -49.730  13.180  21.043  0.00  0.00    -0.212 NA
ATOM      9  C   UNL d   1     -49.165  12.590  20.986  0.00  0.00     0.201 A 
ATOM     10 CL   UNL d   1     -50.338  14.242  21.777  0.00  0.00    -0.061 Cl
ENDROOT
BRANCH   3  11
ATOM     11  C   UNL d   1     -47.603  12.460  23.186  0.00  0.00     0.065 A 
ATOM     12  C   UNL d   1     -47.743  11.702  23.481  0.00  0.00     0.018 A 
ATOM     13  C   UNL d   1     -47.110  11.217  23.695  0.00  0.00     0.002 A 
ATOM     14  C   UNL d   1     -46.326  11.491  23.614  0.00  0.00     0.000 A 
ATOM     15  C   UNL d   1     -46.195  12.251  23.317  0.00  0.00     0.002 A 
ATOM     16  C   UNL d   1     -46.830  12.732  23.105  0.00  0.00     0.018 A 
ENDBRANCH   3  11
BRANCH   4  17
ATOM     17  C   UNL d   1     -49.666  14.516  23.244  0.00  0.00     0.002 A 
ATOM     18  C   UNL d   1     -49.425  15.300  23.142  0.00  0.00     0.000 A 
ATOM     19  C   UNL d   1     -49.943  15.919  23.318  0.00  0.00     0.000 A 
ATOM     20  C   UNL d   1     -50.700  15.753  23.596  0.00  0.00     0.000 A 
ATOM     21  C   UNL d   1     -50.940  14.968  23.697  0.00  0.00     0.000 A 
ATOM     22  C   UNL d   1     -50.426  14.353  23.523  0.00  0.00     0.000 A 
ENDBRANCH   4  17
TORSDOF 2
ENDMDL
MODEL 2
REMARK VINA RESULT:      -8.8      1.480      3.812
REMARK  2 active torsions:
REMARK  status: ('A' for Active; 'I' for Inactive)
REMARK    1  A    between atoms: C_10  and  N_3 
REMARK    2  A    between atoms: C_11  and  C_4 
ROOT
ATOM      1  C   UNL d   1     -49.159  13.129  23.250  0.00  0.00     0.152 A 
ATOM      2  C   UNL d   1     -48.397  12.849  23.137  0.00  0.00     0.065 A 
ATOM      3  N   UNL d   1     -49.172  13.929  23.043  0.00  0.00    -0.290 N 
ATOM      4  C   UNL d   1     -47.933  13.475  22.860  0.00  0.00     0.023 A 
ATOM      5  C   UNL d   1     -48.412  14.137  22.804  0.00  0.00     0.082 A 
ATOM      6  N   UNL d   1     -49.751  12.625  23.527  0.00  0.00    -0.206 NA
ATOM      7  C   UNL d   1     -48.214  12.061  23.299  0.00  0.00     0.143 A 
ATOM      8  N   UNL d   1     -48.807  11.557  23.576  0.00  0.00    -0.212 NA
ATOM      9  C   UNL d   1     -49.568  11.836  23.689  0.00  0.00     0.201 A 
ATOM     10 CL   UNL d   1     -47.452  11.782  23.186  0.00  0.00    -0.061 Cl
ENDROOT
BRANCH   3  11
ATOM     11  C   UNL d   1     -49.796  14.453  23.059  0.00  0.00     0.065 A 
ATOM     12  C   UNL d   1     -50.355  14.446  22.453  0.00  0.00     0.018 A 
ATOM     13  C   UNL d   1     -50.988  14.977  22.467  0.00  0.00     0.002 A 
ATOM     14  C   UNL d   1     -51.064  15.522  23.095  0.00  0.00     0.000 A 
ATOM     15  C   UNL d   1     -50.499  15.521  23.698  0.00  0.00     0.002 A 
ATOM     16  C   UNL d   1     -49.869  14.990  23.679  0.00  0.00     0.018 A 
ENDBRANCH   3  11
BRANCH   4  17
ATOM     17  C   UNL d   1     -47.137  13.315  22.708  0.00  0.00     0.002 A 
ATOM     18  C   UNL d   1     -46.576  13.393  23.309  0.00  0.00     0.000 A 
ATOM     19  C   UNL d   1     -45.780  13.234  23.157  0.00  0.00     0.000 A 
ATOM     20  C   UNL d   1     -45.547  12.997  22.404  0.00  0.00     0.000 A 
ATOM     21  C   UNL d   1     -46.109  12.920  21.802  0.00  0.00     0.000 A 
ATOM     22  C   UNL d   1     -46.900  13.078  21.953  0.00  0.00     0.000 A 
ENDBRANCH   4  17
TORSDOF 2
ENDMDL
MODEL 3
REMARK VINA RESULT:      -7.6      1.669      3.658
REMARK  2 active torsions:
REMARK  status: ('A' for Active; 'I' for Inactive)
REMARK    1  A    between atoms: C_10  and  N_3 
REMARK    2  A    between atoms: C_11  and  C_4 
ROOT
ATOM      1  C   UNL d   1     -48.598  13.957  22.723  0.00  0.00     0.152 A 
ATOM      2  C   UNL d   1     -47.786  13.995  22.623  0.00  0.00     0.065 A 
ATOM      3  N   UNL d   1     -48.814  13.160  22.767  0.00  0.00    -0.290 N 
ATOM      4  C   UNL d   1     -47.493  13.222  22.606  0.00  0.00     0.023 A 
ATOM      5  C   UNL d   1     -48.128  12.712  22.694  0.00  0.00     0.082 A 
ATOM      6  N   UNL d   1     -49.047  14.648  22.762  0.00  0.00    -0.206 NA
ATOM      7  C   UNL d   1     -47.408  14.725  22.561  0.00  0.00     0.143 A 
ATOM      8  N   UNL d   1     -47.856  15.418  22.599  0.00  0.00    -0.212 NA
ATOM      9  C   UNL d   1     -48.668  15.380  22.699  0.00  0.00     0.201 A 
ATOM     10 CL   UNL d   1     -46.596  14.764  22.461  0.00  0.00    -0.061 Cl
ENDROOT
BRANCH   3  11
ATOM     11  C   UNL d   1     -49.555  12.834  22.865  0.00  0.00     0.065 A 
ATOM     12  C   UNL d   1     -49.779  12.531  23.598  0.00  0.00     0.018 A 
ATOM     13  C   UNL d   1     -50.530  12.200  23.698  0.00  0.00     0.002 A 
ATOM     14  C   UNL d   1     -51.063  12.171  23.056  0.00  0.00     0.000 A 
ATOM     15  C   UNL d   1     -50.829  12.477  22.326  0.00  0.00     0.002 A 
ATOM     16  C   UNL d   1     -50.080  12.806  22.230  0.00  0.00     0.018 A 
ENDBRANCH   3  11
BRANCH   4  17
ATOM     17  C   UNL d   1     -46.678  13.129  22.509  0.00  0.00     0.002 A 
ATOM     18  C   UNL d   1     -46.189  13.041  23.169  0.00  0.00     0.000 A 
ATOM     19  C   UNL d   1     -45.375  12.949  23.072  0.00  0.00     0.000 A 
ATOM     20  C   UNL d   1     -45.050  12.944  22.316  0.00  0.00     0.000 A 
ATOM     21  C   UNL d   1     -45.540  13.032  21.655  0.00  0.00     0.000 A 
ATOM     22  C   UNL d   1     -46.350  13.124  21.751  0.00  0.00     0.000 A 
ENDBRANCH   4  17
TORSDOF 2
ENDMDL
MODEL 4
REMARK VINA RESULT:      -7.6      1.404      2.242
REMARK  2 active torsions:
REMARK  status: ('A' for Active; 'I' for Inactive)
REMARK    1  A    between atoms: C_10  and  N_3 
REMARK    2  A    between atoms: C_11  and  C_4 
ROOT
ATOM      1  C   UNL d   1     -47.812  13.946  22.634  0.00  0.00     0.152 A 
ATOM      2  C   UNL d   1     -48.616  13.810  22.718  0.00  0.00     0.065 A 
ATOM      3  N   UNL d   1     -47.427  13.215  22.631  0.00  0.00    -0.290 N 
ATOM      4  C   UNL d   1     -48.734  12.993  22.769  0.00  0.00     0.023 A 
ATOM      5  C   UNL d   1     -48.001  12.631  22.715  0.00  0.00     0.082 A 
ATOM      6  N   UNL d   1     -47.524  14.717  22.570  0.00  0.00    -0.206 NA
ATOM      7  C   UNL d   1     -49.146  14.442  22.740  0.00  0.00     0.143 A 
ATOM      8  N   UNL d   1     -48.858  15.214  22.676  0.00  0.00    -0.212 NA
ATOM      9  C   UNL d   1     -48.054  15.350  22.591  0.00  0.00     0.201 A 
ATOM     10 CL   UNL d   1     -49.949  14.306  22.824  0.00  0.00    -0.061 Cl
ENDROOT
BRANCH   3  11
ATOM     11  C   UNL d   1     -46.631  13.054  22.562  0.00  0.00     0.065 A 
ATOM     12  C   UNL d   1     -46.221  13.286  21.885  0.00  0.00     0.018 A 
ATOM     13  C   UNL d   1     -45.414  13.124  21.814  0.00  0.00     0.002 A 
ATOM     14  C   UNL d   1     -45.011  12.725  22.426  0.00  0.00     0.000 A 
ATOM     15  C   UNL d   1     -45.431  12.496  23.100  0.00  0.00     0.002 A 
ATOM     16  C   UNL d   1     -46.235  12.660  23.167  0.00  0.00     0.018 A 
ENDBRANCH   3  11
BRANCH   4  17
ATOM     17  C   UNL d   1     -49.511  12.729  22.856  0.00  0.00     0.002 A 
ATOM     18  C   UNL d   1     -49.979  12.587  22.190  0.00  0.00     0.000 A 
ATOM     19  C   UNL d   1     -50.756  12.323  22.278  0.00  0.00     0.000 A 
ATOM     20  C   UNL d   1     -51.064  12.201  23.031  0.00  0.00     0.000 A 
ATOM     21  C   UNL d   1     -50.596  12.344  23.698  0.00  0.00     0.000 A 
ATOM     22  C   UNL d   1     -49.824  12.606  23.611  0.00  0.00     0.000 A 
ENDBRANCH   4  17
TORSDOF 2
ENDMDL
MODEL 5
REMARK VINA RESULT:      -6.5      9.075     10.523
REMARK  2 active torsions:
REMARK  status: ('A' for Active; 'I' for Inactive)
REMARK    1  A    between atoms: C_10  and  N_3 
REMARK    2  A    between atoms: C_11  and  C_4 
ROOT
ATOM      1  C   UNL d   1     -39.888  14.924  17.757  0.00  0.00     0.152 A 
ATOM      2  C   UNL d   1     -40.103  15.175  18.506  0.00  0.00     0.065 A 
ATOM      3  N   UNL d   1     -39.221  14.440  17.830  0.00  0.00    -0.290 N 
ATOM      4  C   UNL d   1     -39.571  14.849  19.049  0.00  0.00     0.023 A 
ATOM      5  C   UNL d   1     -39.031  14.398  18.630  0.00  0.00     0.082 A 
ATOM      6  N   UNL d   1     -40.321  15.163  17.097  0.00  0.00    -0.206 NA
ATOM      7  C   UNL d   1     -40.755  15.670  18.609  0.00  0.00     0.143 A 
ATOM      8  N   UNL d   1     -41.189  15.910  17.948  0.00  0.00    -0.212 NA
ATOM      9  C   UNL d   1     -40.974  15.658  17.199  0.00  0.00     0.201 A 
ATOM     10 CL   UNL d   1     -40.970  15.922  19.358  0.00  0.00    -0.061 Cl
ENDROOT
BRANCH   3  11
ATOM     11  C   UNL d   1     -38.800  14.056  17.248  0.00  0.00     0.065 A 
ATOM     12  C   UNL d   1     -38.773  13.232  17.232  0.00  0.00     0.018 A 
ATOM     13  C   UNL d   1     -38.346  12.842  16.642  0.00  0.00     0.002 A 
ATOM     14  C   UNL d   1     -37.940  13.281  16.060  0.00  0.00     0.000 A 
ATOM     15  C   UNL d   1     -37.973  14.106  16.083  0.00  0.00     0.002 A 
ATOM     16  C   UNL d   1     -38.400  14.491  16.673  0.00  0.00     0.018 A 
ENDBRANCH   3  11
BRANCH   4  17
ATOM     17  C   UNL d   1     -39.685  15.032  19.846  0.00  0.00     0.002 A 
ATOM     18  C   UNL d   1     -39.293  15.676  20.184  0.00  0.00     0.000 A 
ATOM     19  C   UNL d   1     -39.407  15.859  20.981  0.00  0.00     0.000 A 
ATOM     20  C   UNL d   1     -39.913  15.398  21.439  0.00  0.00     0.000 A 
ATOM     21  C   UNL d   1     -40.304  14.753  21.100  0.00  0.00     0.000 A 
ATOM     22  C   UNL d   1     -40.191  14.571  20.308  0.00  0.00     0.000 A 
ENDBRANCH   4  17
TORSDOF 2
ENDMDL
MODEL 6
REMARK VINA RESULT:      -6.3      8.585     10.067
REMARK  2 active torsions:
REMARK  status: ('A' for Active; 'I' for Inactive)
REMARK    1  A    between atoms: C_10  and  N_3 
REMARK    2  A    between atoms: C_11  and  C_4 
ROOT
ATOM      1  C   UNL d   1     -40.055  15.056  20.604  0.00  0.00     0.152 A 
ATOM      2  C   UNL d   1     -40.110  15.101  19.789  0.00  0.00     0.065 A 
ATOM      3  N   UNL d   1     -39.399  14.589  20.793  0.00  0.00    -0.290 N 
ATOM      4  C   UNL d   1     -39.488  14.662  19.465  0.00  0.00     0.023 A 
ATOM      5  C   UNL d   1     -39.053  14.349  20.085  0.00  0.00     0.082 A 
ATOM      6  N   UNL d   1     -40.605  15.443  21.082  0.00  0.00    -0.206 NA
ATOM      7  C   UNL d   1     -40.716  15.534  19.435  0.00  0.00     0.143 A 
ATOM      8  N   UNL d   1     -41.268  15.922  19.912  0.00  0.00    -0.212 NA
ATOM      9  C   UNL d   1     -41.213  15.877  20.728  0.00  0.00     0.201 A 
ATOM     10 CL   UNL d   1     -40.771  15.579  18.619  0.00  0.00    -0.061 Cl
ENDROOT
BRANCH   3  11
ATOM     11  C   UNL d   1     -39.111  14.379  21.525  0.00  0.00     0.065 A 
ATOM     12  C   UNL d   1     -39.366  13.683  21.885  0.00  0.00     0.018 A 
ATOM     13  C   UNL d   1     -39.075  13.469  22.628  0.00  0.00     0.002 A 
ATOM     14  C   UNL d   1     -38.522  13.958  23.018  0.00  0.00     0.000 A 
ATOM     15  C   UNL d   1     -38.272  14.654  22.650  0.00  0.00     0.002 A 
ATOM     16  C   UNL d   1     -38.565  14.863  21.908  0.00  0.00     0.018 A 
ENDBRANCH   3  11
BRANCH   4  17
ATOM     17  C   UNL d   1     -39.436  14.631  18.641  0.00  0.00     0.002 A 
ATOM     18  C   UNL d   1     -39.821  14.031  18.223  0.00  0.00     0.000 A 
ATOM     19  C   UNL d   1     -39.769  14.000  17.400  0.00  0.00     0.000 A 
ATOM     20  C   UNL d   1     -39.333  14.570  16.996  0.00  0.00     0.000 A 
ATOM     21  C   UNL d   1     -38.949  15.170  17.415  0.00  0.00     0.000 A 
ATOM     22  C   UNL d   1     -39.000  15.201  18.233  0.00  0.00     0.000 A 
ENDBRANCH   4  17
TORSDOF 2
ENDMDL
MODEL 7
REMARK VINA RESULT:      -6.2      9.776     10.523
REMARK  2 active torsions:
REMARK  status: ('A' for Active; 'I' for Inactive)
REMARK    1  A    between atoms: C_10  and  N_3 
REMARK    2  A    between atoms: C_11  and  C_4 
ROOT
ATOM      1  C   UNL d   1     -38.976  14.396  19.406  0.00  0.00     0.152 A 
ATOM      2  C   UNL d   1     -39.282  14.458  18.648  0.00  0.00     0.065 A 
ATOM      3  N   UNL d   1     -39.270  15.025  19.855  0.00  0.00    -0.290 N 
ATOM      4  C   UNL d   1     -39.768  15.127  18.622  0.00  0.00     0.023 A 
ATOM      5  C   UNL d   1     -39.759  15.472  19.365  0.00  0.00     0.082 A 
ATOM      6  N   UNL d   1     -38.466  13.776  19.599  0.00  0.00    -0.206 NA
ATOM      7  C   UNL d   1     -39.084  13.903  18.071  0.00  0.00     0.143 A 
ATOM      8  N   UNL d   1     -38.574  13.283  18.265  0.00  0.00    -0.212 NA
ATOM      9  C   UNL d   1     -38.268  13.220  19.022  0.00  0.00     0.201 A 
ATOM     10 CL   UNL d   1     -39.390  13.966  17.314  0.00  0.00    -0.061 Cl
ENDROOT
BRANCH   3  11
ATOM     11  C   UNL d   1     -39.130  15.207  20.636  0.00  0.00     0.065 A 
ATOM     12  C   UNL d   1     -39.590  14.863  21.229  0.00  0.00     0.018 A 
ATOM     13  C   UNL d   1     -39.449  15.047  22.022  0.00  0.00     0.002 A 
ATOM     14  C   UNL d   1     -38.841  15.581  22.226  0.00  0.00     0.000 A 
ATOM     15  C   UNL d   1     -38.385  15.920  21.626  0.00  0.00     0.002 A 
ATOM     16  C   UNL d   1     -38.529  15.734  20.836  0.00  0.00     0.018 A 
ENDBRANCH   3  11
BRANCH   4  17
ATOM     17  C   UNL d   1     -40.138  15.297  17.904  0.00  0.00     0.002 A 
ATOM     18  C   UNL d   1     -40.899  15.012  17.751  0.00  0.00     0.000 A 
ATOM     19  C   UNL d   1     -41.268  15.183  17.033  0.00  0.00     0.000 A 
ATOM     20  C   UNL d   1     -40.877  15.637  16.469  0.00  0.00     0.000 A 
ATOM     21  C   UNL d   1     -40.116  15.922  16.623  0.00  0.00     0.000 A 
ATOM     22  C   UNL d   1     -39.748  15.753  17.336  0.00  0.00     0.000 A 
ENDBRANCH   4  17
TORSDOF 2
ENDMDL
