MODEL 1
REMARK VINA RESULT:      16.7      0.000      0.000
REMARK  4 active torsions:
REMARK  status: ('A' for Active; 'I' for Inactive)
REMARK    1  A    between atoms: C_7  and  C_3 
REMARK    2  A    between atoms: S_6  and  C_7 
REMARK    3  A    between atoms: C_9  and  S_6 
REMARK    4  A    between atoms: C_8  and  C_9 
ROOT
ATOM      1  N   UNL d   1     -57.498 -98.757 -44.902  0.00  0.00    -0.225 NA
ATOM      2  N   UNL d   1     -57.397 -98.756 -43.545  0.00  0.00    -0.225 NA
ATOM      3  C   UNL d   1     -56.958 -98.757 -44.259  0.00  0.00     0.169 A 
ATOM      4  C   UNL d   1     -58.267 -98.756 -44.575  0.00  0.00     0.101 A 
ATOM      5  C   UNL d   1     -58.213 -98.756 -43.742  0.00  0.00     0.101 A 
ATOM      6  C   UNL d   1     -59.019 -98.756 -44.940  0.00  0.00     0.021 A 
ATOM      7  C   UNL d   1     -58.911 -98.755 -43.291  0.00  0.00     0.021 A 
ATOM      8  C   UNL d   1     -59.643 -98.755 -43.657  0.00  0.00     0.002 A 
ATOM      9  C   UNL d   1     -59.696 -98.755 -44.482  0.00  0.00     0.002 A 
ENDROOT
BRANCH   3  10
ATOM     10  C   UNL d   1     -56.272 -98.757 -44.718  0.00  0.00     0.074 C 
BRANCH  10  11
ATOM     11  S   UNL d   1     -55.558 -99.007 -44.389  0.00  0.00    -0.083 SA
BRANCH  11  12
ATOM     12  C   UNL d   1     -55.103 -99.574 -44.778  0.00  0.00     0.035 C 
BRANCH  12  13
ATOM     13  C   UNL d   1     -54.984-100.314 -44.433  0.00  0.00     0.006 A 
ATOM     14  C   UNL d   1     -55.018-100.993 -44.904  0.00  0.00     0.001 A 
ATOM     15  C   UNL d   1     -54.900-101.733 -44.559  0.00  0.00     0.000 A 
ATOM     16  C   UNL d   1     -54.749-101.790 -43.750  0.00  0.00     0.000 A 
ATOM     17  C   UNL d   1     -54.717-101.106 -43.285  0.00  0.00     0.000 A 
ATOM     18  C   UNL d   1     -54.835-100.366 -43.631  0.00  0.00     0.001 A 
ENDBRANCH  12  13
ENDBRANCH  11  12
ENDBRANCH  10  11
ENDBRANCH   3  10
TORSDOF 4
ENDMDL
