MODEL 1
REMARK VINA RESULT:      75.3      0.000      0.000
REMARK  7 active torsions:
REMARK  status: ('A' for Active; 'I' for Inactive)
REMARK    1  A    between atoms: C_7  and  C_1 
REMARK    2  A    between atoms: C_9  and  N_2 
REMARK    3  A    between atoms: C_15  and  C_7 
REMARK    4  A    between atoms: C_8  and  C_9 
REMARK       I    between atoms: N_14  and  C_8 
REMARK    5  A    between atoms: C_20  and  N_14 
REMARK    6  A    between atoms: C_33  and  C_27 
REMARK    7  A    between atoms: C_34  and  C_32 
ROOT
ATOM      1  C   UNL d   1      45.532 -16.697  43.796  0.00  0.00     0.095 A 
ATOM      2  N   UNL d   1      46.192 -17.298  42.675  0.00  0.00    -0.300 N 
ATOM      3  C   UNL d   1      45.581 -17.444  44.205  0.00  0.00     0.202 A 
ATOM      4  C   UNL d   1      45.834 -16.625  43.038  0.00  0.00     0.087 A 
ATOM      5  C   UNL d   1      45.938 -18.092  43.825  0.00  0.00     0.055 A 
ATOM      6  C   UNL d   1      46.244 -18.031  43.068  0.00  0.00     0.067 A 
ATOM      7  C   UNL d   1      46.595 -18.694  42.713  0.00  0.00     0.018 A 
ATOM      8  C   UNL d   1      45.994 -18.837  44.219  0.00  0.00     0.005 A 
ATOM      9  O   UNL d   1      45.282 -17.515  44.954  0.00  0.00    -0.286 OA
ATOM     10  C   UNL d   1      46.345 -19.486  43.855  0.00  0.00     0.000 A 
ATOM     11  C   UNL d   1      46.646 -19.415  43.101  0.00  0.00     0.002 A 
ENDROOT
BRANCH   2  12
ATOM     12  C   UNL d   1      46.493 -17.227  41.922  0.00  0.00     0.144 C 
BRANCH  12  13
ATOM     13  C   UNL d   1      45.988 -17.259  41.271  0.00  0.00     0.297 C 
ATOM     14  N   UNL d   1      46.283 -17.140  40.516  0.00  0.00    -0.207 NA
ATOM     15  O   UNL d   1      45.184 -17.410  41.380  0.00  0.00    -0.264 OA
BRANCH  14  16
ATOM     16  C   UNL d   1      45.778 -17.172  39.865  0.00  0.00     0.087 A 
ATOM     17  C   UNL d   1      45.849 -16.615  39.275  0.00  0.00     0.045 A 
ATOM     18  C   UNL d   1      45.347 -16.644  38.624  0.00  0.00     0.121 A 
ATOM     19  O   UNL d   1      45.297 -16.154  37.949  0.00  0.00    -0.299 OA
ATOM     20  C   UNL d   1      44.774 -17.238  38.573  0.00  0.00     0.119 A 
ATOM     21  C   UNL d   1      44.680 -16.448  37.469  0.00  0.00     0.304 A 
ATOM     22  O   UNL d   1      44.355 -17.121  37.855  0.00  0.00    -0.300 OA
ATOM     23  C   UNL d   1      44.703 -17.795  39.163  0.00  0.00     0.028 A 
ATOM     24  C   UNL d   1      45.208 -17.763  39.815  0.00  0.00     0.021 A 
ENDBRANCH  14  16
ENDBRANCH  12  13
ENDBRANCH   2  12
BRANCH   1  25
ATOM     25  C   UNL d   1      45.181 -16.048  44.160  0.00  0.00     0.200 C 
ATOM     26  O   UNL d   1      44.538 -16.157  44.654  0.00  0.00    -0.286 OA
BRANCH  25  27
ATOM     27  C   UNL d   1      45.472 -15.289  44.029  0.00  0.00     0.039 A 
ATOM     28  C   UNL d   1      45.287 -14.875  43.329  0.00  0.00     0.003 A 
ATOM     29  C   UNL d   1      45.579 -14.107  43.192  0.00  0.00     0.000 A 
ATOM     30  C   UNL d   1      46.058 -13.752  43.754  0.00  0.00     0.000 A 
ATOM     31  C   UNL d   1      46.237 -14.181  44.454  0.00  0.00     0.000 A 
ATOM     32  C   UNL d   1      45.948 -14.946  44.595  0.00  0.00     0.003 A 
BRANCH  30  33
ATOM     33  C   UNL d   1      46.350 -12.983  43.616  0.00  0.00     0.000 C 
ATOM     34  C   UNL d   1      45.829 -12.409  43.367  0.00  0.00     0.000 C 
ENDBRANCH  30  33
ENDBRANCH  25  27
ENDBRANCH   1  25
BRANCH  10  35
ATOM     35  C   UNL d   1      46.389 -20.209  44.259  0.00  0.00     0.000 C 
ATOM     36  C   UNL d   1      45.928 -20.330  44.945  0.00  0.00     0.000 C 
ENDBRANCH  10  35
TORSDOF 7
ENDMDL
