MODEL 1
REMARK VINA RESULT:      -7.0      0.000      0.000
REMARK  3 active torsions:
REMARK  status: ('A' for Active; 'I' for Inactive)
REMARK    1  A    between atoms: N_5  and  C_2 
REMARK    2  A    between atoms: C_9  and  C_3 
REMARK       I    between atoms: C_7  and  N_5 
REMARK    3  A    between atoms: C_8  and  C_7 
ROOT
ATOM      1  N   UNL d   1     -48.465  13.943  22.641  0.00  0.00    -0.200 NA
ATOM      2  C   UNL d   1     -48.050  13.245  22.731  0.00  0.00     0.216 A 
ATOM      3  C   UNL d   1     -49.188  13.867  23.033  0.00  0.00     0.172 A 
ATOM      4  N   UNL d   1     -49.214  13.113  23.366  0.00  0.00    -0.187 NA
ATOM      5  S   UNL d   1     -48.507  12.721  23.181  0.00  0.00     0.054 SA
ENDROOT
BRANCH   2   6
ATOM      6  N   UNL d   1     -47.301  13.084  22.426  0.00  0.00    -0.181 NA
ATOM      7  C   UNL d   1     -46.644  13.152  22.910  0.00  0.00     0.281 C 
ATOM      8  O   UNL d   1     -46.730  13.378  23.698  0.00  0.00    -0.265 OA
BRANCH   7   9
ATOM      9  C   UNL d   1     -45.894  12.991  22.605  0.00  0.00     0.058 A 
ATOM     10  C   UNL d   1     -45.495  12.308  22.833  0.00  0.00     0.006 A 
ATOM     11  C   UNL d   1     -44.745  12.148  22.527  0.00  0.00     0.012 A 
ATOM     12  C   UNL d   1     -44.395  12.670  21.995  0.00  0.00     0.058 A 
ATOM     13  C   UNL d   1     -44.796  13.353  21.768  0.00  0.00     0.012 A 
ATOM     14 CL   UNL d   1     -43.646  12.510  21.690  0.00  0.00    -0.082 Cl
ATOM     15  C   UNL d   1     -45.546  13.513  22.073  0.00  0.00     0.006 A 
ENDBRANCH   7   9
ENDBRANCH   2   6
BRANCH   3  16
ATOM     16  C   UNL d   1     -49.776  14.435  23.084  0.00  0.00     0.036 A 
ATOM     17  C   UNL d   1     -50.466  14.351  22.641  0.00  0.00     0.003 A 
ATOM     18  C   UNL d   1     -51.064  14.929  22.693  0.00  0.00     0.000 A 
ATOM     19  C   UNL d   1     -50.964  15.588  23.190  0.00  0.00     0.000 A 
ATOM     20  C   UNL d   1     -50.267  15.664  23.632  0.00  0.00     0.000 A 
ATOM     21  C   UNL d   1     -49.676  15.093  23.580  0.00  0.00     0.003 A 
ENDBRANCH   3  16
TORSDOF 3
ENDMDL
MODEL 2
REMARK VINA RESULT:      -6.9      1.987      5.087
REMARK  3 active torsions:
REMARK  status: ('A' for Active; 'I' for Inactive)
REMARK    1  A    between atoms: N_5  and  C_2 
REMARK    2  A    between atoms: C_9  and  C_3 
REMARK       I    between atoms: C_7  and  N_5 
REMARK    3  A    between atoms: C_8  and  C_7 
ROOT
ATOM      1  N   UNL d   1     -45.941  13.405  22.628  0.00  0.00    -0.200 NA
ATOM      2  C   UNL d   1     -46.598  13.261  23.093  0.00  0.00     0.216 A 
ATOM      3  C   UNL d   1     -45.440  12.750  22.677  0.00  0.00     0.172 A 
ATOM      4  N   UNL d   1     -45.797  12.200  23.178  0.00  0.00    -0.187 NA
ATOM      5  S   UNL d   1     -46.519  12.513  23.440  0.00  0.00     0.054 SA
ENDROOT
BRANCH   2   6
ATOM      6  N   UNL d   1     -47.236  13.772  23.200  0.00  0.00    -0.181 NA
ATOM      7  C   UNL d   1     -47.897  13.702  22.721  0.00  0.00     0.281 C 
ATOM      8  O   UNL d   1     -47.926  13.123  22.135  0.00  0.00    -0.265 OA
BRANCH   7   9
ATOM      9  C   UNL d   1     -48.535  14.213  22.829  0.00  0.00     0.058 A 
ATOM     10  C   UNL d   1     -48.489  14.991  22.560  0.00  0.00     0.006 A 
ATOM     11  C   UNL d   1     -49.127  15.502  22.668  0.00  0.00     0.012 A 
ATOM     12  C   UNL d   1     -49.811  15.237  23.044  0.00  0.00     0.058 A 
ATOM     13  C   UNL d   1     -49.855  14.460  23.312  0.00  0.00     0.012 A 
ATOM     14 CL   UNL d   1     -50.449  15.749  23.151  0.00  0.00    -0.082 Cl
ATOM     15  C   UNL d   1     -49.217  13.948  23.204  0.00  0.00     0.006 A 
ENDBRANCH   7   9
ENDBRANCH   2   6
BRANCH   3  16
ATOM     16  C   UNL d   1     -44.720  12.658  22.300  0.00  0.00     0.036 A 
ATOM     17  C   UNL d   1     -44.214  12.047  22.525  0.00  0.00     0.003 A 
ATOM     18  C   UNL d   1     -43.481  11.955  22.140  0.00  0.00     0.000 A 
ATOM     19  C   UNL d   1     -43.261  12.476  21.532  0.00  0.00     0.000 A 
ATOM     20  C   UNL d   1     -43.775  13.087  21.312  0.00  0.00     0.000 A 
ATOM     21  C   UNL d   1     -44.500  13.179  21.692  0.00  0.00     0.003 A 
ENDBRANCH   3  16
TORSDOF 3
ENDMDL
MODEL 3
REMARK VINA RESULT:      -6.2      1.659      2.005
REMARK  3 active torsions:
REMARK  status: ('A' for Active; 'I' for Inactive)
REMARK    1  A    between atoms: N_5  and  C_2 
REMARK    2  A    between atoms: C_9  and  C_3 
REMARK       I    between atoms: C_7  and  N_5 
REMARK    3  A    between atoms: C_8  and  C_7 
ROOT
ATOM      1  N   UNL d   1     -47.951  12.616  22.630  0.00  0.00    -0.200 NA
ATOM      2  C   UNL d   1     -47.266  12.902  22.973  0.00  0.00     0.216 A 
ATOM      3  C   UNL d   1     -48.555  13.164  22.760  0.00  0.00     0.172 A 
ATOM      4  N   UNL d   1     -48.234  13.792  23.188  0.00  0.00    -0.187 NA
ATOM      5  S   UNL d   1     -47.431  13.634  23.323  0.00  0.00     0.054 SA
ENDROOT
BRANCH   2   6
ATOM      6  N   UNL d   1     -46.532  12.527  22.972  0.00  0.00    -0.181 NA
ATOM      7  C   UNL d   1     -46.453  11.791  23.324  0.00  0.00     0.281 C 
ATOM      8  O   UNL d   1     -47.102  11.427  23.676  0.00  0.00    -0.265 OA
BRANCH   7   9
ATOM      9  C   UNL d   1     -45.718  11.416  23.323  0.00  0.00     0.058 A 
ATOM     10  C   UNL d   1     -45.626  10.689  23.698  0.00  0.00     0.006 A 
ATOM     11  C   UNL d   1     -44.892  10.314  23.697  0.00  0.00     0.012 A 
ATOM     12  C   UNL d   1     -44.248  10.666  23.322  0.00  0.00     0.058 A 
ATOM     13  C   UNL d   1     -44.341  11.393  22.948  0.00  0.00     0.012 A 
ATOM     14 CL   UNL d   1     -43.513  10.291  23.322  0.00  0.00    -0.082 Cl
ATOM     15  C   UNL d   1     -45.076  11.769  22.949  0.00  0.00     0.006 A 
ENDBRANCH   7   9
ENDBRANCH   2   6
BRANCH   3  16
ATOM     16  C   UNL d   1     -49.332  13.100  22.512  0.00  0.00     0.036 A 
ATOM     17  C   UNL d   1     -49.936  13.030  23.069  0.00  0.00     0.003 A 
ATOM     18  C   UNL d   1     -50.727  12.965  22.816  0.00  0.00     0.000 A 
ATOM     19  C   UNL d   1     -50.907  12.970  22.005  0.00  0.00     0.000 A 
ATOM     20  C   UNL d   1     -50.293  13.040  21.452  0.00  0.00     0.000 A 
ATOM     21  C   UNL d   1     -49.511  13.105  21.701  0.00  0.00     0.003 A 
ENDBRANCH   3  16
TORSDOF 3
ENDMDL
MODEL 4
REMARK VINA RESULT:      -6.1      8.810      9.515
REMARK  3 active torsions:
REMARK  status: ('A' for Active; 'I' for Inactive)
REMARK    1  A    between atoms: N_5  and  C_2 
REMARK    2  A    between atoms: C_9  and  C_3 
REMARK       I    between atoms: C_7  and  N_5 
REMARK    3  A    between atoms: C_8  and  C_7 
ROOT
ATOM      1  N   UNL d   1     -39.183  14.530  20.656  0.00  0.00    -0.200 NA
ATOM      2  C   UNL d   1     -39.015  14.361  19.874  0.00  0.00     0.216 A 
ATOM      3  C   UNL d   1     -38.724  14.034  21.132  0.00  0.00     0.172 A 
ATOM      4  N   UNL d   1     -38.271  13.558  20.634  0.00  0.00    -0.187 NA
ATOM      5  S   UNL d   1     -38.448  13.757  19.849  0.00  0.00     0.054 SA
ENDROOT
BRANCH   2   6
ATOM      6  N   UNL d   1     -39.351  14.728  19.217  0.00  0.00    -0.181 NA
ATOM      7  C   UNL d   1     -40.060  14.451  18.917  0.00  0.00     0.281 C 
ATOM      8  O   UNL d   1     -40.437  13.808  19.268  0.00  0.00    -0.265 OA
BRANCH   7   9
ATOM      9  C   UNL d   1     -40.397  14.819  18.259  0.00  0.00     0.058 A 
ATOM     10  C   UNL d   1     -40.239  14.535  17.503  0.00  0.00     0.006 A 
ATOM     11  C   UNL d   1     -40.575  14.902  16.845  0.00  0.00     0.012 A 
ATOM     12  C   UNL d   1     -41.069  15.554  16.944  0.00  0.00     0.058 A 
ATOM     13  C   UNL d   1     -41.226  15.837  17.701  0.00  0.00     0.012 A 
ATOM     14 CL   UNL d   1     -41.405  15.922  16.287  0.00  0.00    -0.082 Cl
ATOM     15  C   UNL d   1     -40.890  15.469  18.359  0.00  0.00     0.006 A 
ENDBRANCH   7   9
ENDBRANCH   2   6
BRANCH   3  16
ATOM     16  C   UNL d   1     -38.718  14.016  21.951  0.00  0.00     0.036 A 
ATOM     17  C   UNL d   1     -38.523  14.697  22.374  0.00  0.00     0.003 A 
ATOM     18  C   UNL d   1     -38.517  14.677  23.207  0.00  0.00     0.000 A 
ATOM     19  C   UNL d   1     -38.705  13.975  23.609  0.00  0.00     0.000 A 
ATOM     20  C   UNL d   1     -38.900  13.296  23.176  0.00  0.00     0.000 A 
ATOM     21  C   UNL d   1     -38.906  13.315  22.352  0.00  0.00     0.003 A 
ENDBRANCH   3  16
TORSDOF 3
ENDMDL
