MODEL 1
REMARK VINA RESULT:      -4.9      0.000      0.000
REMARK  2 active torsions:
REMARK  status: ('A' for Active; 'I' for Inactive)
REMARK       I    between atoms: C_3  and  N_1 
REMARK       I    between atoms: C_4  and  N_2 
REMARK    1  A    between atoms: C_5  and  C_3 
REMARK    2  A    between atoms: C_6  and  C_4 
ROOT
ATOM      1  N   UNL d   1     -41.519-122.975 -52.930  0.00  0.00    -0.270 N 
ATOM      2  N   UNL d   1     -41.649-122.768 -51.298  0.00  0.00    -0.269 N 
ATOM      3  C   UNL d   1     -41.454-123.081 -53.736  0.00  0.00     0.271 C 
ATOM      4  C   UNL d   1     -41.708-122.675 -50.491  0.00  0.00     0.271 C 
ATOM      5  C   UNL d   1     -41.848-122.274 -52.626  0.00  0.00     0.085 A 
ATOM      6  C   UNL d   1     -41.907-122.182 -51.819  0.00  0.00     0.101 A 
ATOM      7  C   UNL d   1     -41.253-123.577 -52.429  0.00  0.00     0.102 A 
ATOM      8  C   UNL d   1     -41.320-123.468 -51.603  0.00  0.00     0.102 A 
ATOM      9  O   UNL d   1     -41.123-123.788 -54.039  0.00  0.00    -0.266 OA
ATOM     10  O   UNL d   1     -42.030-121.988 -50.192  0.00  0.00    -0.266 OA
ATOM     11  C   UNL d   1     -42.107-121.688 -53.147  0.00  0.00     0.021 C 
ENDROOT
BRANCH   3  12
ATOM     12  C   UNL d   1     -41.709-122.503 -54.262  0.00  0.00     0.086 A 
ATOM     13  S   UNL d   1     -42.084-121.818 -54.537  0.00  0.00    -0.082 SA
ATOM     14  C   UNL d   1     -41.950-121.763 -55.346  0.00  0.00     0.036 A 
ATOM     15  C   UNL d   1     -41.490-122.417 -55.574  0.00  0.00     0.008 A 
ATOM     16  C   UNL d   1     -41.343-122.874 -54.897  0.00  0.00     0.012 A 
ENDBRANCH   3  12
BRANCH   4  17
ATOM     17  C   UNL d   1     -41.511-123.134 -49.835  0.00  0.00     0.086 A 
ATOM     18  S   UNL d   1     -41.133-123.792 -49.513  0.00  0.00    -0.082 SA
ATOM     19  C   UNL d   1     -41.266-123.781 -48.695  0.00  0.00     0.036 A 
ATOM     20  C   UNL d   1     -41.731-123.106 -48.526  0.00  0.00     0.008 A 
ATOM     21  C   UNL d   1     -41.871-122.723 -49.235  0.00  0.00     0.012 A 
ENDBRANCH   4  17
TORSDOF 2
ENDMDL
MODEL 2
REMARK VINA RESULT:      -3.2      1.044      1.367
REMARK  2 active torsions:
REMARK  status: ('A' for Active; 'I' for Inactive)
REMARK       I    between atoms: C_3  and  N_1 
REMARK       I    between atoms: C_4  and  N_2 
REMARK    1  A    between atoms: C_5  and  C_3 
REMARK    2  A    between atoms: C_6  and  C_4 
ROOT
ATOM      1  N   UNL d   1     -41.733-122.081 -52.769  0.00  0.00    -0.270 N 
ATOM      2  N   UNL d   1     -41.532-122.729 -51.264  0.00  0.00    -0.269 N 
ATOM      3  C   UNL d   1     -41.833-121.758 -53.510  0.00  0.00     0.271 C 
ATOM      4  C   UNL d   1     -41.436-123.040 -50.517  0.00  0.00     0.271 C 
ATOM      5  C   UNL d   1     -41.471-122.866 -52.687  0.00  0.00     0.085 A 
ATOM      6  C   UNL d   1     -41.376-123.176 -51.940  0.00  0.00     0.101 A 
ATOM      7  C   UNL d   1     -41.896-121.613 -52.107  0.00  0.00     0.102 A 
ATOM      8  C   UNL d   1     -41.794-121.944 -51.346  0.00  0.00     0.102 A 
ATOM      9  O   UNL d   1     -42.097-120.966 -53.589  0.00  0.00    -0.266 OA
ATOM     10  O   UNL d   1     -41.180-123.809 -50.436  0.00  0.00    -0.266 OA
ATOM     11  C   UNL d   1     -41.315-123.314 -53.363  0.00  0.00     0.021 C 
ENDROOT
BRANCH   3  12
ATOM     12  C   UNL d   1     -41.680-122.196 -54.189  0.00  0.00     0.086 A 
ATOM     13  S   UNL d   1     -41.379-122.801 -54.668  0.00  0.00    -0.082 SA
ATOM     14  C   UNL d   1     -41.621-122.657 -55.439  0.00  0.00     0.036 A 
ATOM     15  C   UNL d   1     -42.074-121.960 -55.440  0.00  0.00     0.008 A 
ATOM     16  C   UNL d   1     -42.108-121.677 -54.660  0.00  0.00     0.012 A 
ENDBRANCH   3  12
BRANCH   4  17
ATOM     17  C   UNL d   1     -41.540-122.755 -49.750  0.00  0.00     0.086 A 
ATOM     18  S   UNL d   1     -41.425-122.164 -49.187  0.00  0.00    -0.082 SA
ATOM     19  C   UNL d   1     -41.778-122.419 -48.481  0.00  0.00     0.036 A 
ATOM     20  C   UNL d   1     -42.109-123.175 -48.626  0.00  0.00     0.008 A 
ATOM     21  C   UNL d   1     -41.953-123.364 -49.407  0.00  0.00     0.012 A 
ENDBRANCH   4  17
TORSDOF 2
ENDMDL
