MODEL 1
REMARK VINA RESULT:      -6.1      0.000      0.000
REMARK  3 active torsions:
REMARK  status: ('A' for Active; 'I' for Inactive)
REMARK    1  A    between atoms: N_6  and  C_2 
REMARK    2  A    between atoms: C_8  and  C_3 
REMARK       I    between atoms: C_7  and  N_6 
REMARK    3  A    between atoms: C_10  and  C_7 
ROOT
ATOM      1  N   UNL d   1     -41.715-122.899 -52.274  0.00  0.00    -0.200 NA
ATOM      2  C   UNL d   1     -41.493-122.623 -51.534  0.00  0.00     0.216 A 
ATOM      3  C   UNL d   1     -41.485-122.332 -52.838  0.00  0.00     0.172 A 
ATOM      4  N   UNL d   1     -41.123-121.709 -52.435  0.00  0.00    -0.187 NA
ATOM      5  S   UNL d   1     -41.126-121.888 -51.627  0.00  0.00     0.054 SA
ENDROOT
BRANCH   3   6
ATOM      6  C   UNL d   1     -41.601-122.385 -53.650  0.00  0.00     0.036 A 
ATOM      7  C   UNL d   1     -41.184-122.937 -54.090  0.00  0.00     0.003 A 
ATOM      8  C   UNL d   1     -41.306-122.985 -54.907  0.00  0.00     0.000 A 
ATOM      9  C   UNL d   1     -41.844-122.480 -55.275  0.00  0.00     0.000 A 
ATOM     10  C   UNL d   1     -42.264-121.925 -54.832  0.00  0.00     0.000 A 
ATOM     11  C   UNL d   1     -42.138-121.882 -54.015  0.00  0.00     0.003 A 
ENDBRANCH   3   6
BRANCH   2  12
ATOM     12  N   UNL d   1     -41.616-123.014 -50.819  0.00  0.00    -0.181 NA
ATOM     13  C   UNL d   1     -42.210-122.756 -50.310  0.00  0.00     0.281 C 
ATOM     14  O   UNL d   1     -42.680-122.112 -50.513  0.00  0.00    -0.265 OA
BRANCH  13  15
ATOM     15  C   UNL d   1     -42.332-123.143 -49.601  0.00  0.00     0.063 C 
ATOM     16  C   UNL d   1     -42.978-122.951 -49.122  0.00  0.00     0.005 C 
ENDBRANCH  13  15
ENDBRANCH   2  12
TORSDOF 3
ENDMDL
MODEL 2
REMARK VINA RESULT:      -5.7      1.504      3.927
REMARK  3 active torsions:
REMARK  status: ('A' for Active; 'I' for Inactive)
REMARK    1  A    between atoms: N_6  and  C_2 
REMARK    2  A    between atoms: C_8  and  C_3 
REMARK       I    between atoms: C_7  and  N_6 
REMARK    3  A    between atoms: C_10  and  C_7 
ROOT
ATOM      1  N   UNL d   1     -41.278-122.482 -52.794  0.00  0.00    -0.200 NA
ATOM      2  C   UNL d   1     -41.223-122.802 -53.547  0.00  0.00     0.216 A 
ATOM      3  C   UNL d   1     -41.272-123.110 -52.248  0.00  0.00     0.172 A 
ATOM      4  N   UNL d   1     -41.213-123.814 -52.674  0.00  0.00    -0.187 NA
ATOM      5  S   UNL d   1     -41.183-123.626 -53.480  0.00  0.00     0.054 SA
ENDROOT
BRANCH   3   6
ATOM      6  C   UNL d   1     -41.317-123.037 -51.430  0.00  0.00     0.036 A 
ATOM      7  C   UNL d   1     -41.124-123.673 -50.948  0.00  0.00     0.003 A 
ATOM      8  C   UNL d   1     -41.172-123.592 -50.127  0.00  0.00     0.000 A 
ATOM      9  C   UNL d   1     -41.411-122.876 -49.795  0.00  0.00     0.000 A 
ATOM     10  C   UNL d   1     -41.605-122.237 -50.279  0.00  0.00     0.000 A 
ATOM     11  C   UNL d   1     -41.555-122.323 -51.101  0.00  0.00     0.003 A 
ENDBRANCH   3   6
BRANCH   2  12
ATOM     12  N   UNL d   1     -41.211-122.375 -54.252  0.00  0.00    -0.181 NA
ATOM     13  C   UNL d   1     -41.902-122.296 -54.693  0.00  0.00     0.281 C 
ATOM     14  O   UNL d   1     -42.602-122.642 -54.433  0.00  0.00    -0.265 OA
BRANCH  13  15
ATOM     15  C   UNL d   1     -41.890-121.873 -55.392  0.00  0.00     0.063 C 
ATOM     16  C   UNL d   1     -42.534-121.899 -55.910  0.00  0.00     0.005 C 
ENDBRANCH  13  15
ENDBRANCH   2  12
TORSDOF 3
ENDMDL
MODEL 3
REMARK VINA RESULT:      -5.5      1.002      3.947
REMARK  3 active torsions:
REMARK  status: ('A' for Active; 'I' for Inactive)
REMARK    1  A    between atoms: N_6  and  C_2 
REMARK    2  A    between atoms: C_8  and  C_3 
REMARK       I    between atoms: C_7  and  N_6 
REMARK    3  A    between atoms: C_10  and  C_7 
ROOT
ATOM      1  N   UNL d   1     -41.583-123.095 -51.739  0.00  0.00    -0.200 NA
ATOM      2  C   UNL d   1     -41.275-122.598 -52.315  0.00  0.00     0.216 A 
ATOM      3  C   UNL d   1     -41.624-122.666 -51.027  0.00  0.00     0.172 A 
ATOM      4  N   UNL d   1     -41.340-121.906 -51.174  0.00  0.00    -0.187 NA
ATOM      5  S   UNL d   1     -41.123-121.861 -51.972  0.00  0.00     0.054 SA
ENDROOT
BRANCH   3   6
ATOM      6  C   UNL d   1     -41.900-122.952 -50.308  0.00  0.00     0.036 A 
ATOM      7  C   UNL d   1     -41.455-123.494 -49.882  0.00  0.00     0.003 A 
ATOM      8  C   UNL d   1     -41.740-123.778 -49.159  0.00  0.00     0.000 A 
ATOM      9  C   UNL d   1     -42.467-123.517 -48.869  0.00  0.00     0.000 A 
ATOM     10  C   UNL d   1     -42.914-122.972 -49.298  0.00  0.00     0.000 A 
ATOM     11  C   UNL d   1     -42.624-122.692 -50.021  0.00  0.00     0.003 A 
ENDBRANCH   3   6
BRANCH   2  12
ATOM     12  N   UNL d   1     -41.140-122.801 -53.103  0.00  0.00    -0.181 NA
ATOM     13  C   UNL d   1     -41.630-122.496 -53.691  0.00  0.00     0.281 C 
ATOM     14  O   UNL d   1     -42.250-121.992 -53.496  0.00  0.00    -0.265 OA
BRANCH  13  15
ATOM     15  C   UNL d   1     -41.496-122.697 -54.472  0.00  0.00     0.063 C 
ATOM     16  C   UNL d   1     -41.922-122.330 -55.079  0.00  0.00     0.005 C 
ENDBRANCH  13  15
ENDBRANCH   2  12
TORSDOF 3
ENDMDL
