MODEL 1
REMARK VINA RESULT:     100.7      0.000      0.000
REMARK  8 active torsions:
REMARK  status: ('A' for Active; 'I' for Inactive)
REMARK    1  A    between atoms: C_5  and  C_1 
REMARK    2  A    between atoms: N_6  and  C_2 
REMARK    3  A    between atoms: C_7  and  C_5 
REMARK    4  A    between atoms: C_8  and  C_5 
REMARK    5  A    between atoms: O_13  and  C_7 
REMARK    6  A    between atoms: C_21  and  N_12 
REMARK    7  A    between atoms: C_19  and  O_13 
REMARK    8  A    between atoms: C_20  and  C_19 
ROOT
ATOM      1  C   UNL d   1      61.106  47.855  50.224  0.00  0.00     0.122 A 
ATOM      2  C   UNL d   1      60.946  47.575  50.980  0.00  0.00     0.166 A 
ATOM      3  N   UNL d   1      60.948  46.765  51.114  0.00  0.00    -0.225 NA
ATOM      4  N   UNL d   1      61.268  47.330  49.608  0.00  0.00    -0.241 NA
ATOM      5  C   UNL d   1      61.107  46.240  50.511  0.00  0.00     0.101 A 
ATOM      6  C   UNL d   1      61.268  46.525  49.752  0.00  0.00     0.099 A 
ATOM      7  C   UNL d   1      61.428  46.002  49.145  0.00  0.00     0.021 A 
ATOM      8  C   UNL d   1      61.108  45.428  50.653  0.00  0.00     0.021 A 
ATOM      9  C   UNL d   1      61.269  44.903  50.037  0.00  0.00     0.002 A 
ATOM     10  C   UNL d   1      61.429  45.189  49.286  0.00  0.00     0.002 A 
ENDROOT
BRANCH   1  11
ATOM     11  C   UNL d   1      61.108  48.672  50.071  0.00  0.00     0.105 C 
BRANCH  11  12
ATOM     12  C   UNL d   1      60.518  49.017  49.605  0.00  0.00     0.303 C 
ATOM     13  O   UNL d   1      60.689  49.227  48.832  0.00  0.00    -0.259 OA
BRANCH  12  14
ATOM     14  O   UNL d   1      59.778  49.142  49.922  0.00  0.00    -0.271 OA
BRANCH  14  15
ATOM     15  C   UNL d   1      59.184  49.665  50.127  0.00  0.00     0.126 C 
BRANCH  15  16
ATOM     16  C   UNL d   1      58.405  49.501  49.933  0.00  0.00     0.025 A 
ATOM     17  C   UNL d   1      58.157  49.588  49.155  0.00  0.00     0.002 A 
ATOM     18  C   UNL d   1      57.372  49.424  48.956  0.00  0.00     0.000 A 
ATOM     19  C   UNL d   1      56.846  49.175  49.537  0.00  0.00     0.000 A 
ATOM     20  C   UNL d   1      57.106  49.090  50.319  0.00  0.00     0.000 A 
ATOM     21  C   UNL d   1      57.881  49.253  50.511  0.00  0.00     0.002 A 
ENDBRANCH  15  16
ENDBRANCH  14  15
ENDBRANCH  12  14
ENDBRANCH  11  12
BRANCH  11  22
ATOM     22  C   UNL d   1      61.711  49.146  50.391  0.00  0.00     0.129 C 
ATOM     23  N   UNL d   1      62.265  49.703  49.853  0.00  0.00    -0.146 N 
ENDBRANCH  11  22
ENDBRANCH   1  11
BRANCH   2  24
ATOM     24  N   UNL d   1      60.785  48.102  51.589  0.00  0.00    -0.285 N 
ATOM     25  C   UNL d   1      61.128  48.845  51.589  0.00  0.00     0.101 A 
ATOM     26  C   UNL d   1      60.963  49.370  52.203  0.00  0.00     0.100 A 
ATOM     27  N   UNL d   1      60.454  49.145  52.815  0.00  0.00    -0.300 N 
ATOM     28  C   UNL d   1      60.110  48.395  52.811  0.00  0.00     0.100 A 
ATOM     29  C   UNL d   1      60.276  47.877  52.200  0.00  0.00     0.101 A 
BRANCH  27  30
ATOM     30  C   UNL d   1      60.290  49.677  53.433  0.00  0.00     0.080 C 
ATOM     31  C   UNL d   1      59.531  49.694  53.760  0.00  0.00     0.021 C 
ENDBRANCH  27  30
ENDBRANCH   2  24
TORSDOF 8
ENDMDL
