MODEL 1
REMARK VINA RESULT:      -3.4      0.000      0.000
REMARK  3 active torsions:
REMARK  status: ('A' for Active; 'I' for Inactive)
REMARK    1  A    between atoms: C_8  and  C_6 
REMARK    2  A    between atoms: C_9  and  C_8 
REMARK       I    between atoms: N_10  and  C_9 
REMARK    3  A    between atoms: C_14  and  N_10 
ROOT
ATOM      1  N   UNL d   1     -41.557-123.581 -53.351  0.00  0.00    -0.207 NA
ATOM      2  N   UNL d   1     -42.025-122.039 -52.888  0.00  0.00    -0.240 NA
ATOM      3  C   UNL d   1     -41.645-123.232 -52.622  0.00  0.00     0.297 A 
ATOM      4  C   UNL d   1     -41.675-123.268 -54.104  0.00  0.00     0.086 A 
ATOM      5  C   UNL d   1     -42.076-121.946 -53.701  0.00  0.00     0.083 A 
ATOM      6  C   UNL d   1     -41.804-122.710 -52.469  0.00  0.00     0.144 A 
ATOM      7  C   UNL d   1     -41.922-122.495 -54.302  0.00  0.00     0.035 A 
ATOM      8  O   UNL d   1     -41.477-123.714 -51.978  0.00  0.00    -0.264 OA
ATOM      9  C   UNL d   1     -42.008-122.289 -55.097  0.00  0.00     0.003 A 
ATOM     10  C   UNL d   1     -42.320-121.183 -53.897  0.00  0.00     0.019 A 
ATOM     11  C   UNL d   1     -41.520-123.817 -54.701  0.00  0.00     0.019 A 
ATOM     12  C   UNL d   1     -41.609-123.604 -55.494  0.00  0.00     0.002 A 
ATOM     13  C   UNL d   1     -42.409-120.967 -54.702  0.00  0.00     0.002 A 
ATOM     14  C   UNL d   1     -41.853-122.840 -55.689  0.00  0.00     0.000 A 
ATOM     15  C   UNL d   1     -42.254-121.517 -55.294  0.00  0.00     0.000 A 
ENDROOT
BRANCH   6  16
ATOM     16  C   UNL d   1     -41.815-122.601 -51.652  0.00  0.00     0.086 C 
BRANCH  16  17
ATOM     17  C   UNL d   1     -41.549-121.881 -51.333  0.00  0.00     0.281 C 
ATOM     18  N   UNL d   1     -41.703-121.699 -50.541  0.00  0.00    -0.208 NA
ATOM     19  O   UNL d   1     -41.131-121.346 -51.803  0.00  0.00    -0.265 OA
BRANCH  18  20
ATOM     20  C   UNL d   1     -42.120-122.231 -50.067  0.00  0.00     0.085 A 
ATOM     21  C   UNL d   1     -41.715-122.796 -49.626  0.00  0.00     0.019 A 
ATOM     22  C   UNL d   1     -42.134-123.325 -49.153  0.00  0.00     0.002 A 
ATOM     23  C   UNL d   1     -42.957-123.289 -49.122  0.00  0.00     0.000 A 
ATOM     24  C   UNL d   1     -43.362-122.717 -49.568  0.00  0.00     0.002 A 
ATOM     25  C   UNL d   1     -43.368-123.807 -48.659  0.00  0.00     0.000 C 
ATOM     26  C   UNL d   1     -42.939-122.191 -50.039  0.00  0.00     0.019 A 
ENDBRANCH  18  20
ENDBRANCH  16  17
ENDBRANCH   6  16
TORSDOF 3
ENDMDL
MODEL 2
REMARK VINA RESULT:      -1.6      1.065      4.925
REMARK  3 active torsions:
REMARK  status: ('A' for Active; 'I' for Inactive)
REMARK    1  A    between atoms: C_8  and  C_6 
REMARK    2  A    between atoms: C_9  and  C_8 
REMARK       I    between atoms: N_10  and  C_9 
REMARK    3  A    between atoms: C_14  and  N_10 
ROOT
ATOM      1  N   UNL d   1     -43.332-122.197 -49.866  0.00  0.00    -0.207 NA
ATOM      2  N   UNL d   1     -41.803-122.775 -50.238  0.00  0.00    -0.240 NA
ATOM      3  C   UNL d   1     -42.874-122.141 -50.535  0.00  0.00     0.297 A 
ATOM      4  C   UNL d   1     -43.173-122.568 -49.147  0.00  0.00     0.086 A 
ATOM      5  C   UNL d   1     -41.862-123.061 -49.472  0.00  0.00     0.083 A 
ATOM      6  C   UNL d   1     -42.357-122.337 -50.658  0.00  0.00     0.144 A 
ATOM      7  C   UNL d   1     -42.484-122.987 -48.930  0.00  0.00     0.035 A 
ATOM      8  O   UNL d   1     -43.211-121.724 -51.158  0.00  0.00    -0.264 OA
ATOM      9  C   UNL d   1     -42.434-123.320 -48.177  0.00  0.00     0.003 A 
ATOM     10  C   UNL d   1     -41.181-123.475 -49.258  0.00  0.00     0.019 A 
ATOM     11  C   UNL d   1     -43.796-122.491 -48.609  0.00  0.00     0.019 A 
ATOM     12  C   UNL d   1     -43.737-122.828 -47.858  0.00  0.00     0.002 A 
ATOM     13  C   UNL d   1     -41.123-123.816 -48.494  0.00  0.00     0.002 A 
ATOM     14  C   UNL d   1     -43.057-123.241 -47.644  0.00  0.00     0.000 A 
ATOM     15  C   UNL d   1     -41.745-123.738 -47.961  0.00  0.00     0.000 A 
ENDROOT
BRANCH   6  16
ATOM     16  C   UNL d   1     -42.108-122.144 -51.419  0.00  0.00     0.086 C 
BRANCH  16  17
ATOM     17  C   UNL d   1     -41.497-121.589 -51.519  0.00  0.00     0.281 C 
ATOM     18  N   UNL d   1     -41.124-121.514 -52.254  0.00  0.00    -0.208 NA
ATOM     19  O   UNL d   1     -41.259-121.111 -50.889  0.00  0.00    -0.265 OA
BRANCH  18  20
ATOM     20  C   UNL d   1     -41.358-121.990 -52.888  0.00  0.00     0.085 A 
ATOM     21  C   UNL d   1     -41.756-121.657 -53.528  0.00  0.00     0.019 A 
ATOM     22  C   UNL d   1     -41.987-122.133 -54.158  0.00  0.00     0.002 A 
ATOM     23  C   UNL d   1     -41.821-122.940 -54.149  0.00  0.00     0.000 A 
ATOM     24  C   UNL d   1     -41.420-123.272 -53.502  0.00  0.00     0.002 A 
ATOM     25  C   UNL d   1     -42.048-123.408 -54.768  0.00  0.00     0.000 C 
ATOM     26  C   UNL d   1     -41.191-122.793 -52.875  0.00  0.00     0.019 A 
ENDBRANCH  18  20
ENDBRANCH  16  17
ENDBRANCH   6  16
TORSDOF 3
ENDMDL
