MODEL 1
REMARK VINA RESULT:      48.1      0.000      0.000
REMARK  5 active torsions:
REMARK  status: ('A' for Active; 'I' for Inactive)
REMARK    1  A    between atoms: C_7  and  C_1 
REMARK    2  A    between atoms: C_10  and  C_6 
REMARK    3  A    between atoms: O_18  and  C_7 
REMARK    4  A    between atoms: N_8  and  C_10 
REMARK    5  A    between atoms: C_23  and  O_18 
ROOT
ATOM      1  C   UNL d   1      44.174 -13.905  43.831  0.00  0.00     0.081 A 
ATOM      2  C   UNL d   1      44.089 -13.158  43.491  0.00  0.00     0.069 A 
ATOM      3  C   UNL d   1      44.992 -14.036  43.948  0.00  0.00     0.027 A 
ATOM      4  N   UNL d   1      44.834 -12.825  43.396  0.00  0.00    -0.304 N 
ATOM      5  C   UNL d   1      45.399 -13.370  43.680  0.00  0.00     0.065 A 
ATOM      6  C   UNL d   1      45.399 -14.671  44.260  0.00  0.00     0.058 A 
ATOM      7  C   UNL d   1      46.214 -13.335  43.723  0.00  0.00     0.021 A 
ATOM      8  C   UNL d   1      46.221 -14.642  44.306  0.00  0.00     0.197 A 
ATOM      9  C   UNL d   1      46.630 -13.973  44.037  0.00  0.00     0.044 A 
ATOM     10  C   UNL d   1      43.362 -12.808  43.283  0.00  0.00     0.019 C 
ATOM     11  C   UNL d   1      45.001 -12.080  43.076  0.00  0.00     0.099 C 
ATOM     12  O   UNL d   1      46.643 -15.284  44.623  0.00  0.00    -0.286 OA
ENDROOT
BRANCH   6  13
ATOM     13  C   UNL d   1      44.989 -15.335  44.527  0.00  0.00     0.083 C 
BRANCH  13  14
ATOM     14  N   UNL d   1      45.321 -16.086  44.430  0.00  0.00    -0.302 N 
ATOM     15  C   UNL d   1      45.129 -16.688  44.954  0.00  0.00     0.080 A 
ATOM     16  C   UNL d   1      45.463 -17.443  44.855  0.00  0.00     0.019 A 
ATOM     17  C   UNL d   1      45.985 -17.586  44.235  0.00  0.00     0.003 A 
ATOM     18  C   UNL d   1      46.177 -16.980  43.709  0.00  0.00     0.019 A 
ATOM     19  C   UNL d   1      46.314 -18.335  44.141  0.00  0.00     0.000 C 
ATOM     20  C   UNL d   1      45.843 -16.226  43.807  0.00  0.00     0.080 A 
ENDBRANCH  13  14
ENDBRANCH   6  13
BRANCH   1  21
ATOM     21  C   UNL d   1      43.570 -14.433  44.023  0.00  0.00     0.302 C 
ATOM     22  O   UNL d   1      43.406 -15.076  43.526  0.00  0.00    -0.259 OA
BRANCH  21  23
ATOM     23  O   UNL d   1      43.134 -14.314  44.710  0.00  0.00    -0.271 OA
BRANCH  23  24
ATOM     24  C   UNL d   1      42.585 -14.884  44.955  0.00  0.00     0.126 C 
ATOM     25  C   UNL d   1      41.845 -14.923  44.600  0.00  0.00     0.029 C 
ENDBRANCH  23  24
ENDBRANCH  21  23
ENDBRANCH   1  21
TORSDOF 5
ENDMDL
