MODEL 1
REMARK VINA RESULT:      11.8      0.000      0.000
REMARK  1 active torsions:
REMARK  status: ('A' for Active; 'I' for Inactive)
REMARK    1  A    between atoms: N_3  and  C_2 
ROOT
ATOM      1  N   UNL d   1      14.259  12.404  -2.417  0.00  0.00    -0.228 NA
ATOM      2  C   UNL d   1      13.497  12.249  -2.698  0.00  0.00     0.148 A 
ATOM      3  C   UNL d   1      14.445  12.249  -1.622  0.00  0.00     0.083 A 
ATOM      4  C   UNL d   1      12.925  11.941  -2.189  0.00  0.00     0.037 A 
ATOM      5  C   UNL d   1      13.867  11.941  -1.120  0.00  0.00     0.018 A 
ATOM      6  C   UNL d   1      13.104  11.786  -1.401  0.00  0.00     0.005 A 
ATOM      7  C   UNL d   1      15.204  12.403  -1.339  0.00  0.00     0.019 A 
ATOM      8  C   UNL d   1      14.046  11.786  -0.332  0.00  0.00     0.002 A 
ATOM      9  C   UNL d   1      15.384  12.248  -0.550  0.00  0.00     0.002 A 
ATOM     10  C   UNL d   1      14.803  11.938  -0.045  0.00  0.00     0.000 A 
ENDROOT
BRANCH   2  11
ATOM     11  N   UNL d   1      13.315  12.404  -3.489  0.00  0.00    -0.286 N 
ATOM     12  C   UNL d   1      13.205  13.182  -3.741  0.00  0.00     0.102 A 
ATOM     13  C   UNL d   1      13.024  13.335  -4.528  0.00  0.00     0.118 A 
ATOM     14  N   UNL d   1      12.953  12.714  -5.063  0.00  0.00    -0.239 NA
ATOM     15  C   UNL d   1      13.063  11.936  -4.811  0.00  0.00     0.118 A 
ATOM     16  C   UNL d   1      13.245  11.781  -4.021  0.00  0.00     0.102 A 
ENDBRANCH   2  11
TORSDOF 1
ENDMDL
MODEL 2
REMARK VINA RESULT:      14.4      0.971      3.573
REMARK  1 active torsions:
REMARK  status: ('A' for Active; 'I' for Inactive)
REMARK    1  A    between atoms: N_3  and  C_2 
ROOT
ATOM      1  N   UNL d   1      13.896  13.149  -2.710  0.00  0.00    -0.228 NA
ATOM      2  C   UNL d   1      13.895  12.459  -2.253  0.00  0.00     0.148 A 
ATOM      3  C   UNL d   1      13.519  13.153  -3.450  0.00  0.00     0.083 A 
ATOM      4  C   UNL d   1      13.519  11.780  -2.534  0.00  0.00     0.037 A 
ATOM      5  C   UNL d   1      13.146  12.470  -3.724  0.00  0.00     0.018 A 
ATOM      6  C   UNL d   1      13.144  11.780  -3.267  0.00  0.00     0.005 A 
ATOM      7  C   UNL d   1      13.520  13.840  -3.908  0.00  0.00     0.019 A 
ATOM      8  C   UNL d   1      12.771  12.470  -4.456  0.00  0.00     0.002 A 
ATOM      9  C   UNL d   1      13.144  13.840  -4.641  0.00  0.00     0.002 A 
ATOM     10  C   UNL d   1      12.769  13.154  -4.916  0.00  0.00     0.000 A 
ENDROOT
BRANCH   2  11
ATOM     11  N   UNL d   1      14.270  12.457  -1.517  0.00  0.00    -0.286 N 
ATOM     12  C   UNL d   1      14.179  11.812  -1.011  0.00  0.00     0.102 A 
ATOM     13  C   UNL d   1      14.553  11.811  -0.279  0.00  0.00     0.118 A 
ATOM     14  N   UNL d   1      15.018  12.451  -0.052  0.00  0.00    -0.239 NA
ATOM     15  C   UNL d   1      15.109  13.096  -0.559  0.00  0.00     0.118 A 
ATOM     16  C   UNL d   1      14.734  13.098  -1.295  0.00  0.00     0.102 A 
ENDBRANCH   2  11
TORSDOF 1
ENDMDL
