MODEL 1
REMARK VINA RESULT:     -10.0      0.000      0.000
REMARK  2 active torsions:
REMARK  status: ('A' for Active; 'I' for Inactive)
REMARK    1  A    between atoms: C_8  and  N_1 
REMARK    2  A    between atoms: O_15  and  C_14 
ROOT
ATOM      1  N   UNL d   1      53.334  32.788  53.409  0.00  0.00    -0.243 N 
ATOM      2  C   UNL d   1      54.075  32.514  53.351  0.00  0.00     0.251 A 
ATOM      3  C   UNL d   1      52.804  32.188  53.378  0.00  0.00     0.264 A 
ATOM      4  C   UNL d   1      54.027  31.676  53.276  0.00  0.00     0.129 A 
ATOM      5  C   UNL d   1      53.239  31.473  53.293  0.00  0.00     0.047 A 
ATOM      6  C   UNL d   1      52.799  30.747  53.245  0.00  0.00     0.001 A 
ATOM      7  C   UNL d   1      53.205  30.833  53.235  0.00  0.00    -0.009 A 
ATOM      8  C   UNL d   1      53.019  29.860  53.154  0.00  0.00    -0.000 A 
ATOM      9  C   UNL d   1      53.426  29.965  53.146  0.00  0.00    -0.004 A 
ATOM     10  C   UNL d   1      52.080  31.103  53.310  0.00  0.00    -0.004 A 
ATOM     11  O   UNL d   1      54.774  32.991  53.364  0.00  0.00    -0.271 OA
ATOM     12  O   UNL d   1      51.951  32.409  53.436  0.00  0.00    -0.267 OA
ENDROOT
BRANCH   1  13
ATOM     13  C   UNL d   1      53.153  33.580  53.490  0.00  0.00     0.092 A 
ATOM     14  C   UNL d   1      53.247  33.956  54.222  0.00  0.00     0.110 A 
ATOM     15  C   UNL d   1      53.065  34.748  54.297  0.00  0.00     0.026 A 
ATOM     16  C   UNL d   1      52.787  35.174  53.648  0.00  0.00     0.002 A 
ATOM     17  C   UNL d   1      52.696  34.800  52.934  0.00  0.00     0.002 A 
ATOM     18  C   UNL d   1      52.879  34.003  52.853  0.00  0.00     0.020 A 
BRANCH  14  19
ATOM     19  O   UNL d   1      53.525  33.513  54.853  0.00  0.00    -0.327 OA
ATOM     20  C   UNL d   1      53.654  33.818  55.522  0.00  0.00     0.181 C 
ENDBRANCH  14  19
ENDBRANCH   1  13
TORSDOF 2
ENDMDL
MODEL 2
REMARK VINA RESULT:     -10.0      1.366      3.322
REMARK  2 active torsions:
REMARK  status: ('A' for Active; 'I' for Inactive)
REMARK    1  A    between atoms: C_8  and  N_1 
REMARK    2  A    between atoms: O_15  and  C_14 
ROOT
ATOM      1  N   UNL d   1      53.959  32.071  53.786  0.00  0.00    -0.243 N 
ATOM      2  C   UNL d   1      54.412  32.496  53.295  0.00  0.00     0.251 A 
ATOM      3  C   UNL d   1      54.015  32.347  54.536  0.00  0.00     0.264 A 
ATOM      4  C   UNL d   1      54.791  33.092  53.756  0.00  0.00     0.129 A 
ATOM      5  C   UNL d   1      54.545  32.999  54.526  0.00  0.00     0.047 A 
ATOM      6  C   UNL d   1      54.700  33.394  55.263  0.00  0.00     0.001 A 
ATOM      7  C   UNL d   1      54.835  33.455  54.876  0.00  0.00    -0.009 A 
ATOM      8  C   UNL d   1      55.218  34.106  55.521  0.00  0.00    -0.000 A 
ATOM      9  C   UNL d   1      55.346  34.154  55.124  0.00  0.00    -0.004 A 
ATOM     10  C   UNL d   1      54.217  32.915  55.695  0.00  0.00    -0.004 A 
ATOM     11  O   UNL d   1      54.489  32.362  52.463  0.00  0.00    -0.271 OA
ATOM     12  O   UNL d   1      53.538  31.926  55.149  0.00  0.00    -0.267 OA
ENDROOT
BRANCH   1  13
ATOM     13  C   UNL d   1      53.502  31.440  53.543  0.00  0.00     0.092 A 
ATOM     14  C   UNL d   1      52.757  31.570  53.206  0.00  0.00     0.110 A 
ATOM     15  C   UNL d   1      52.304  30.935  52.965  0.00  0.00     0.026 A 
ATOM     16  C   UNL d   1      52.587  30.165  53.054  0.00  0.00     0.002 A 
ATOM     17  C   UNL d   1      53.318  30.044  53.384  0.00  0.00     0.002 A 
ATOM     18  C   UNL d   1      53.778  30.680  53.629  0.00  0.00     0.020 A 
BRANCH  14  19
ATOM     19  O   UNL d   1      52.497  32.343  53.128  0.00  0.00    -0.327 OA
ATOM     20  C   UNL d   1      51.818  32.505  52.861  0.00  0.00     0.181 C 
ENDBRANCH  14  19
ENDBRANCH   1  13
TORSDOF 2
ENDMDL
MODEL 3
REMARK VINA RESULT:      -9.9      1.698      2.862
REMARK  2 active torsions:
REMARK  status: ('A' for Active; 'I' for Inactive)
REMARK    1  A    between atoms: C_8  and  N_1 
REMARK    2  A    between atoms: O_15  and  C_14 
ROOT
ATOM      1  N   UNL d   1      52.751  33.915  53.431  0.00  0.00    -0.243 N 
ATOM      2  C   UNL d   1      52.724  34.625  53.081  0.00  0.00     0.251 A 
ATOM      3  C   UNL d   1      52.032  33.561  53.413  0.00  0.00     0.264 A 
ATOM      4  C   UNL d   1      51.933  34.744  52.816  0.00  0.00     0.129 A 
ATOM      5  C   UNL d   1      51.504  34.084  53.021  0.00  0.00     0.047 A 
ATOM      6  C   UNL d   1      50.696  33.834  52.929  0.00  0.00     0.001 A 
ATOM      7  C   UNL d   1      50.900  34.177  52.817  0.00  0.00    -0.009 A 
ATOM      8  C   UNL d   1      49.942  34.200  52.554  0.00  0.00    -0.000 A 
ATOM      9  C   UNL d   1      50.164  34.541  52.448  0.00  0.00    -0.004 A 
ATOM     10  C   UNL d   1      50.805  33.127  53.299  0.00  0.00    -0.004 A 
ATOM     11  O   UNL d   1      53.380  35.152  52.999  0.00  0.00    -0.271 OA
ATOM     12  O   UNL d   1      51.975  32.761  53.784  0.00  0.00    -0.267 OA
ENDROOT
BRANCH   1  13
ATOM     13  C   UNL d   1      53.428  33.601  53.761  0.00  0.00     0.092 A 
ATOM     14  C   UNL d   1      53.666  33.830  54.521  0.00  0.00     0.110 A 
ATOM     15  C   UNL d   1      54.344  33.513  54.846  0.00  0.00     0.026 A 
ATOM     16  C   UNL d   1      54.793  32.967  54.421  0.00  0.00     0.002 A 
ATOM     17  C   UNL d   1      54.556  32.747  53.677  0.00  0.00     0.002 A 
ATOM     18  C   UNL d   1      53.873  33.063  53.345  0.00  0.00     0.020 A 
BRANCH  14  19
ATOM     19  O   UNL d   1      53.205  34.373  54.924  0.00  0.00    -0.327 OA
ATOM     20  C   UNL d   1      53.387  34.615  55.607  0.00  0.00     0.181 C 
ENDBRANCH  14  19
ENDBRANCH   1  13
TORSDOF 2
ENDMDL
MODEL 4
REMARK VINA RESULT:      -9.4      1.729      2.828
REMARK  2 active torsions:
REMARK  status: ('A' for Active; 'I' for Inactive)
REMARK    1  A    between atoms: C_8  and  N_1 
REMARK    2  A    between atoms: O_15  and  C_14 
ROOT
ATOM      1  N   UNL d   1      52.768  34.174  53.523  0.00  0.00    -0.243 N 
ATOM      2  C   UNL d   1      52.810  34.739  54.076  0.00  0.00     0.251 A 
ATOM      3  C   UNL d   1      53.324  33.610  53.648  0.00  0.00     0.264 A 
ATOM      4  C   UNL d   1      53.437  34.531  54.599  0.00  0.00     0.129 A 
ATOM      5  C   UNL d   1      53.756  33.832  54.334  0.00  0.00     0.047 A 
ATOM      6  C   UNL d   1      54.385  33.319  54.587  0.00  0.00     0.001 A 
ATOM      7  C   UNL d   1      54.235  33.675  54.735  0.00  0.00    -0.009 A 
ATOM      8  C   UNL d   1      54.990  33.326  55.277  0.00  0.00    -0.000 A 
ATOM      9  C   UNL d   1      54.826  33.687  55.414  0.00  0.00    -0.004 A 
ATOM     10  C   UNL d   1      54.278  32.788  53.991  0.00  0.00    -0.004 A 
ATOM     11  O   UNL d   1      52.308  35.419  54.117  0.00  0.00    -0.271 OA
ATOM     12  O   UNL d   1      53.345  32.940  53.073  0.00  0.00    -0.267 OA
ENDROOT
BRANCH   1  13
ATOM     13  C   UNL d   1      52.224  34.180  52.914  0.00  0.00     0.092 A 
ATOM     14  C   UNL d   1      51.474  33.846  53.022  0.00  0.00     0.110 A 
ATOM     15  C   UNL d   1      50.934  33.855  52.410  0.00  0.00     0.026 A 
ATOM     16  C   UNL d   1      51.133  34.195  51.685  0.00  0.00     0.002 A 
ATOM     17  C   UNL d   1      51.869  34.521  51.585  0.00  0.00     0.002 A 
ATOM     18  C   UNL d   1      52.417  34.515  52.199  0.00  0.00     0.020 A 
BRANCH  14  19
ATOM     19  O   UNL d   1      51.299  33.513  53.750  0.00  0.00    -0.327 OA
ATOM     20  C   UNL d   1      50.654  33.158  53.876  0.00  0.00     0.181 C 
ENDBRANCH  14  19
ENDBRANCH   1  13
TORSDOF 2
ENDMDL
