MODEL 1
REMARK VINA RESULT:      26.6      0.000      0.000
REMARK  10 active torsions:
REMARK  status: ('A' for Active; 'I' for Inactive)
REMARK    1  A    between atoms: C_9  and  S_1 
REMARK    2  A    between atoms: N_20  and  S_1 
REMARK    3  A    between atoms: S_2  and  C_10 
REMARK    4  A    between atoms: N_19  and  S_2 
REMARK    5  A    between atoms: C_28  and  N_19 
REMARK    6  A    between atoms: C_29  and  N_20 
REMARK    7  A    between atoms: C_24  and  C_28 
REMARK    8  A    between atoms: C_30  and  C_24 
REMARK    9  A    between atoms: C_25  and  C_29 
REMARK   10  A    between atoms: C_31  and  C_25 
ROOT
ATOM      1  C   UNL d   1      45.539 -16.682  42.814  0.00  0.00     0.300 A 
ATOM      2  C   UNL d   1      45.782 -17.097  43.476  0.00  0.00     0.064 A 
ATOM      3  C   UNL d   1      45.592 -15.463  43.550  0.00  0.00     0.104 A 
ATOM      4  O   UNL d   1      45.444 -15.867  42.849  0.00  0.00    -0.273 OA
ATOM      5  C   UNL d   1      45.931 -16.697  44.177  0.00  0.00     0.007 A 
ATOM      6  C   UNL d   1      45.837 -15.877  44.220  0.00  0.00     0.023 A 
ATOM      7  C   UNL d   1      46.121 -18.331  44.102  0.00  0.00     0.105 A 
ATOM      8  C   UNL d   1      45.641 -14.239  44.280  0.00  0.00     0.107 A 
ATOM      9  C   UNL d   1      45.877 -17.908  43.440  0.00  0.00     0.018 A 
ATOM     10  C   UNL d   1      45.495 -14.643  43.583  0.00  0.00     0.038 A 
ATOM     11  C   UNL d   1      46.176 -17.111  44.846  0.00  0.00     0.001 A 
ATOM     12  C   UNL d   1      45.985 -15.473  44.921  0.00  0.00     0.003 A 
ATOM     13  O   UNL d   1      45.388 -17.078  42.105  0.00  0.00    -0.259 OA
ATOM     14  C   UNL d   1      46.271 -17.926  44.811  0.00  0.00     0.013 A 
ATOM     15  C   UNL d   1      45.888 -14.653  44.954  0.00  0.00     0.013 A 
ENDROOT
BRANCH   7  16
ATOM     16  S   UNL d   1      46.217 -19.150  44.066  0.00  0.00     0.285 S 
ATOM     17  O   UNL d   1      46.153 -19.535  43.342  0.00  0.00    -0.198 OA
ATOM     18  O   UNL d   1      46.377 -19.581  44.759  0.00  0.00    -0.198 OA
BRANCH  16  19
ATOM     19  N   UNL d   1      46.311 -19.969  44.018  0.00  0.00    -0.157 NA
BRANCH  19  20
ATOM     20  C   UNL d   1      46.645 -20.308  43.345  0.00  0.00     0.116 C 
BRANCH  20  21
ATOM     21  C   UNL d   1      46.219 -20.320  42.637  0.00  0.00     0.067 C 
BRANCH  21  22
ATOM     22  C   UNL d   1      46.531 -19.961  41.962  0.00  0.00     0.236 C 
ATOM     23  O   UNL d   1      46.285 -20.213  41.215  0.00  0.00    -0.283 OA
ENDBRANCH  21  22
ENDBRANCH  20  21
ENDBRANCH  19  20
ENDBRANCH  16  19
ENDBRANCH   7  16
BRANCH   8  24
ATOM     24  S   UNL d   1      45.546 -13.419  44.320  0.00  0.00     0.285 S 
ATOM     25  O   UNL d   1      45.951 -12.986  44.892  0.00  0.00    -0.198 OA
ATOM     26  O   UNL d   1      45.048 -13.037  43.788  0.00  0.00    -0.198 OA
BRANCH  24  27
ATOM     27  N   UNL d   1      45.447 -12.600  44.354  0.00  0.00    -0.157 NA
BRANCH  27  28
ATOM     28  C   UNL d   1      45.349 -12.167  43.659  0.00  0.00     0.116 C 
BRANCH  28  29
ATOM     29  C   UNL d   1      45.125 -12.540  42.959  0.00  0.00     0.067 C 
BRANCH  29  30
ATOM     30  C   UNL d   1      44.884 -12.099  42.306  0.00  0.00     0.236 C 
ATOM     31  O   UNL d   1      45.273 -12.183  41.582  0.00  0.00    -0.283 OA
ENDBRANCH  29  30
ENDBRANCH  28  29
ENDBRANCH  27  28
ENDBRANCH  24  27
ENDBRANCH   8  24
TORSDOF 10
ENDMDL
