MODEL 1
REMARK VINA RESULT:      34.3      0.000      0.000
REMARK  6 active torsions:
REMARK  status: ('A' for Active; 'I' for Inactive)
REMARK    1  A    between atoms: S_12  and  C_1 
REMARK    2  A    between atoms: C_2  and  S_11 
REMARK    3  A    between atoms: S_11  and  C_15 
REMARK    4  A    between atoms: C_16  and  S_12 
REMARK    5  A    between atoms: C_13  and  C_16 
REMARK    6  A    between atoms: C_15  and  C_13 
ROOT
ATOM      1  C   UNL d   1      13.129  12.759  -4.548  0.00  0.00     0.209 C 
ATOM      2  O   UNL d   1      13.554  12.242  -5.048  0.00  0.00    -0.285 OA
ENDROOT
BRANCH   1   3
ATOM      3  C   UNL d   1      12.952  13.527  -4.809  0.00  0.00     0.080 C 
BRANCH   3   4
ATOM      4  S   UNL d   1      12.852  14.146  -4.268  0.00  0.00    -0.058 SA
BRANCH   4   5
ATOM      5  C   UNL d   1      13.387  14.771  -4.246  0.00  0.00     0.141 A 
ATOM      6  N   UNL d   1      13.814  15.034  -3.582  0.00  0.00    -0.232 NA
ATOM      7  C   UNL d   1      14.282  15.674  -3.815  0.00  0.00     0.088 A 
ATOM      8  C   UNL d   1      14.812  16.148  -3.396  0.00  0.00     0.020 A 
ATOM      9  C   UNL d   1      14.152  15.815  -4.627  0.00  0.00     0.049 A 
ATOM     10  C   UNL d   1      15.214  16.761  -3.773  0.00  0.00     0.002 A 
ATOM     11  C   UNL d   1      15.084  16.901  -4.584  0.00  0.00     0.001 A 
ATOM     12  C   UNL d   1      14.552  16.425  -5.005  0.00  0.00     0.008 A 
ATOM     13  S   UNL d   1      13.600  15.258  -4.894  0.00  0.00    -0.060 SA
ENDBRANCH   4   5
ENDBRANCH   3   4
ENDBRANCH   1   3
BRANCH   1  14
ATOM     14  C   UNL d   1      12.891  12.504  -3.803  0.00  0.00     0.080 C 
BRANCH  14  15
ATOM     15  S   UNL d   1      13.214  11.818  -3.470  0.00  0.00    -0.058 SA
BRANCH  15  16
ATOM     16  C   UNL d   1      13.502  11.824  -2.699  0.00  0.00     0.141 A 
ATOM     17  N   UNL d   1      14.303  11.876  -2.473  0.00  0.00    -0.232 NA
ATOM     18  C   UNL d   1      14.333  11.863  -1.640  0.00  0.00     0.088 A 
ATOM     19  C   UNL d   1      14.963  11.897  -1.117  0.00  0.00     0.020 A 
ATOM     20  C   UNL d   1      13.563  11.804  -1.353  0.00  0.00     0.049 A 
ATOM     21  C   UNL d   1      14.834  11.874  -0.302  0.00  0.00     0.002 A 
ATOM     22  C   UNL d   1      14.051  11.814  -0.014  0.00  0.00     0.001 A 
ATOM     23  C   UNL d   1      13.418  11.779  -0.540  0.00  0.00     0.008 A 
ATOM     24  S   UNL d   1      13.044  11.780  -2.009  0.00  0.00    -0.060 SA
ENDBRANCH  15  16
ENDBRANCH  14  15
ENDBRANCH   1  14
TORSDOF 6
ENDMDL
