MODEL 1
REMARK VINA RESULT:      27.3      0.000      0.000
REMARK  5 active torsions:
REMARK  status: ('A' for Active; 'I' for Inactive)
REMARK    1  A    between atoms: N_3  and  C_1 
REMARK       I    between atoms: C_9  and  N_3 
REMARK    2  A    between atoms: C_12  and  C_7 
REMARK    3  A    between atoms: C_17  and  C_9 
REMARK    4  A    between atoms: C_11  and  S_14 
REMARK    5  A    between atoms: S_14  and  C_17 
ROOT
ATOM      1  N   UNL d   1      12.795  12.044  -3.175  0.00  0.00    -0.146 NA
ATOM      2  N   UNL d   1      12.801  11.986  -2.352  0.00  0.00    -0.141 NA
ATOM      3  C   UNL d   1      13.501  11.970  -3.602  0.00  0.00     0.121 A 
ATOM      4  C   UNL d   1      13.501  11.855  -1.949  0.00  0.00     0.133 A 
ATOM      5  C   UNL d   1      14.211  11.837  -3.198  0.00  0.00     0.025 A 
ATOM      6  C   UNL d   1      14.214  11.780  -2.377  0.00  0.00     0.029 A 
ENDROOT
BRANCH   4   7
ATOM      7  S   UNL d   1      13.507  11.797  -1.127  0.00  0.00    -0.061 SA
BRANCH   7   8
ATOM      8  C   UNL d   1      14.204  11.907  -0.708  0.00  0.00     0.099 C 
BRANCH   8   9
ATOM      9  C   UNL d   1      14.436  12.672  -0.496  0.00  0.00     0.288 C 
ATOM     10  N   UNL d   1      15.172  12.959  -0.728  0.00  0.00    -0.182 NA
ATOM     11  O   UNL d   1      13.934  13.148  -0.053  0.00  0.00    -0.265 OA
BRANCH  10  12
ATOM     12  C   UNL d   1      15.414  13.718  -0.524  0.00  0.00     0.197 A 
ATOM     13  N   UNL d   1      15.031  14.408  -0.744  0.00  0.00    -0.221 NA
ATOM     14  C   UNL d   1      15.449  15.036  -0.428  0.00  0.00     0.090 A 
ATOM     15  C   UNL d   1      15.265  15.840  -0.508  0.00  0.00     0.021 C 
ATOM     16  C   UNL d   1      16.090  14.729  -0.015  0.00  0.00     0.058 A 
ATOM     17  S   UNL d   1      16.067  13.916  -0.075  0.00  0.00    -0.046 SA
ENDBRANCH  10  12
ENDBRANCH   8   9
ENDBRANCH   7   8
ENDBRANCH   4   7
BRANCH   3  18
ATOM     18  C   UNL d   1      13.494  12.028  -4.424  0.00  0.00     0.101 A 
ATOM     19  N   UNL d   1      12.817  11.846  -4.836  0.00  0.00    -0.242 NA
ATOM     20  C   UNL d   1      12.807  11.902  -5.652  0.00  0.00     0.099 A 
ATOM     21  C   UNL d   1      13.490  12.146  -6.059  0.00  0.00     0.021 A 
ATOM     22  C   UNL d   1      14.169  12.328  -5.641  0.00  0.00     0.003 A 
ATOM     23  C   UNL d   1      14.184  12.272  -4.817  0.00  0.00     0.021 A 
ENDBRANCH   3  18
TORSDOF 5
ENDMDL
