MODEL 1
REMARK VINA RESULT:      -2.5      0.000      0.000
REMARK  4 active torsions:
REMARK  status: ('A' for Active; 'I' for Inactive)
REMARK    1  A    between atoms: C_5  and  C_1 
REMARK    2  A    between atoms: C_11  and  C_2 
REMARK       I    between atoms: C_12  and  N_3 
REMARK    3  A    between atoms: C_15  and  N_7 
REMARK    4  A    between atoms: C_14  and  C_9 
ROOT
ATOM      1  C   UNL d   1     -39.201  14.546  20.126  0.00  0.00     0.057 A 
ATOM      2  C   UNL d   1     -39.083  14.750  20.930  0.00  0.00     0.110 A 
ATOM      3  N   UNL d   1     -39.826  14.708  21.301  0.00  0.00    -0.165 NA
ATOM      4  N   UNL d   1     -40.382  14.479  20.716  0.00  0.00    -0.228 N 
ATOM      5  C   UNL d   1     -39.984  14.387  20.014  0.00  0.00     0.103 A 
ENDROOT
BRANCH   1   6
ATOM      6  C   UNL d   1     -38.931  14.419  19.368  0.00  0.00     0.091 A 
ATOM      7  N   UNL d   1     -38.536  13.727  19.107  0.00  0.00    -0.195 N 
ATOM      8  N   UNL d   1     -38.355  13.825  18.292  0.00  0.00    -0.163 NA
ATOM      9  C   UNL d   1     -38.347  13.063  19.539  0.00  0.00     0.281 C 
ATOM     10  C   UNL d   1     -38.635  14.560  18.068  0.00  0.00     0.103 A 
ATOM     11  C   UNL d   1     -38.989  14.933  18.714  0.00  0.00     0.040 A 
ATOM     12  O   UNL d   1     -38.567  13.056  20.340  0.00  0.00    -0.265 OA
ATOM     13  C   UNL d   1     -37.952  12.416  19.203  0.00  0.00     0.068 C 
BRANCH  10  14
ATOM     14  C   UNL d   1     -38.587  14.908  17.313  0.00  0.00     0.019 A 
ATOM     15  C   UNL d   1     -39.184  14.756  16.755  0.00  0.00     0.002 A 
ATOM     16  C   UNL d   1     -39.161  15.081  16.015  0.00  0.00     0.000 A 
ATOM     17  C   UNL d   1     -38.537  15.573  15.802  0.00  0.00     0.000 A 
ATOM     18  C   UNL d   1     -37.943  15.726  16.354  0.00  0.00     0.000 A 
ATOM     19  C   UNL d   1     -38.488  15.922  15.046  0.00  0.00     0.000 C 
ATOM     20  C   UNL d   1     -37.963  15.401  17.100  0.00  0.00     0.002 A 
ENDBRANCH  10  14
ENDBRANCH   1   6
BRANCH   2  21
ATOM     21  C   UNL d   1     -38.737  14.973  21.647  0.00  0.00     0.049 A 
ATOM     22  S   UNL d   1     -38.566  15.752  21.860  0.00  0.00    -0.085 SA
ATOM     23  C   UNL d   1     -38.223  15.706  22.628  0.00  0.00     0.035 A 
ATOM     24  C   UNL d   1     -38.194  14.918  22.860  0.00  0.00     0.007 A 
ATOM     25  C   UNL d   1     -38.518  14.462  22.239  0.00  0.00     0.009 A 
ENDBRANCH   2  21
BRANCH   4  26
ATOM     26  C   UNL d   1     -41.201  14.372  20.860  0.00  0.00     0.083 A 
ATOM     27  C   UNL d   1     -41.691  15.020  20.973  0.00  0.00     0.019 A 
ATOM     28  C   UNL d   1     -42.485  14.876  21.112  0.00  0.00     0.002 A 
ATOM     29  C   UNL d   1     -42.809  14.121  21.143  0.00  0.00     0.000 A 
ATOM     30  C   UNL d   1     -42.294  13.471  21.026  0.00  0.00     0.002 A 
ATOM     31  C   UNL d   1     -41.503  13.585  20.887  0.00  0.00     0.019 A 
ENDBRANCH   4  26
TORSDOF 4
ENDMDL
MODEL 2
REMARK VINA RESULT:      -0.8      1.674      4.971
REMARK  4 active torsions:
REMARK  status: ('A' for Active; 'I' for Inactive)
REMARK    1  A    between atoms: C_5  and  C_1 
REMARK    2  A    between atoms: C_11  and  C_2 
REMARK       I    between atoms: C_12  and  N_3 
REMARK    3  A    between atoms: C_15  and  N_7 
REMARK    4  A    between atoms: C_14  and  C_9 
ROOT
ATOM      1  C   UNL d   1     -40.369  14.069  19.080  0.00  0.00     0.057 A 
ATOM      2  C   UNL d   1     -39.707  13.779  18.655  0.00  0.00     0.110 A 
ATOM      3  N   UNL d   1     -39.740  14.118  17.896  0.00  0.00    -0.165 NA
ATOM      4  N   UNL d   1     -40.421  14.608  17.875  0.00  0.00    -0.228 N 
ATOM      5  C   UNL d   1     -40.785  14.564  18.599  0.00  0.00     0.103 A 
ENDROOT
BRANCH   1   6
ATOM      6  C   UNL d   1     -40.830  14.116  19.749  0.00  0.00     0.091 A 
ATOM      7  N   UNL d   1     -40.697  14.638  20.392  0.00  0.00    -0.195 N 
ATOM      8  N   UNL d   1     -41.299  14.505  20.962  0.00  0.00    -0.163 NA
ATOM      9  C   UNL d   1     -40.101  15.187  20.477  0.00  0.00     0.281 C 
ATOM     10  C   UNL d   1     -41.784  13.916  20.670  0.00  0.00     0.103 A 
ATOM     11  C   UNL d   1     -41.510  13.669  19.932  0.00  0.00     0.040 A 
ATOM     12  O   UNL d   1     -39.549  15.248  19.859  0.00  0.00    -0.265 OA
ATOM     13  C   UNL d   1     -40.038  15.669  21.149  0.00  0.00     0.068 C 
BRANCH  10  14
ATOM     14  C   UNL d   1     -42.459  13.591  21.036  0.00  0.00     0.019 A 
ATOM     15  C   UNL d   1     -42.409  12.842  21.391  0.00  0.00     0.002 A 
ATOM     16  C   UNL d   1     -43.049  12.505  21.753  0.00  0.00     0.000 A 
ATOM     17  C   UNL d   1     -43.767  12.905  21.775  0.00  0.00     0.000 A 
ATOM     18  C   UNL d   1     -43.819  13.651  21.423  0.00  0.00     0.000 A 
ATOM     19  C   UNL d   1     -44.442  12.582  22.141  0.00  0.00     0.000 C 
ATOM     20  C   UNL d   1     -43.177  13.993  21.058  0.00  0.00     0.002 A 
ENDBRANCH  10  14
ENDBRANCH   1   6
BRANCH   2  21
ATOM     21  C   UNL d   1     -39.015  13.377  18.446  0.00  0.00     0.049 A 
ATOM     22  S   UNL d   1     -38.594  12.878  18.951  0.00  0.00    -0.085 SA
ATOM     23  C   UNL d   1     -37.939  12.600  18.499  0.00  0.00     0.035 A 
ATOM     24  C   UNL d   1     -37.976  12.929  17.747  0.00  0.00     0.007 A 
ATOM     25  C   UNL d   1     -38.655  13.416  17.719  0.00  0.00     0.009 A 
ENDBRANCH   2  21
BRANCH   4  26
ATOM     26  C   UNL d   1     -40.658  15.055  17.206  0.00  0.00     0.083 A 
ATOM     27  C   UNL d   1     -40.110  15.499  16.786  0.00  0.00     0.019 A 
ATOM     28  C   UNL d   1     -40.379  15.921  16.139  0.00  0.00     0.002 A 
ATOM     29  C   UNL d   1     -41.164  15.922  15.893  0.00  0.00     0.000 A 
ATOM     30  C   UNL d   1     -41.709  15.464  16.333  0.00  0.00     0.002 A 
ATOM     31  C   UNL d   1     -41.470  15.035  16.979  0.00  0.00     0.019 A 
ENDBRANCH   4  26
TORSDOF 4
ENDMDL
