MODEL 1
REMARK VINA RESULT:      41.4      0.000      0.000
REMARK  6 active torsions:
REMARK  status: ('A' for Active; 'I' for Inactive)
REMARK    1  A    between atoms: S_4  and  C_1 
REMARK    2  A    between atoms: C_9  and  N_2 
REMARK    3  A    between atoms: C_11  and  S_4 
REMARK    4  A    between atoms: C_6  and  C_11 
REMARK       I    between atoms: N_8  and  C_6 
REMARK    5  A    between atoms: C_12  and  N_8 
REMARK    6  A    between atoms: O_18  and  C_13 
ROOT
ATOM      1  S   UNL d   1      14.084  13.606  -3.272  0.00  0.00    -0.044 SA
ENDROOT
BRANCH   1   2
ATOM      2  C   UNL d   1      13.632  12.951  -3.500  0.00  0.00     0.180 A 
ATOM      3  N   UNL d   1      13.487  12.288  -3.045  0.00  0.00    -0.284 N 
ATOM      4  C   UNL d   1      13.013  11.780  -3.492  0.00  0.00     0.103 A 
ATOM      5  C   UNL d   1      12.868  12.141  -4.232  0.00  0.00     0.120 A 
ATOM      6  N   UNL d   1      13.252  12.857  -4.223  0.00  0.00    -0.219 NA
BRANCH   3   7
ATOM      7  C   UNL d   1      13.747  12.118  -2.280  0.00  0.00     0.066 A 
ATOM      8  C   UNL d   1      13.207  11.950  -1.690  0.00  0.00     0.018 A 
ATOM      9  C   UNL d   1      13.466  11.781  -0.925  0.00  0.00     0.002 A 
ATOM     10  C   UNL d   1      14.265  11.780  -0.751  0.00  0.00     0.000 A 
ATOM     11  C   UNL d   1      14.813  11.949  -1.345  0.00  0.00     0.002 A 
ATOM     12  C   UNL d   1      14.554  12.118  -2.109  0.00  0.00     0.018 A 
ENDBRANCH   3   7
ENDBRANCH   1   2
BRANCH   1  13
ATOM     13  C   UNL d   1      13.861  14.367  -3.502  0.00  0.00     0.101 C 
BRANCH  13  14
ATOM     14  C   UNL d   1      14.173  15.019  -3.132  0.00  0.00     0.286 C 
ATOM     15  N   UNL d   1      14.308  15.004  -2.327  0.00  0.00    -0.208 NA
ATOM     16  O   UNL d   1      14.351  15.691  -3.574  0.00  0.00    -0.265 OA
BRANCH  15  17
ATOM     17  C   UNL d   1      14.623  15.659  -1.948  0.00  0.00     0.085 A 
ATOM     18  C   UNL d   1      14.730  16.366  -2.363  0.00  0.00     0.021 A 
ATOM     19  C   UNL d   1      15.047  17.030  -1.987  0.00  0.00     0.026 A 
ATOM     20  C   UNL d   1      15.257  16.984  -1.193  0.00  0.00     0.094 A 
ATOM     21  C   UNL d   1      15.145  16.268  -0.786  0.00  0.00     0.026 A 
ATOM     22  C   UNL d   1      14.834  15.619  -1.159  0.00  0.00     0.021 A 
BRANCH  20  23
ATOM     23  O   UNL d   1      15.576  17.654  -0.817  0.00  0.00    -0.328 OA
ATOM     24  C   UNL d   1      16.390  17.687  -0.679  0.00  0.00     0.181 C 
ENDBRANCH  20  23
ENDBRANCH  15  17
ENDBRANCH  13  14
ENDBRANCH   1  13
TORSDOF 6
ENDMDL
MODEL 2
REMARK VINA RESULT:      43.2      1.289      2.289
REMARK  6 active torsions:
REMARK  status: ('A' for Active; 'I' for Inactive)
REMARK    1  A    between atoms: S_4  and  C_1 
REMARK    2  A    between atoms: C_9  and  N_2 
REMARK    3  A    between atoms: C_11  and  S_4 
REMARK    4  A    between atoms: C_6  and  C_11 
REMARK       I    between atoms: N_8  and  C_6 
REMARK    5  A    between atoms: C_12  and  N_8 
REMARK    6  A    between atoms: O_18  and  C_13 
ROOT
ATOM      1  S   UNL d   1      14.793  12.862  -1.773  0.00  0.00    -0.044 SA
ENDROOT
BRANCH   1   2
ATOM      2  C   UNL d   1      14.099  12.443  -1.606  0.00  0.00     0.180 A 
ATOM      3  N   UNL d   1      13.527  12.228  -2.149  0.00  0.00    -0.284 N 
ATOM      4  C   UNL d   1      12.938  11.820  -1.738  0.00  0.00     0.103 A 
ATOM      5  C   UNL d   1      13.156  11.786  -0.932  0.00  0.00     0.120 A 
ATOM      6  N   UNL d   1      13.869  12.170  -0.865  0.00  0.00    -0.219 NA
BRANCH   3   7
ATOM      7  C   UNL d   1      13.504  12.372  -2.961  0.00  0.00     0.066 A 
ATOM      8  C   UNL d   1      13.732  13.100  -3.257  0.00  0.00     0.018 A 
ATOM      9  C   UNL d   1      13.709  13.244  -4.069  0.00  0.00     0.002 A 
ATOM     10  C   UNL d   1      13.458  12.661  -4.585  0.00  0.00     0.000 A 
ATOM     11  C   UNL d   1      13.227  11.925  -4.289  0.00  0.00     0.002 A 
ATOM     12  C   UNL d   1      13.250  11.781  -3.477  0.00  0.00     0.018 A 
ENDBRANCH   3   7
ENDBRANCH   1   2
BRANCH   1  13
ATOM     13  C   UNL d   1      15.343  13.013  -1.177  0.00  0.00     0.101 C 
BRANCH  13  14
ATOM     14  C   UNL d   1      15.562  13.775  -0.999  0.00  0.00     0.286 C 
ATOM     15  N   UNL d   1      15.031  14.386  -1.107  0.00  0.00    -0.208 NA
ATOM     16  O   UNL d   1      16.318  13.923  -0.710  0.00  0.00    -0.265 OA
BRANCH  15  17
ATOM     17  C   UNL d   1      15.246  15.157  -0.929  0.00  0.00     0.085 A 
ATOM     18  C   UNL d   1      14.855  15.790  -1.289  0.00  0.00     0.021 A 
ATOM     19  C   UNL d   1      15.067  16.569  -1.114  0.00  0.00     0.026 A 
ATOM     20  C   UNL d   1      15.672  16.712  -0.576  0.00  0.00     0.094 A 
ATOM     21  C   UNL d   1      16.059  16.068  -0.220  0.00  0.00     0.026 A 
ATOM     22  C   UNL d   1      15.847  15.306  -0.395  0.00  0.00     0.021 A 
BRANCH  20  23
ATOM     23  O   UNL d   1      15.883  17.498  -0.402  0.00  0.00    -0.328 OA
ATOM     24  C   UNL d   1      15.883  18.057  -1.010  0.00  0.00     0.181 C 
ENDBRANCH  20  23
ENDBRANCH  15  17
ENDBRANCH  13  14
ENDBRANCH   1  13
TORSDOF 6
ENDMDL
