MODEL 1
REMARK VINA RESULT:      -8.1      0.000      0.000
REMARK  3 active torsions:
REMARK  status: ('A' for Active; 'I' for Inactive)
REMARK    1  A    between atoms: S_3  and  N_1 
REMARK    2  A    between atoms: C_5  and  C_4 
REMARK    3  A    between atoms: C_11  and  C_6 
ROOT
ATOM      1  N   UNL d   1     -46.885  13.543  22.816  0.00  0.00    -0.155 N 
ATOM      2  N   UNL d   1     -46.299  13.025  23.045  0.00  0.00    -0.153 NA
ATOM      3  C   UNL d   1     -47.581  13.131  22.753  0.00  0.00     0.098 A 
ATOM      4  C   UNL d   1     -46.640  12.287  23.122  0.00  0.00     0.126 A 
ATOM      5  C   UNL d   1     -47.430  12.344  22.944  0.00  0.00     0.043 A 
ENDROOT
BRANCH   3   6
ATOM      6  C   UNL d   1     -48.313  13.441  22.536  0.00  0.00     0.047 A 
ATOM      7  C   UNL d   1     -48.633  13.264  21.796  0.00  0.00     0.140 A 
ATOM      8  N   UNL d   1     -49.368  13.575  21.579  0.00  0.00    -0.234 NA
ATOM      9 CL   UNL d   1     -48.220  12.777  21.274  0.00  0.00    -0.061 Cl
ATOM     10  C   UNL d   1     -49.782  14.063  22.101  0.00  0.00     0.082 A 
ATOM     11  C   UNL d   1     -49.462  14.240  22.841  0.00  0.00     0.018 A 
ATOM     12  C   UNL d   1     -50.514  14.373  21.884  0.00  0.00     0.019 A 
ATOM     13  C   UNL d   1     -48.728  13.929  23.058  0.00  0.00     0.005 A 
ATOM     14  C   UNL d   1     -49.874  14.727  23.363  0.00  0.00     0.002 A 
ATOM     15  C   UNL d   1     -50.583  15.021  23.140  0.00  0.00     0.000 A 
ATOM     16  C   UNL d   1     -50.904  14.843  22.399  0.00  0.00     0.002 A 
ATOM     17  C   UNL d   1     -50.997  15.508  23.661  0.00  0.00     0.000 C 
ENDBRANCH   3   6
BRANCH   1  18
ATOM     18  S   UNL d   1     -46.373  14.180  22.795  0.00  0.00     0.266 S 
ATOM     19  O   UNL d   1     -46.249  14.648  23.453  0.00  0.00    -0.203 OA
ATOM     20  O   UNL d   1     -46.075  14.190  22.025  0.00  0.00    -0.203 OA
ATOM     21  C   UNL d   1     -45.829  14.758  22.570  0.00  0.00     0.165 C 
ENDBRANCH   1  18
BRANCH   4  22
ATOM     22  C   UNL d   1     -46.252  11.605  23.342  0.00  0.00     0.119 A 
ATOM     23  O   UNL d   1     -45.455  11.502  23.457  0.00  0.00    -0.304 OA
ATOM     24  C   UNL d   1     -45.309  10.731  23.674  0.00  0.00     0.123 A 
ATOM     25  C   UNL d   1     -46.020  10.335  23.698  0.00  0.00     0.029 A 
ATOM     26  C   UNL d   1     -46.616  10.861  23.495  0.00  0.00     0.028 A 
ENDBRANCH   4  22
TORSDOF 3
ENDMDL
MODEL 2
REMARK VINA RESULT:      -7.0      1.756      2.547
REMARK  3 active torsions:
REMARK  status: ('A' for Active; 'I' for Inactive)
REMARK    1  A    between atoms: S_3  and  N_1 
REMARK    2  A    between atoms: C_5  and  C_4 
REMARK    3  A    between atoms: C_11  and  C_6 
ROOT
ATOM      1  N   UNL d   1     -46.191  12.417  22.840  0.00  0.00    -0.155 N 
ATOM      2  N   UNL d   1     -45.432  12.179  22.664  0.00  0.00    -0.153 NA
ATOM      3  C   UNL d   1     -46.328  13.126  22.472  0.00  0.00     0.098 A 
ATOM      4  C   UNL d   1     -45.101  12.749  22.183  0.00  0.00     0.126 A 
ATOM      5  C   UNL d   1     -45.647  13.337  22.059  0.00  0.00     0.043 A 
ENDROOT
BRANCH   3   6
ATOM      6  C   UNL d   1     -47.026  13.564  22.503  0.00  0.00     0.047 A 
ATOM      7  C   UNL d   1     -47.047  14.279  22.916  0.00  0.00     0.140 A 
ATOM      8  N   UNL d   1     -47.748  14.717  22.946  0.00  0.00    -0.234 NA
ATOM      9 CL   UNL d   1     -46.370  14.554  23.298  0.00  0.00    -0.061 Cl
ATOM     10  C   UNL d   1     -48.426  14.442  22.564  0.00  0.00     0.082 A 
ATOM     11  C   UNL d   1     -48.405  13.727  22.150  0.00  0.00     0.018 A 
ATOM     12  C   UNL d   1     -49.123  14.880  22.594  0.00  0.00     0.019 A 
ATOM     13  C   UNL d   1     -47.706  13.289  22.120  0.00  0.00     0.005 A 
ATOM     14  C   UNL d   1     -49.081  13.452  21.769  0.00  0.00     0.002 A 
ATOM     15  C   UNL d   1     -49.751  13.886  21.806  0.00  0.00     0.000 A 
ATOM     16  C   UNL d   1     -49.772  14.601  22.220  0.00  0.00     0.002 A 
ATOM     17  C   UNL d   1     -50.429  13.611  21.424  0.00  0.00     0.000 C 
ENDBRANCH   3   6
BRANCH   1  18
ATOM     18  S   UNL d   1     -46.337  11.756  23.298  0.00  0.00     0.266 S 
ATOM     19  O   UNL d   1     -45.735  11.372  23.697  0.00  0.00    -0.203 OA
ATOM     20  O   UNL d   1     -47.150  11.626  23.235  0.00  0.00    -0.203 OA
ATOM     21  C   UNL d   1     -46.687  11.123  23.695  0.00  0.00     0.165 C 
ENDBRANCH   1  18
BRANCH   4  22
ATOM     22  C   UNL d   1     -44.346  12.732  21.876  0.00  0.00     0.119 A 
ATOM     23  O   UNL d   1     -43.709  12.309  22.147  0.00  0.00    -0.304 OA
ATOM     24  C   UNL d   1     -43.062  12.457  21.674  0.00  0.00     0.123 A 
ATOM     25  C   UNL d   1     -43.288  12.981  21.093  0.00  0.00     0.029 A 
ATOM     26  C   UNL d   1     -44.081  13.163  21.202  0.00  0.00     0.028 A 
ENDBRANCH   4  22
TORSDOF 3
ENDMDL
MODEL 3
REMARK VINA RESULT:      -6.7      8.704     10.394
REMARK  3 active torsions:
REMARK  status: ('A' for Active; 'I' for Inactive)
REMARK    1  A    between atoms: S_3  and  N_1 
REMARK    2  A    between atoms: C_5  and  C_4 
REMARK    3  A    between atoms: C_11  and  C_6 
ROOT
ATOM      1  N   UNL d   1     -39.690  14.546  18.264  0.00  0.00    -0.155 N 
ATOM      2  N   UNL d   1     -39.608  14.381  17.470  0.00  0.00    -0.153 NA
ATOM      3  C   UNL d   1     -38.954  14.539  18.604  0.00  0.00     0.098 A 
ATOM      4  C   UNL d   1     -38.812  14.271  17.323  0.00  0.00     0.126 A 
ATOM      5  C   UNL d   1     -38.402  14.367  18.018  0.00  0.00     0.043 A 
ENDROOT
BRANCH   3   6
ATOM      6  C   UNL d   1     -38.783  14.678  19.399  0.00  0.00     0.047 A 
ATOM      7  C   UNL d   1     -38.392  15.371  19.621  0.00  0.00     0.140 A 
ATOM      8  N   UNL d   1     -38.221  15.509  20.419  0.00  0.00    -0.234 NA
ATOM      9 CL   UNL d   1     -38.173  15.922  19.049  0.00  0.00    -0.061 Cl
ATOM     10  C   UNL d   1     -38.441  14.957  20.992  0.00  0.00     0.082 A 
ATOM     11  C   UNL d   1     -38.832  14.265  20.769  0.00  0.00     0.018 A 
ATOM     12  C   UNL d   1     -38.270  15.097  21.786  0.00  0.00     0.019 A 
ATOM     13  C   UNL d   1     -39.003  14.126  19.974  0.00  0.00     0.005 A 
ATOM     14  C   UNL d   1     -39.052  13.713  21.341  0.00  0.00     0.002 A 
ATOM     15  C   UNL d   1     -38.880  13.861  22.108  0.00  0.00     0.000 A 
ATOM     16  C   UNL d   1     -38.488  14.554  22.330  0.00  0.00     0.002 A 
ATOM     17  C   UNL d   1     -39.099  13.309  22.681  0.00  0.00     0.000 C 
ENDBRANCH   3   6
BRANCH   1  18
ATOM     18  S   UNL d   1     -40.503  14.617  18.208  0.00  0.00     0.266 S 
ATOM     19  O   UNL d   1     -40.991  13.963  18.249  0.00  0.00    -0.203 OA
ATOM     20  O   UNL d   1     -40.642  15.426  18.113  0.00  0.00    -0.203 OA
ATOM     21  C   UNL d   1     -41.275  14.897  18.132  0.00  0.00     0.165 C 
ENDBRANCH   1  18
BRANCH   4  22
ATOM     22  C   UNL d   1     -38.483  14.095  16.600  0.00  0.00     0.119 A 
ATOM     23  O   UNL d   1     -38.325  14.606  15.988  0.00  0.00    -0.304 OA
ATOM     24  C   UNL d   1     -37.995  14.194  15.368  0.00  0.00     0.123 A 
ATOM     25  C   UNL d   1     -37.940  13.410  15.584  0.00  0.00     0.029 A 
ATOM     26  C   UNL d   1     -38.237  13.331  16.345  0.00  0.00     0.028 A 
ENDBRANCH   4  22
TORSDOF 3
ENDMDL
MODEL 4
REMARK VINA RESULT:      -6.7      1.831      2.366
REMARK  3 active torsions:
REMARK  status: ('A' for Active; 'I' for Inactive)
REMARK    1  A    between atoms: S_3  and  N_1 
REMARK    2  A    between atoms: C_5  and  C_4 
REMARK    3  A    between atoms: C_11  and  C_6 
ROOT
ATOM      1  N   UNL d   1     -46.363  13.547  22.667  0.00  0.00    -0.155 N 
ATOM      2  N   UNL d   1     -45.579  13.612  22.456  0.00  0.00    -0.153 NA
ATOM      3  C   UNL d   1     -46.600  12.782  22.537  0.00  0.00     0.098 A 
ATOM      4  C   UNL d   1     -45.333  12.879  22.194  0.00  0.00     0.126 A 
ATOM      5  C   UNL d   1     -45.957  12.361  22.241  0.00  0.00     0.043 A 
ENDROOT
BRANCH   3   6
ATOM      6  C   UNL d   1     -47.352  12.475  22.675  0.00  0.00     0.047 A 
ATOM      7  C   UNL d   1     -47.462  11.898  23.256  0.00  0.00     0.140 A 
ATOM      8  N   UNL d   1     -48.217  11.590  23.393  0.00  0.00    -0.234 NA
ATOM      9 CL   UNL d   1     -46.819  11.629  23.696  0.00  0.00    -0.061 Cl
ATOM     10  C   UNL d   1     -48.861  11.859  22.952  0.00  0.00     0.082 A 
ATOM     11  C   UNL d   1     -48.751  12.436  22.372  0.00  0.00     0.018 A 
ATOM     12  C   UNL d   1     -49.613  11.551  23.091  0.00  0.00     0.019 A 
ATOM     13  C   UNL d   1     -47.998  12.743  22.234  0.00  0.00     0.005 A 
ATOM     14  C   UNL d   1     -49.394  12.705  21.931  0.00  0.00     0.002 A 
ATOM     15  C   UNL d   1     -50.118  12.398  22.076  0.00  0.00     0.000 A 
ATOM     16  C   UNL d   1     -50.228  11.821  22.656  0.00  0.00     0.002 A 
ATOM     17  C   UNL d   1     -50.762  12.667  21.635  0.00  0.00     0.000 C 
ENDBRANCH   3   6
BRANCH   1  18
ATOM     18  S   UNL d   1     -46.414  14.333  22.886  0.00  0.00     0.266 S 
ATOM     19  O   UNL d   1     -46.173  14.585  23.625  0.00  0.00    -0.203 OA
ATOM     20  O   UNL d   1     -46.732  14.719  22.229  0.00  0.00    -0.203 OA
ATOM     21  C   UNL d   1     -46.544  15.147  22.909  0.00  0.00     0.165 C 
ENDBRANCH   1  18
BRANCH   4  22
ATOM     22  C   UNL d   1     -44.585  12.696  21.929  0.00  0.00     0.119 A 
ATOM     23  O   UNL d   1     -44.197  13.002  21.285  0.00  0.00    -0.304 OA
ATOM     24  C   UNL d   1     -43.459  12.662  21.225  0.00  0.00     0.123 A 
ATOM     25  C   UNL d   1     -43.373  12.132  21.837  0.00  0.00     0.029 A 
ATOM     26  C   UNL d   1     -44.061  12.140  22.284  0.00  0.00     0.028 A 
ENDBRANCH   4  22
TORSDOF 3
ENDMDL
MODEL 5
REMARK VINA RESULT:      -6.7      8.393     10.340
REMARK  3 active torsions:
REMARK  status: ('A' for Active; 'I' for Inactive)
REMARK    1  A    between atoms: S_3  and  N_1 
REMARK    2  A    between atoms: C_5  and  C_4 
REMARK    3  A    between atoms: C_11  and  C_6 
ROOT
ATOM      1  N   UNL d   1     -38.870  14.078  17.699  0.00  0.00    -0.155 N 
ATOM      2  N   UNL d   1     -38.492  14.111  16.978  0.00  0.00    -0.153 NA
ATOM      3  C   UNL d   1     -39.258  14.781  17.816  0.00  0.00     0.098 A 
ATOM      4  C   UNL d   1     -38.650  14.842  16.650  0.00  0.00     0.126 A 
ATOM      5  C   UNL d   1     -39.122  15.262  17.161  0.00  0.00     0.043 A 
ENDROOT
BRANCH   3   6
ATOM      6  C   UNL d   1     -39.710  14.984  18.475  0.00  0.00     0.047 A 
ATOM      7  C   UNL d   1     -40.534  15.006  18.419  0.00  0.00     0.140 A 
ATOM      8  N   UNL d   1     -40.987  15.210  19.080  0.00  0.00    -0.234 NA
ATOM      9 CL   UNL d   1     -40.903  14.827  17.704  0.00  0.00    -0.061 Cl
ATOM     10  C   UNL d   1     -40.617  15.390  19.796  0.00  0.00     0.082 A 
ATOM     11  C   UNL d   1     -39.794  15.367  19.852  0.00  0.00     0.018 A 
ATOM     12  C   UNL d   1     -41.070  15.592  20.455  0.00  0.00     0.019 A 
ATOM     13  C   UNL d   1     -39.341  15.164  19.193  0.00  0.00     0.005 A 
ATOM     14  C   UNL d   1     -39.424  15.547  20.567  0.00  0.00     0.002 A 
ATOM     15  C   UNL d   1     -39.875  15.741  21.198  0.00  0.00     0.000 A 
ATOM     16  C   UNL d   1     -40.699  15.764  21.141  0.00  0.00     0.002 A 
ATOM     17  C   UNL d   1     -39.506  15.921  21.913  0.00  0.00     0.000 C 
ENDBRANCH   3   6
BRANCH   1  18
ATOM     18  S   UNL d   1     -38.605  13.320  17.851  0.00  0.00     0.266 S 
ATOM     19  O   UNL d   1     -37.955  13.185  18.328  0.00  0.00    -0.203 OA
ATOM     20  O   UNL d   1     -39.120  12.825  17.437  0.00  0.00    -0.203 OA
ATOM     21  C   UNL d   1     -38.502  12.502  17.878  0.00  0.00     0.165 C 
ENDBRANCH   1  18
BRANCH   4  22
ATOM     22  C   UNL d   1     -38.379  15.109  15.930  0.00  0.00     0.119 A 
ATOM     23  O   UNL d   1     -38.238  14.672  15.260  0.00  0.00    -0.304 OA
ATOM     24  C   UNL d   1     -37.971  15.162  14.666  0.00  0.00     0.123 A 
ATOM     25  C   UNL d   1     -37.942  15.922  14.959  0.00  0.00     0.029 A 
ATOM     26  C   UNL d   1     -38.191  15.908  15.741  0.00  0.00     0.028 A 
ENDBRANCH   4  22
TORSDOF 3
ENDMDL
MODEL 6
REMARK VINA RESULT:      -6.6      9.123     10.274
REMARK  3 active torsions:
REMARK  status: ('A' for Active; 'I' for Inactive)
REMARK    1  A    between atoms: S_3  and  N_1 
REMARK    2  A    between atoms: C_5  and  C_4 
REMARK    3  A    between atoms: C_11  and  C_6 
ROOT
ATOM      1  N   UNL d   1     -39.124  14.242  18.128  0.00  0.00    -0.155 N 
ATOM      2  N   UNL d   1     -39.595  14.408  17.484  0.00  0.00    -0.153 NA
ATOM      3  C   UNL d   1     -39.312  14.761  18.722  0.00  0.00     0.098 A 
ATOM      4  C   UNL d   1     -40.076  15.036  17.685  0.00  0.00     0.126 A 
ATOM      5  C   UNL d   1     -39.908  15.260  18.447  0.00  0.00     0.043 A 
ENDROOT
BRANCH   3   6
ATOM      6  C   UNL d   1     -38.970  14.790  19.471  0.00  0.00     0.047 A 
ATOM      7  C   UNL d   1     -38.335  15.298  19.616  0.00  0.00     0.140 A 
ATOM      8  N   UNL d   1     -37.992  15.325  20.368  0.00  0.00    -0.234 NA
ATOM      9 CL   UNL d   1     -38.044  15.777  19.011  0.00  0.00    -0.061 Cl
ATOM     10  C   UNL d   1     -38.283  14.846  20.974  0.00  0.00     0.082 A 
ATOM     11  C   UNL d   1     -38.918  14.337  20.829  0.00  0.00     0.018 A 
ATOM     12  C   UNL d   1     -37.940  14.874  21.723  0.00  0.00     0.019 A 
ATOM     13  C   UNL d   1     -39.260  14.310  20.079  0.00  0.00     0.005 A 
ATOM     14  C   UNL d   1     -39.208  13.858  21.434  0.00  0.00     0.002 A 
ATOM     15  C   UNL d   1     -38.867  13.896  22.155  0.00  0.00     0.000 A 
ATOM     16  C   UNL d   1     -38.232  14.404  22.300  0.00  0.00     0.002 A 
ATOM     17  C   UNL d   1     -39.157  13.416  22.761  0.00  0.00     0.000 C 
ENDBRANCH   3   6
BRANCH   1  18
ATOM     18  S   UNL d   1     -38.745  13.627  17.746  0.00  0.00     0.266 S 
ATOM     19  O   UNL d   1     -38.133  13.765  17.221  0.00  0.00    -0.203 OA
ATOM     20  O   UNL d   1     -39.117  12.942  18.018  0.00  0.00    -0.203 OA
ATOM     21  C   UNL d   1     -38.500  12.888  17.473  0.00  0.00     0.165 C 
ENDBRANCH   1  18
BRANCH   4  22
ATOM     22  C   UNL d   1     -40.633  15.382  17.202  0.00  0.00     0.119 A 
ATOM     23  O   UNL d   1     -40.553  15.591  16.422  0.00  0.00    -0.304 OA
ATOM     24  C   UNL d   1     -41.249  15.921  16.155  0.00  0.00     0.123 A 
ATOM     25  C   UNL d   1     -41.781  15.922  16.772  0.00  0.00     0.029 A 
ATOM     26  C   UNL d   1     -41.417  15.591  17.429  0.00  0.00     0.028 A 
ENDBRANCH   4  22
TORSDOF 3
ENDMDL
MODEL 7
REMARK VINA RESULT:      -6.3      7.049      9.073
REMARK  3 active torsions:
REMARK  status: ('A' for Active; 'I' for Inactive)
REMARK    1  A    between atoms: S_3  and  N_1 
REMARK    2  A    between atoms: C_5  and  C_4 
REMARK    3  A    between atoms: C_11  and  C_6 
ROOT
ATOM      1  N   UNL d   1     -40.482  14.609  20.758  0.00  0.00    -0.155 N 
ATOM      2  N   UNL d   1     -40.258  14.740  21.530  0.00  0.00    -0.153 NA
ATOM      3  C   UNL d   1     -39.843  14.749  20.279  0.00  0.00     0.098 A 
ATOM      4  C   UNL d   1     -39.472  14.963  21.524  0.00  0.00     0.126 A 
ATOM      5  C   UNL d   1     -39.208  14.971  20.756  0.00  0.00     0.043 A 
ENDROOT
BRANCH   3   6
ATOM      6  C   UNL d   1     -39.826  14.682  19.457  0.00  0.00     0.047 A 
ATOM      7  C   UNL d   1     -39.303  14.155  19.097  0.00  0.00     0.140 A 
ATOM      8  N   UNL d   1     -39.287  14.089  18.272  0.00  0.00    -0.234 NA
ATOM      9 CL   UNL d   1     -38.798  13.695  19.558  0.00  0.00    -0.061 Cl
ATOM     10  C   UNL d   1     -39.792  14.549  17.810  0.00  0.00     0.082 A 
ATOM     11  C   UNL d   1     -40.315  15.077  18.170  0.00  0.00     0.018 A 
ATOM     12  C   UNL d   1     -39.775  14.482  16.988  0.00  0.00     0.019 A 
ATOM     13  C   UNL d   1     -40.332  15.143  18.993  0.00  0.00     0.005 A 
ATOM     14  C   UNL d   1     -40.820  15.537  17.709  0.00  0.00     0.002 A 
ATOM     15  C   UNL d   1     -40.793  15.462  16.913  0.00  0.00     0.000 A 
ATOM     16  C   UNL d   1     -40.270  14.934  16.553  0.00  0.00     0.002 A 
ATOM     17  C   UNL d   1     -41.298  15.922  16.451  0.00  0.00     0.000 C 
ENDBRANCH   3   6
BRANCH   1  18
ATOM     18  S   UNL d   1     -41.246  14.410  20.969  0.00  0.00     0.266 S 
ATOM     19  O   UNL d   1     -41.822  14.981  21.072  0.00  0.00    -0.203 OA
ATOM     20  O   UNL d   1     -41.244  13.587  21.033  0.00  0.00    -0.203 OA
ATOM     21  C   UNL d   1     -41.937  14.010  21.178  0.00  0.00     0.165 C 
ENDBRANCH   1  18
BRANCH   4  22
ATOM     22  C   UNL d   1     -39.025  15.147  22.179  0.00  0.00     0.119 A 
ATOM     23  O   UNL d   1     -38.619  14.637  22.663  0.00  0.00    -0.304 OA
ATOM     24  C   UNL d   1     -38.246  15.059  23.252  0.00  0.00     0.123 A 
ATOM     25  C   UNL d   1     -38.416  15.848  23.145  0.00  0.00     0.029 A 
ATOM     26  C   UNL d   1     -38.898  15.922  22.484  0.00  0.00     0.028 A 
ENDBRANCH   4  22
TORSDOF 3
ENDMDL
MODEL 8
REMARK VINA RESULT:      -6.1      8.646     10.612
REMARK  3 active torsions:
REMARK  status: ('A' for Active; 'I' for Inactive)
REMARK    1  A    between atoms: S_3  and  N_1 
REMARK    2  A    between atoms: C_5  and  C_4 
REMARK    3  A    between atoms: C_11  and  C_6 
ROOT
ATOM      1  N   UNL d   1     -39.696  14.303  18.881  0.00  0.00    -0.155 N 
ATOM      2  N   UNL d   1     -39.684  14.290  19.696  0.00  0.00    -0.153 NA
ATOM      3  C   UNL d   1     -38.965  14.079  18.610  0.00  0.00     0.098 A 
ATOM      4  C   UNL d   1     -38.936  14.056  19.927  0.00  0.00     0.126 A 
ATOM      5  C   UNL d   1     -38.487  13.923  19.263  0.00  0.00     0.043 A 
ENDROOT
BRANCH   3   6
ATOM      6  C   UNL d   1     -38.736  14.016  17.821  0.00  0.00     0.047 A 
ATOM      7  C   UNL d   1     -38.621  13.272  17.482  0.00  0.00     0.140 A 
ATOM      8  N   UNL d   1     -38.391  13.210  16.691  0.00  0.00    -0.234 NA
ATOM      9 CL   UNL d   1     -38.735  12.592  17.934  0.00  0.00    -0.061 Cl
ATOM     10  C   UNL d   1     -38.276  13.891  16.238  0.00  0.00     0.082 A 
ATOM     11  C   UNL d   1     -38.391  14.635  16.577  0.00  0.00     0.018 A 
ATOM     12  C   UNL d   1     -38.047  13.828  15.449  0.00  0.00     0.019 A 
ATOM     13  C   UNL d   1     -38.621  14.698  17.367  0.00  0.00     0.005 A 
ATOM     14  C   UNL d   1     -38.277  15.316  16.125  0.00  0.00     0.002 A 
ATOM     15  C   UNL d   1     -38.055  15.240  15.361  0.00  0.00     0.000 A 
ATOM     16  C   UNL d   1     -37.940  14.496  15.022  0.00  0.00     0.002 A 
ATOM     17  C   UNL d   1     -37.940  15.921  14.909  0.00  0.00     0.000 C 
ENDBRANCH   3   6
BRANCH   1  18
ATOM     18  S   UNL d   1     -40.476  14.545  18.855  0.00  0.00     0.266 S 
ATOM     19  O   UNL d   1     -41.085  14.048  19.082  0.00  0.00    -0.203 OA
ATOM     20  O   UNL d   1     -40.451  15.320  18.572  0.00  0.00    -0.203 OA
ATOM     21  C   UNL d   1     -41.176  14.971  18.756  0.00  0.00     0.165 C 
ENDBRANCH   1  18
BRANCH   4  22
ATOM     22  C   UNL d   1     -38.682  13.969  20.695  0.00  0.00     0.119 A 
ATOM     23  O   UNL d   1     -38.715  13.301  21.157  0.00  0.00    -0.304 OA
ATOM     24  C   UNL d   1     -38.399  13.462  21.890  0.00  0.00     0.123 A 
ATOM     25  C   UNL d   1     -38.159  14.240  21.899  0.00  0.00     0.029 A 
ATOM     26  C   UNL d   1     -38.327  14.570  21.166  0.00  0.00     0.028 A 
ENDBRANCH   4  22
TORSDOF 3
ENDMDL
MODEL 9
REMARK VINA RESULT:      -5.4      2.001      4.583
REMARK  3 active torsions:
REMARK  status: ('A' for Active; 'I' for Inactive)
REMARK    1  A    between atoms: S_3  and  N_1 
REMARK    2  A    between atoms: C_5  and  C_4 
REMARK    3  A    between atoms: C_11  and  C_6 
ROOT
ATOM      1  N   UNL d   1     -48.270  12.481  22.560  0.00  0.00    -0.155 N 
ATOM      2  N   UNL d   1     -49.068  12.522  22.399  0.00  0.00    -0.153 NA
ATOM      3  C   UNL d   1     -47.921  13.163  22.295  0.00  0.00     0.098 A 
ATOM      4  C   UNL d   1     -49.208  13.237  22.031  0.00  0.00     0.126 A 
ATOM      5  C   UNL d   1     -48.506  13.639  21.963  0.00  0.00     0.043 A 
ENDROOT
BRANCH   3   6
ATOM      6  C   UNL d   1     -47.120  13.352  22.346  0.00  0.00     0.047 A 
ATOM      7  C   UNL d   1     -46.873  13.975  22.829  0.00  0.00     0.140 A 
ATOM      8  N   UNL d   1     -46.069  14.163  22.879  0.00  0.00    -0.234 NA
ATOM      9 CL   UNL d   1     -47.427  14.408  23.259  0.00  0.00    -0.061 Cl
ATOM     10  C   UNL d   1     -45.514  13.730  22.449  0.00  0.00     0.082 A 
ATOM     11  C   UNL d   1     -45.761  13.107  21.967  0.00  0.00     0.018 A 
ATOM     12  C   UNL d   1     -44.713  13.919  22.501  0.00  0.00     0.019 A 
ATOM     13  C   UNL d   1     -46.563  12.918  21.916  0.00  0.00     0.005 A 
ATOM     14  C   UNL d   1     -45.207  12.674  21.537  0.00  0.00     0.002 A 
ATOM     15  C   UNL d   1     -44.434  12.868  21.596  0.00  0.00     0.000 A 
ATOM     16  C   UNL d   1     -44.186  13.491  22.078  0.00  0.00     0.002 A 
ATOM     17  C   UNL d   1     -43.878  12.434  21.166  0.00  0.00     0.000 C 
ENDBRANCH   3   6
BRANCH   1  18
ATOM     18  S   UNL d   1     -48.335  11.742  22.904  0.00  0.00     0.266 S 
ATOM     19  O   UNL d   1     -48.232  11.059  22.467  0.00  0.00    -0.203 OA
ATOM     20  O   UNL d   1     -48.508  11.889  23.698  0.00  0.00    -0.203 OA
ATOM     21  C   UNL d   1     -48.439  11.113  23.427  0.00  0.00     0.165 C 
ENDBRANCH   1  18
BRANCH   4  22
ATOM     22  C   UNL d   1     -49.933  13.506  21.774  0.00  0.00     0.119 A 
ATOM     23  O   UNL d   1     -50.375  14.114  22.081  0.00  0.00    -0.304 OA
ATOM     24  C   UNL d   1     -51.064  14.193  21.653  0.00  0.00     0.123 A 
ATOM     25  C   UNL d   1     -51.063  13.629  21.065  0.00  0.00     0.029 A 
ATOM     26  C   UNL d   1     -50.370  13.193  21.125  0.00  0.00     0.028 A 
ENDBRANCH   4  22
TORSDOF 3
ENDMDL
