MODEL 1
REMARK VINA RESULT:      83.7      0.000      0.000
REMARK  5 active torsions:
REMARK  status: ('A' for Active; 'I' for Inactive)
REMARK    1  A    between atoms: O_5  and  C_1 
REMARK    2  A    between atoms: C_10  and  C_2 
REMARK    3  A    between atoms: C_3  and  O_5 
REMARK    4  A    between atoms: C_6  and  C_3 
REMARK    5  A    between atoms: N_11  and  C_10 
ROOT
ATOM      1  C   UNL d   1      58.165  49.706  52.320  0.00  0.00     0.122 A 
ATOM      2  C   UNL d   1      57.447  49.705  51.913  0.00  0.00     0.043 A 
ATOM      3  C   UNL d   1      58.170  49.706  53.145  0.00  0.00     0.105 A 
ATOM      4  C   UNL d   1      57.459  49.705  53.562  0.00  0.00     0.030 A 
ATOM      5  C   UNL d   1      56.750  49.704  53.150  0.00  0.00     0.059 A 
ATOM      6  C   UNL d   1      56.736  49.704  52.330  0.00  0.00     0.015 A 
ATOM      7  N   UNL d   1      58.883  49.707  53.545  0.00  0.00    -0.242 NA
ATOM      8 CL   UNL d   1      56.043  49.703  53.594  0.00  0.00    -0.082 Cl
ATOM      9  C   UNL d   1      57.469  49.705  54.375  0.00  0.00     0.004 A 
ATOM     10  C   UNL d   1      58.888  49.707  54.370  0.00  0.00     0.099 A 
ATOM     11  C   UNL d   1      58.177  49.706  54.787  0.00  0.00     0.021 A 
ENDROOT
BRANCH   1  12
ATOM     12  O   UNL d   1      58.815  49.707  51.952  0.00  0.00    -0.271 OA
BRANCH  12  13
ATOM     13  C   UNL d   1      59.736  49.445  52.059  0.00  0.00     0.302 C 
ATOM     14  O   UNL d   1      60.090  49.564  52.992  0.00  0.00    -0.259 OA
BRANCH  13  15
ATOM     15  C   UNL d   1      60.175  49.151  51.427  0.00  0.00     0.091 A 
ATOM     16  C   UNL d   1      60.709  48.526  51.549  0.00  0.00     0.145 A 
ATOM     17  F   UNL d   1      60.847  48.140  52.323  0.00  0.00    -0.204 F 
ATOM     18  C   UNL d   1      61.152  48.231  50.907  0.00  0.00     0.030 A 
ATOM     19  C   UNL d   1      61.062  48.560  50.144  0.00  0.00     0.002 A 
ATOM     20  C   UNL d   1      60.528  49.184  50.027  0.00  0.00     0.000 A 
ATOM     21  C   UNL d   1      60.086  49.478  50.669  0.00  0.00     0.008 A 
ENDBRANCH  13  15
ENDBRANCH  12  13
ENDBRANCH   1  12
BRANCH   2  22
ATOM     22  C   UNL d   1      57.244  49.705  51.026  0.00  0.00     0.082 C 
BRANCH  22  23
ATOM     23  N   UNL d   1      56.918  49.033  50.687  0.00  0.00    -0.299 N 
ATOM     24  C   UNL d   1      56.971  48.316  51.075  0.00  0.00     0.107 A 
ATOM     25  C   UNL d   1      56.646  47.631  50.745  0.00  0.00     0.142 A 
ATOM     26  O   UNL d   1      56.270  47.679  50.023  0.00  0.00    -0.300 OA
ATOM     27  C   UNL d   1      56.215  48.405  49.626  0.00  0.00     0.142 A 
ATOM     28  C   UNL d   1      56.541  49.075  49.967  0.00  0.00     0.107 A 
ENDBRANCH  22  23
ENDBRANCH   2  22
TORSDOF 5
ENDMDL
