MODEL 1
REMARK VINA RESULT:      69.3      0.000      0.000
REMARK  4 active torsions:
REMARK  status: ('A' for Active; 'I' for Inactive)
REMARK    1  A    between atoms: C_2  and  S_1 
REMARK    2  A    between atoms: N_3  and  S_1 
REMARK    3  A    between atoms: C_4  and  C_6 
REMARK       I    between atoms: N_5  and  C_4 
REMARK    4  A    between atoms: C_11  and  N_8 
ROOT
ATOM      1  C   UNL d   1     -51.358  26.009  33.453  0.00  0.00     0.104 A 
ATOM      2  C   UNL d   1     -50.138  26.732  33.573  0.00  0.00     0.057 A 
ATOM      3  C   UNL d   1     -50.543  26.012  33.541  0.00  0.00     0.018 A 
ATOM      4  C   UNL d   1     -51.778  26.712  33.396  0.00  0.00     0.012 A 
ATOM      5  C   UNL d   1     -50.553  27.442  33.516  0.00  0.00     0.005 A 
ATOM      6  C   UNL d   1     -51.373  27.432  33.428  0.00  0.00     0.001 A 
ATOM      7  C   UNL d   1     -52.594  26.709  33.309  0.00  0.00     0.001 C 
ENDROOT
BRANCH   2   8
ATOM      8  C   UNL d   1     -49.317  26.752  33.661  0.00  0.00     0.265 C 
ATOM      9  N   UNL d   1     -48.975  27.356  34.107  0.00  0.00    -0.269 N 
ATOM     10  C   UNL d   1     -48.162  27.379  34.197  0.00  0.00     0.102 A 
ATOM     11  C   UNL d   1     -49.457  27.928  34.456  0.00  0.00     0.102 A 
ATOM     12  C   UNL d   1     -47.819  27.983  34.643  0.00  0.00     0.100 A 
ATOM     13  N   UNL d   1     -48.295  28.559  34.995  0.00  0.00    -0.301 N 
ATOM     14  C   UNL d   1     -49.112  28.530  34.900  0.00  0.00     0.100 A 
ATOM     15  O   UNL d   1     -48.853  26.178  33.309  0.00  0.00    -0.267 OA
BRANCH  13  16
ATOM     16  C   UNL d   1     -47.952  29.163  35.441  0.00  0.00     0.064 A 
ATOM     17  C   UNL d   1     -47.612  29.813  35.059  0.00  0.00     0.020 A 
ATOM     18  C   UNL d   1     -47.270  30.417  35.506  0.00  0.00     0.031 A 
ATOM     19  C   UNL d   1     -47.264  30.377  36.329  0.00  0.00     0.140 A 
ATOM     20  C   UNL d   1     -47.609  29.719  36.710  0.00  0.00     0.031 A 
ATOM     21  F   UNL d   1     -46.922  30.980  36.776  0.00  0.00    -0.204 F 
ATOM     22  C   UNL d   1     -47.952  29.115  36.265  0.00  0.00     0.020 A 
ENDBRANCH  13  16
ENDBRANCH   2   8
BRANCH   1  23
ATOM     23  S   UNL d   1     -51.763  25.288  33.422  0.00  0.00     0.271 S 
ATOM     24  O   UNL d   1     -51.050  24.883  33.520  0.00  0.00    -0.200 OA
ATOM     25  O   UNL d   1     -52.585  25.755  33.308  0.00  0.00    -0.200 OA
BRANCH  23  26
ATOM     26  N   UNL d   1     -52.220  24.603  33.383  0.00  0.00    -0.229 N 
ATOM     27  C   UNL d   1     -53.040  24.667  33.374  0.00  0.00     0.092 A 
ATOM     28  C   UNL d   1     -53.502  23.980  33.335  0.00  0.00     0.020 A 
ATOM     29  C   UNL d   1     -53.133  23.246  33.306  0.00  0.00     0.003 A 
ATOM     30  C   UNL d   1     -52.320  23.189  33.314  0.00  0.00     0.020 A 
ATOM     31  C   UNL d   1     -51.861  23.862  33.353  0.00  0.00     0.092 A 
ENDBRANCH  23  26
ENDBRANCH   1  23
TORSDOF 4
ENDMDL
