MODEL 1
REMARK VINA RESULT:      -2.6      0.000      0.000
REMARK  5 active torsions:
REMARK  status: ('A' for Active; 'I' for Inactive)
REMARK    1  A    between atoms: N_2  and  S_1 
REMARK    2  A    between atoms: C_5  and  S_1 
REMARK    3  A    between atoms: S_6  and  C_3 
REMARK    4  A    between atoms: C_15  and  S_6 
REMARK    5  A    between atoms: C_14  and  C_15 
ROOT
ATOM      1  N   UNL d   1      31.419  16.717 -24.376  0.00  0.00    -0.208 N 
ATOM      2  C   UNL d   1      32.074  16.983 -23.941  0.00  0.00     0.189 A 
ATOM      3  N   UNL d   1      32.533  16.328 -23.739  0.00  0.00    -0.219 NA
ATOM      4  C   UNL d   1      31.476  15.890 -24.442  0.00  0.00     0.114 A 
ATOM      5  C   UNL d   1      32.162  15.656 -24.050  0.00  0.00     0.121 A 
ENDROOT
BRANCH   1   6
ATOM      6  S   UNL d   1      30.816  17.194 -24.687  0.00  0.00     0.273 S 
ATOM      7  O   UNL d   1      30.415  17.790 -25.097  0.00  0.00    -0.200 OA
ATOM      8  O   UNL d   1      31.403  17.638 -25.045  0.00  0.00    -0.200 OA
BRANCH   6   9
ATOM      9  C   UNL d   1      30.211  16.757 -24.334  0.00  0.00     0.104 A 
ATOM     10  C   UNL d   1      29.886  16.122 -24.741  0.00  0.00     0.013 A 
ATOM     11  C   UNL d   1      29.280  15.688 -24.383  0.00  0.00     0.001 A 
ATOM     12  C   UNL d   1      29.007  15.890 -23.630  0.00  0.00     0.000 A 
ATOM     13  C   UNL d   1      29.341  16.532 -23.230  0.00  0.00     0.001 A 
ATOM     14  C   UNL d   1      28.401  15.453 -23.277  0.00  0.00     0.000 C 
ATOM     15  C   UNL d   1      29.947  16.967 -23.587  0.00  0.00     0.013 A 
ENDBRANCH   6   9
ENDBRANCH   1   6
BRANCH   2  16
ATOM     16  S   UNL d   1      32.238  17.775 -23.744  0.00  0.00    -0.049 SA
BRANCH  16  17
ATOM     17  C   UNL d   1      32.950  17.966 -23.376  0.00  0.00     0.040 C 
BRANCH  17  18
ATOM     18  C   UNL d   1      33.047  18.707 -23.033  0.00  0.00     0.026 A 
ATOM     19  C   UNL d   1      33.048  19.394 -23.514  0.00  0.00     0.099 A 
ATOM     20  N   UNL d   1      33.144  20.141 -23.187  0.00  0.00    -0.242 NA
ATOM     21  C   UNL d   1      33.240  20.204 -22.371  0.00  0.00     0.099 A 
ATOM     22  C   UNL d   1      33.240  19.533 -21.894  0.00  0.00     0.021 A 
ATOM     23  C   UNL d   1      33.143  18.785 -22.227  0.00  0.00     0.004 A 
ENDBRANCH  17  18
ENDBRANCH  16  17
ENDBRANCH   2  16
TORSDOF 5
ENDMDL
MODEL 2
REMARK VINA RESULT:      -2.3      0.944      1.363
REMARK  5 active torsions:
REMARK  status: ('A' for Active; 'I' for Inactive)
REMARK    1  A    between atoms: N_2  and  S_1 
REMARK    2  A    between atoms: C_5  and  S_1 
REMARK    3  A    between atoms: S_6  and  C_3 
REMARK    4  A    between atoms: C_15  and  S_6 
REMARK    5  A    between atoms: C_14  and  C_15 
ROOT
ATOM      1  N   UNL d   1      32.446  17.536 -24.003  0.00  0.00    -0.208 N 
ATOM      2  C   UNL d   1      32.817  17.868 -23.339  0.00  0.00     0.189 A 
ATOM      3  N   UNL d   1      33.241  17.272 -22.955  0.00  0.00    -0.219 NA
ATOM      4  C   UNL d   1      32.643  16.729 -24.028  0.00  0.00     0.114 A 
ATOM      5  C   UNL d   1      33.131  16.571 -23.383  0.00  0.00     0.121 A 
ENDROOT
BRANCH   1   6
ATOM      6  S   UNL d   1      31.965  17.941 -24.543  0.00  0.00     0.273 S 
ATOM      7  O   UNL d   1      31.692  18.491 -25.097  0.00  0.00    -0.200 OA
ATOM      8  O   UNL d   1      32.587  18.462 -24.650  0.00  0.00    -0.200 OA
BRANCH   6   9
ATOM      9  C   UNL d   1      31.327  17.425 -24.448  0.00  0.00     0.104 A 
ATOM     10  C   UNL d   1      31.351  16.689 -24.810  0.00  0.00     0.013 A 
ATOM     11  C   UNL d   1      30.710  16.176 -24.712  0.00  0.00     0.001 A 
ATOM     12  C   UNL d   1      30.057  16.401 -24.257  0.00  0.00     0.000 A 
ATOM     13  C   UNL d   1      30.045  17.146 -23.898  0.00  0.00     0.001 A 
ATOM     14  C   UNL d   1      29.420  15.886 -24.162  0.00  0.00     0.000 C 
ATOM     15  C   UNL d   1      30.685  17.659 -23.995  0.00  0.00     0.013 A 
ENDBRANCH   6   9
ENDBRANCH   1   6
BRANCH   2  16
ATOM     16  S   UNL d   1      32.770  18.664 -23.102  0.00  0.00    -0.049 SA
BRANCH  16  17
ATOM     17  C   UNL d   1      33.061  18.890 -22.365  0.00  0.00     0.040 C 
BRANCH  17  18
ATOM     18  C   UNL d   1      33.047  19.683 -22.145  0.00  0.00     0.026 A 
ATOM     19  C   UNL d   1      33.241  20.276 -22.705  0.00  0.00     0.099 A 
ATOM     20  N   UNL d   1      33.232  21.071 -22.500  0.00  0.00    -0.242 NA
ATOM     21  C   UNL d   1      33.026  21.277 -21.730  0.00  0.00     0.099 A 
ATOM     22  C   UNL d   1      32.835  20.699 -21.177  0.00  0.00     0.021 A 
ATOM     23  C   UNL d   1      32.845  19.902 -21.386  0.00  0.00     0.004 A 
ENDBRANCH  17  18
ENDBRANCH  16  17
ENDBRANCH   2  16
TORSDOF 5
ENDMDL
MODEL 3
REMARK VINA RESULT:      -2.2      1.596      2.495
REMARK  5 active torsions:
REMARK  status: ('A' for Active; 'I' for Inactive)
REMARK    1  A    between atoms: N_2  and  S_1 
REMARK    2  A    between atoms: C_5  and  S_1 
REMARK    3  A    between atoms: S_6  and  C_3 
REMARK    4  A    between atoms: C_15  and  S_6 
REMARK    5  A    between atoms: C_14  and  C_15 
ROOT
ATOM      1  N   UNL d   1      32.891  18.357 -23.496  0.00  0.00    -0.208 N 
ATOM      2  C   UNL d   1      33.010  18.747 -22.772  0.00  0.00     0.189 A 
ATOM      3  N   UNL d   1      33.226  18.184 -22.208  0.00  0.00    -0.219 NA
ATOM      4  C   UNL d   1      33.036  17.547 -23.376  0.00  0.00     0.114 A 
ATOM      5  C   UNL d   1      33.241  17.446 -22.583  0.00  0.00     0.121 A 
ENDROOT
BRANCH   1   6
ATOM      6  S   UNL d   1      32.669  18.716 -24.209  0.00  0.00     0.273 S 
ATOM      7  O   UNL d   1      32.629  19.235 -24.852  0.00  0.00    -0.200 OA
ATOM      8  O   UNL d   1      33.241  19.282 -24.061  0.00  0.00    -0.200 OA
BRANCH   6   9
ATOM      9  C   UNL d   1      32.088  18.153 -24.376  0.00  0.00     0.104 A 
ATOM     10  C   UNL d   1      31.347  18.228 -24.029  0.00  0.00     0.013 A 
ATOM     11  C   UNL d   1      30.768  17.663 -24.199  0.00  0.00     0.001 A 
ATOM     12  C   UNL d   1      30.933  17.033 -24.709  0.00  0.00     0.000 A 
ATOM     13  C   UNL d   1      31.682  16.968 -25.052  0.00  0.00     0.001 A 
ATOM     14  C   UNL d   1      30.352  16.471 -24.875  0.00  0.00     0.000 C 
ATOM     15  C   UNL d   1      32.262  17.533 -24.883  0.00  0.00     0.013 A 
ENDBRANCH   6   9
ENDBRANCH   1   6
BRANCH   2  16
ATOM     16  S   UNL d   1      32.925  19.564 -22.640  0.00  0.00    -0.049 SA
BRANCH  16  17
ATOM     17  C   UNL d   1      33.070  19.874 -21.891  0.00  0.00     0.040 C 
BRANCH  17  18
ATOM     18  C   UNL d   1      32.903  20.665 -21.736  0.00  0.00     0.026 A 
ATOM     19  C   UNL d   1      33.238  21.265 -22.217  0.00  0.00     0.099 A 
ATOM     20  N   UNL d   1      33.081  22.058 -22.076  0.00  0.00    -0.242 NA
ATOM     21  C   UNL d   1      32.585  22.256 -21.448  0.00  0.00     0.099 A 
ATOM     22  C   UNL d   1      32.255  21.671 -20.973  0.00  0.00     0.021 A 
ATOM     23  C   UNL d   1      32.415  20.876 -21.119  0.00  0.00     0.004 A 
ENDBRANCH  17  18
ENDBRANCH  16  17
ENDBRANCH   2  16
TORSDOF 5
ENDMDL
MODEL 4
REMARK VINA RESULT:      -1.8      0.922      1.216
REMARK  5 active torsions:
REMARK  status: ('A' for Active; 'I' for Inactive)
REMARK    1  A    between atoms: N_2  and  S_1 
REMARK    2  A    between atoms: C_5  and  S_1 
REMARK    3  A    between atoms: S_6  and  C_3 
REMARK    4  A    between atoms: C_15  and  S_6 
REMARK    5  A    between atoms: C_14  and  C_15 
ROOT
ATOM      1  N   UNL d   1      30.178  16.642 -24.656  0.00  0.00    -0.208 N 
ATOM      2  C   UNL d   1      30.983  16.762 -24.489  0.00  0.00     0.189 A 
ATOM      3  N   UNL d   1      31.359  16.026 -24.494  0.00  0.00    -0.219 NA
ATOM      4  C   UNL d   1      30.059  15.827 -24.765  0.00  0.00     0.114 A 
ATOM      5  C   UNL d   1      30.787  15.453 -24.665  0.00  0.00     0.121 A 
ENDROOT
BRANCH   1   6
ATOM      6  S   UNL d   1      29.600  17.234 -24.704  0.00  0.00     0.273 S 
ATOM      7  O   UNL d   1      29.212  17.945 -24.871  0.00  0.00    -0.200 OA
ATOM      8  O   UNL d   1      30.153  17.692 -25.097  0.00  0.00    -0.200 OA
BRANCH   6   9
ATOM      9  C   UNL d   1      29.029  16.787 -24.309  0.00  0.00     0.104 A 
ATOM     10  C   UNL d   1      28.645  16.183 -24.711  0.00  0.00     0.013 A 
ATOM     11  C   UNL d   1      28.074  15.738 -24.311  0.00  0.00     0.001 A 
ATOM     12  C   UNL d   1      27.894  15.900 -23.521  0.00  0.00     0.000 A 
ATOM     13  C   UNL d   1      28.286  16.511 -23.126  0.00  0.00     0.001 A 
ATOM     14  C   UNL d   1      27.323  15.453 -23.126  0.00  0.00     0.000 C 
ATOM     15  C   UNL d   1      28.857  16.956 -23.525  0.00  0.00     0.013 A 
ENDBRANCH   6   9
ENDBRANCH   1   6
BRANCH   2  16
ATOM     16  S   UNL d   1      31.346  17.496 -24.342  0.00  0.00    -0.049 SA
BRANCH  16  17
ATOM     17  C   UNL d   1      32.146  17.524 -24.147  0.00  0.00     0.040 C 
BRANCH  17  18
ATOM     18  C   UNL d   1      32.480  18.232 -23.893  0.00  0.00     0.026 A 
ATOM     19  C   UNL d   1      32.763  18.787 -24.455  0.00  0.00     0.099 A 
ATOM     20  N   UNL d   1      33.098  19.497 -24.218  0.00  0.00    -0.242 NA
ATOM     21  C   UNL d   1      33.153  19.657 -23.412  0.00  0.00     0.099 A 
ATOM     22  C   UNL d   1      32.876  19.117 -22.856  0.00  0.00     0.021 A 
ATOM     23  C   UNL d   1      32.540  18.405 -23.099  0.00  0.00     0.004 A 
ENDBRANCH  17  18
ENDBRANCH  16  17
ENDBRANCH   2  16
TORSDOF 5
ENDMDL
MODEL 5
REMARK VINA RESULT:      -0.3      2.273      5.228
REMARK  5 active torsions:
REMARK  status: ('A' for Active; 'I' for Inactive)
REMARK    1  A    between atoms: N_2  and  S_1 
REMARK    2  A    between atoms: C_5  and  S_1 
REMARK    3  A    between atoms: S_6  and  C_3 
REMARK    4  A    between atoms: C_15  and  S_6 
REMARK    5  A    between atoms: C_14  and  C_15 
ROOT
ATOM      1  N   UNL d   1      33.056  20.628 -22.359  0.00  0.00    -0.208 N 
ATOM      2  C   UNL d   1      32.974  20.116 -23.007  0.00  0.00     0.189 A 
ATOM      3  N   UNL d   1      33.088  20.555 -23.698  0.00  0.00    -0.219 NA
ATOM      4  C   UNL d   1      33.222  21.387 -22.653  0.00  0.00     0.114 A 
ATOM      5  C   UNL d   1      33.241  21.337 -23.476  0.00  0.00     0.121 A 
ENDROOT
BRANCH   1   6
ATOM      6  S   UNL d   1      32.985  20.415 -21.561  0.00  0.00     0.273 S 
ATOM      7  O   UNL d   1      32.994  19.981 -20.857  0.00  0.00    -0.200 OA
ATOM      8  O   UNL d   1      33.240  19.668 -21.775  0.00  0.00    -0.200 OA
BRANCH   6   9
ATOM      9  C   UNL d   1      32.726  21.163 -21.326  0.00  0.00     0.104 A 
ATOM     10  C   UNL d   1      31.965  21.249 -21.031  0.00  0.00     0.013 A 
ATOM     11  C   UNL d   1      31.710  22.000 -20.797  0.00  0.00     0.001 A 
ATOM     12  C   UNL d   1      32.214  22.653 -20.860  0.00  0.00     0.000 A 
ATOM     13  C   UNL d   1      32.978  22.554 -21.159  0.00  0.00     0.001 A 
ATOM     14  C   UNL d   1      31.955  23.401 -20.625  0.00  0.00     0.000 C 
ATOM     15  C   UNL d   1      33.234  21.804 -21.393  0.00  0.00     0.013 A 
ENDBRANCH   6   9
ENDBRANCH   1   6
BRANCH   2  16
ATOM     16  S   UNL d   1      32.805  19.302 -22.967  0.00  0.00    -0.049 SA
BRANCH  16  17
ATOM     17  C   UNL d   1      32.813  18.849 -23.654  0.00  0.00     0.040 C 
BRANCH  17  18
ATOM     18  C   UNL d   1      32.407  18.134 -23.677  0.00  0.00     0.026 A 
ATOM     19  C   UNL d   1      32.785  17.428 -23.426  0.00  0.00     0.099 A 
ATOM     20  N   UNL d   1      32.392  16.708 -23.443  0.00  0.00    -0.242 NA
ATOM     21  C   UNL d   1      31.615  16.689 -23.713  0.00  0.00     0.099 A 
ATOM     22  C   UNL d   1      31.239  17.377 -23.961  0.00  0.00     0.021 A 
ATOM     23  C   UNL d   1      31.636  18.099 -23.943  0.00  0.00     0.004 A 
ENDBRANCH  17  18
ENDBRANCH  16  17
ENDBRANCH   2  16
TORSDOF 5
ENDMDL
