MODEL 1
REMARK VINA RESULT:      -5.3      0.000      0.000
REMARK  2 active torsions:
REMARK  status: ('A' for Active; 'I' for Inactive)
REMARK    1  A    between atoms: S_6  and  C_1 
REMARK    2  A    between atoms: C_7  and  S_6 
ROOT
ATOM      1  C   UNL d   1     -41.496-122.519 -53.543  0.00  0.00     0.194 A 
ATOM      2  N   UNL d   1     -41.428-123.281 -53.175  0.00  0.00    -0.220 NA
ATOM      3  N   UNL d   1     -41.428-121.951 -52.952  0.00  0.00    -0.220 NA
ATOM      4  C   UNL d   1     -41.321-123.159 -52.384  0.00  0.00     0.101 A 
ATOM      5  C   UNL d   1     -41.321-122.319 -52.242  0.00  0.00     0.101 A 
ATOM      6  C   UNL d   1     -41.218-123.662 -51.721  0.00  0.00     0.021 A 
ATOM      7  C   UNL d   1     -41.222-122.030 -51.477  0.00  0.00     0.021 A 
ATOM      8  C   UNL d   1     -41.123-122.554 -50.847  0.00  0.00     0.002 A 
ATOM      9  C   UNL d   1     -41.123-123.368 -50.984  0.00  0.00     0.002 A 
ENDROOT
BRANCH   1  10
ATOM     10  S   UNL d   1     -41.595-122.809 -54.309  0.00  0.00    -0.049 SA
BRANCH  10  11
ATOM     11  C   UNL d   1     -41.902-122.319 -54.899  0.00  0.00     0.032 C 
ATOM     12  C   UNL d   1     -41.437-122.116 -55.549  0.00  0.00     0.007 C 
ATOM     13  C   UNL d   1     -42.627-121.943 -55.018  0.00  0.00     0.007 C 
ENDBRANCH  10  11
ENDBRANCH   1  10
TORSDOF 2
ENDMDL
MODEL 2
REMARK VINA RESULT:      -5.2      0.869      3.182
REMARK  2 active torsions:
REMARK  status: ('A' for Active; 'I' for Inactive)
REMARK    1  A    between atoms: S_6  and  C_1 
REMARK    2  A    between atoms: C_7  and  S_6 
ROOT
ATOM      1  C   UNL d   1     -41.479-122.466 -52.791  0.00  0.00     0.194 A 
ATOM      2  N   UNL d   1     -41.235-123.020 -53.385  0.00  0.00    -0.220 NA
ATOM      3  N   UNL d   1     -41.912-121.876 -53.165  0.00  0.00    -0.220 NA
ATOM      4  C   UNL d   1     -41.521-122.758 -54.094  0.00  0.00     0.101 A 
ATOM      5  C   UNL d   1     -41.949-122.034 -53.955  0.00  0.00     0.101 A 
ATOM      6  C   UNL d   1     -41.482-123.037 -54.883  0.00  0.00     0.021 A 
ATOM      7  C   UNL d   1     -42.305-121.638 -54.584  0.00  0.00     0.021 A 
ATOM      8  C   UNL d   1     -42.247-121.942 -55.349  0.00  0.00     0.002 A 
ATOM      9  C   UNL d   1     -41.832-122.643 -55.484  0.00  0.00     0.002 A 
ENDROOT
BRANCH   1  10
ATOM     10  S   UNL d   1     -41.122-122.863 -52.161  0.00  0.00    -0.049 SA
BRANCH  10  11
ATOM     11  C   UNL d   1     -41.216-122.582 -51.391  0.00  0.00     0.032 C 
ATOM     12  C   UNL d   1     -41.455-123.094 -50.790  0.00  0.00     0.007 C 
ATOM     13  C   UNL d   1     -41.123-121.846 -51.029  0.00  0.00     0.007 C 
ENDBRANCH  10  11
ENDBRANCH   1  10
TORSDOF 2
ENDMDL
MODEL 3
REMARK VINA RESULT:      -4.6      1.292      3.352
REMARK  2 active torsions:
REMARK  status: ('A' for Active; 'I' for Inactive)
REMARK    1  A    between atoms: S_6  and  C_1 
REMARK    2  A    between atoms: C_7  and  S_6 
ROOT
ATOM      1  C   UNL d   1     -41.480-122.794 -51.743  0.00  0.00     0.194 A 
ATOM      2  N   UNL d   1     -41.543-122.166 -52.310  0.00  0.00    -0.220 NA
ATOM      3  N   UNL d   1     -41.368-123.494 -52.161  0.00  0.00    -0.220 NA
ATOM      4  C   UNL d   1     -41.470-122.494 -53.045  0.00  0.00     0.101 A 
ATOM      5  C   UNL d   1     -41.359-123.333 -52.950  0.00  0.00     0.101 A 
ATOM      6  C   UNL d   1     -41.480-122.191 -53.826  0.00  0.00     0.021 A 
ATOM      7  C   UNL d   1     -41.268-123.813 -53.614  0.00  0.00     0.021 A 
ATOM      8  C   UNL d   1     -41.283-123.482 -54.370  0.00  0.00     0.002 A 
ATOM      9  C   UNL d   1     -41.391-122.668 -54.461  0.00  0.00     0.002 A 
ENDROOT
BRANCH   1  10
ATOM     10  S   UNL d   1     -41.572-122.313 -51.079  0.00  0.00    -0.049 SA
BRANCH  10  11
ATOM     11  C   UNL d   1     -41.639-122.653 -50.330  0.00  0.00     0.032 C 
ATOM     12  C   UNL d   1     -42.355-122.613 -49.922  0.00  0.00     0.007 C 
ATOM     13  C   UNL d   1     -41.124-123.064 -49.833  0.00  0.00     0.007 C 
ENDBRANCH  10  11
ENDBRANCH   1  10
TORSDOF 2
ENDMDL
MODEL 4
REMARK VINA RESULT:      -4.0      2.103      2.828
REMARK  2 active torsions:
REMARK  status: ('A' for Active; 'I' for Inactive)
REMARK    1  A    between atoms: S_6  and  C_1 
REMARK    2  A    between atoms: C_7  and  S_6 
ROOT
ATOM      1  C   UNL d   1     -41.676-123.002 -50.925  0.00  0.00     0.194 A 
ATOM      2  N   UNL d   1     -41.299-123.463 -50.321  0.00  0.00    -0.220 NA
ATOM      3  N   UNL d   1     -42.348-122.662 -50.594  0.00  0.00    -0.220 NA
ATOM      4  C   UNL d   1     -41.743-123.393 -49.649  0.00  0.00     0.101 A 
ATOM      5  C   UNL d   1     -42.406-122.886 -49.822  0.00  0.00     0.101 A 
ATOM      6  C   UNL d   1     -41.684-123.699 -48.871  0.00  0.00     0.021 A 
ATOM      7  C   UNL d   1     -42.958-122.714 -49.234  0.00  0.00     0.021 A 
ATOM      8  C   UNL d   1     -42.868-123.033 -48.478  0.00  0.00     0.002 A 
ATOM      9  C   UNL d   1     -42.226-123.524 -48.310  0.00  0.00     0.002 A 
ENDROOT
BRANCH   1  10
ATOM     10  S   UNL d   1     -41.124-123.174 -51.513  0.00  0.00    -0.049 SA
BRANCH  10  11
ATOM     11  C   UNL d   1     -41.202-122.838 -52.263  0.00  0.00     0.032 C 
ATOM     12  C   UNL d   1     -41.395-123.312 -52.910  0.00  0.00     0.007 C 
ATOM     13  C   UNL d   1     -41.129-122.073 -52.563  0.00  0.00     0.007 C 
ENDBRANCH  10  11
ENDBRANCH   1  10
TORSDOF 2
ENDMDL
MODEL 5
REMARK VINA RESULT:      -3.1      0.553      1.175
REMARK  2 active torsions:
REMARK  status: ('A' for Active; 'I' for Inactive)
REMARK    1  A    between atoms: S_6  and  C_1 
REMARK    2  A    between atoms: C_7  and  S_6 
ROOT
ATOM      1  C   UNL d   1     -41.928-122.364 -53.661  0.00  0.00     0.194 A 
ATOM      2  N   UNL d   1     -41.699-121.865 -53.013  0.00  0.00    -0.220 NA
ATOM      3  N   UNL d   1     -41.951-123.137 -53.381  0.00  0.00    -0.220 NA
ATOM      4  C   UNL d   1     -41.590-122.339 -52.368  0.00  0.00     0.101 A 
ATOM      5  C   UNL d   1     -41.749-123.143 -52.601  0.00  0.00     0.101 A 
ATOM      6  C   UNL d   1     -41.367-122.205 -51.572  0.00  0.00     0.021 A 
ATOM      7  C   UNL d   1     -41.681-123.752 -52.050  0.00  0.00     0.021 A 
ATOM      8  C   UNL d   1     -41.458-123.584 -51.273  0.00  0.00     0.002 A 
ATOM      9  C   UNL d   1     -41.304-122.805 -51.048  0.00  0.00     0.002 A 
ENDROOT
BRANCH   1  10
ATOM     10  S   UNL d   1     -41.996-121.753 -54.211  0.00  0.00    -0.049 SA
BRANCH  10  11
ATOM     11  C   UNL d   1     -42.153-121.928 -55.003  0.00  0.00     0.032 C 
ATOM     12  C   UNL d   1     -42.736-122.480 -55.196  0.00  0.00     0.007 C 
ATOM     13  C   UNL d   1     -41.848-121.668 -55.724  0.00  0.00     0.007 C 
ENDBRANCH  10  11
ENDBRANCH   1  10
TORSDOF 2
ENDMDL
MODEL 6
REMARK VINA RESULT:      -2.8      3.225      4.221
REMARK  2 active torsions:
REMARK  status: ('A' for Active; 'I' for Inactive)
REMARK    1  A    between atoms: S_6  and  C_1 
REMARK    2  A    between atoms: C_7  and  S_6 
ROOT
ATOM      1  C   UNL d   1     -41.903-123.040 -49.493  0.00  0.00     0.194 A 
ATOM      2  N   UNL d   1     -42.606-123.197 -49.044  0.00  0.00    -0.220 NA
ATOM      3  N   UNL d   1     -41.260-123.150 -48.992  0.00  0.00    -0.220 NA
ATOM      4  C   UNL d   1     -42.376-123.395 -48.295  0.00  0.00     0.101 A 
ATOM      5  C   UNL d   1     -41.525-123.365 -48.262  0.00  0.00     0.101 A 
ATOM      6  C   UNL d   1     -42.782-123.609 -47.594  0.00  0.00     0.021 A 
ATOM      7  C   UNL d   1     -41.134-123.543 -47.559  0.00  0.00     0.021 A 
ATOM      8  C   UNL d   1     -41.565-123.749 -46.887  0.00  0.00     0.002 A 
ATOM      9  C   UNL d   1     -42.390-123.779 -46.919  0.00  0.00     0.002 A 
ENDROOT
BRANCH   1  10
ATOM     10  S   UNL d   1     -42.296-122.863 -50.197  0.00  0.00    -0.049 SA
BRANCH  10  11
ATOM     11  C   UNL d   1     -41.898-122.465 -50.801  0.00  0.00     0.032 C 
ATOM     12  C   UNL d   1     -42.176-121.735 -51.067  0.00  0.00     0.007 C 
ATOM     13  C   UNL d   1     -41.228-122.625 -51.255  0.00  0.00     0.007 C 
ENDBRANCH  10  11
ENDBRANCH   1  10
TORSDOF 2
ENDMDL
