MODEL 1
REMARK VINA RESULT:      -4.5      0.000      0.000
REMARK  6 active torsions:
REMARK  status: ('A' for Active; 'I' for Inactive)
REMARK    1  A    between atoms: C_7  and  N_1 
REMARK    2  A    between atoms: C_6  and  C_3 
REMARK       I    between atoms: N_9  and  C_6 
REMARK    3  A    between atoms: C_19  and  N_9 
REMARK    4  A    between atoms: C_10  and  C_19 
REMARK    5  A    between atoms: O_23  and  C_20 
REMARK    6  A    between atoms: C_24  and  O_23 
ROOT
ATOM      1  N   UNL d   1     -41.513-122.552 -51.031  0.00  0.00    -0.276 N 
ATOM      2  C   UNL d   1     -41.532-123.027 -51.690  0.00  0.00     0.181 A 
ATOM      3  C   UNL d   1     -41.300-122.560 -52.327  0.00  0.00     0.126 A 
ATOM      4  C   UNL d   1     -41.263-121.771 -51.259  0.00  0.00     0.152 A 
ATOM      5  S   UNL d   1     -41.134-121.791 -52.076  0.00  0.00    -0.051 SA
ATOM      6  S   UNL d   1     -41.167-121.109 -50.760  0.00  0.00    -0.052 SA
ATOM      7  N   UNL d   1     -41.742-123.817 -51.710  0.00  0.00    -0.128 N 
ENDROOT
BRANCH   1   8
ATOM      8  C   UNL d   1     -41.708-122.811 -50.270  0.00  0.00     0.067 A 
ATOM      9  C   UNL d   1     -42.484-122.953 -50.082  0.00  0.00     0.020 A 
ATOM     10  C   UNL d   1     -42.691-123.210 -49.332  0.00  0.00     0.026 A 
ATOM     11  C   UNL d   1     -42.114-123.330 -48.752  0.00  0.00     0.100 A 
ATOM     12  C   UNL d   1     -41.332-123.189 -48.935  0.00  0.00     0.026 A 
ATOM     13  C   UNL d   1     -41.126-122.927 -49.701  0.00  0.00     0.020 A 
BRANCH  11  14
ATOM     14  O   UNL d   1     -42.287-123.589 -47.982  0.00  0.00    -0.305 OA
BRANCH  14  15
ATOM     15  C   UNL d   1     -42.711-123.088 -47.467  0.00  0.00     0.123 C 
ATOM     16  C   UNL d   1     -42.839-123.331 -46.678  0.00  0.00     0.029 C 
ENDBRANCH  14  15
ENDBRANCH  11  14
ENDBRANCH   1   8
BRANCH   3  17
ATOM     17  C   UNL d   1     -41.229-122.797 -53.146  0.00  0.00     0.288 C 
ATOM     18  N   UNL d   1     -41.246-122.239 -53.740  0.00  0.00    -0.204 NA
ATOM     19  O   UNL d   1     -41.140-123.618 -53.325  0.00  0.00    -0.265 OA
BRANCH  18  20
ATOM     20  C   UNL d   1     -41.173-122.509 -54.530  0.00  0.00     0.127 C 
BRANCH  20  21
ATOM     21  C   UNL d   1     -41.707-122.205 -55.121  0.00  0.00     0.119 A 
ATOM     22  O   UNL d   1     -41.433-122.052 -55.882  0.00  0.00    -0.304 OA
ATOM     23  C   UNL d   1     -42.065-121.770 -56.312  0.00  0.00     0.123 A 
ATOM     24  C   UNL d   1     -42.713-121.743 -55.851  0.00  0.00     0.029 A 
ATOM     25  C   UNL d   1     -42.523-122.008 -55.101  0.00  0.00     0.028 A 
ENDBRANCH  20  21
ENDBRANCH  18  20
ENDBRANCH   3  17
TORSDOF 6
ENDMDL
