MODEL 1
REMARK VINA RESULT:      -7.0      0.000      0.000
REMARK  7 active torsions:
REMARK  status: ('A' for Active; 'I' for Inactive)
REMARK    1  A    between atoms: C_10  and  C_4 
REMARK    2  A    between atoms: N_12  and  C_5 
REMARK    3  A    between atoms: C_11  and  C_8 
REMARK    4  A    between atoms: C_21  and  N_12 
REMARK    5  A    between atoms: N_16  and  C_25 
REMARK    6  A    between atoms: C_20  and  C_21 
REMARK    7  A    between atoms: C_25  and  C_20 
ROOT
ATOM      1  C   UNL d   1      52.471  34.060  53.683  0.00  0.00     0.168 A 
ATOM      2  N   UNL d   1      51.773  34.348  53.330  0.00  0.00    -0.184 N 
ATOM      3  N   UNL d   1      52.679  33.279  53.584  0.00  0.00    -0.231 NA
ATOM      4  C   UNL d   1      52.935  34.556  54.119  0.00  0.00     0.057 A 
ATOM      5  C   UNL d   1      51.315  33.841  52.895  0.00  0.00     0.217 A 
ATOM      6  N   UNL d   1      52.031  35.615  53.863  0.00  0.00    -0.160 NA
ATOM      7  C   UNL d   1      51.518  33.057  52.792  0.00  0.00     0.067 A 
ATOM      8  C   UNL d   1      52.213  32.771  53.144  0.00  0.00     0.064 A 
ATOM      9  C   UNL d   1      52.715  35.333  54.209  0.00  0.00     0.124 A 
ENDROOT
BRANCH   4  10
ATOM     10  C   UNL d   1      53.619  34.274  54.465  0.00  0.00     0.005 A 
ATOM     11  C   UNL d   1      54.327  34.306  54.068  0.00  0.00     0.001 A 
ATOM     12  C   UNL d   1      55.018  34.021  54.417  0.00  0.00     0.011 A 
ATOM     13  C   UNL d   1      54.993  33.708  55.160  0.00  0.00     0.058 A 
ATOM     14  C   UNL d   1      54.272  33.677  55.561  0.00  0.00     0.011 A 
ATOM     15 CL   UNL d   1      55.702  33.416  55.518  0.00  0.00    -0.082 Cl
ATOM     16  C   UNL d   1      53.599  33.955  55.221  0.00  0.00     0.001 A 
ENDBRANCH   4  10
BRANCH   5  17
ATOM     17  N   UNL d   1      50.602  34.135  52.534  0.00  0.00    -0.380 NA
BRANCH  17  18
ATOM     18  C   UNL d   1      49.905  34.377  52.123  0.00  0.00     0.164 C 
BRANCH  18  19
ATOM     19  C   UNL d   1      49.335  34.849  52.529  0.00  0.00     0.054 C 
BRANCH  19  20
ATOM     20  C   UNL d   1      48.637  35.117  52.108  0.00  0.00     0.083 C 
BRANCH  20  21
ATOM     21  N   UNL d   1      48.109  35.665  52.474  0.00  0.00    -0.300 N 
ATOM     22  C   UNL d   1      47.589  35.655  51.802  0.00  0.00     0.100 C 
ATOM     23  C   UNL d   1      47.908  36.151  53.136  0.00  0.00     0.100 C 
ENDBRANCH  20  21
ENDBRANCH  19  20
ENDBRANCH  18  19
ENDBRANCH  17  18
ENDBRANCH   5  17
BRANCH   8  24
ATOM     24  C   UNL d   1      52.436  31.954  53.045  0.00  0.00     0.036 C 
ATOM     25  C   UNL d   1      52.662  31.145  52.943  0.00  0.00     0.006 C 
ATOM     26  C   UNL d   1      52.022  31.344  53.474  0.00  0.00     0.006 C 
ATOM     27  C   UNL d   1      53.076  31.754  52.514  0.00  0.00     0.006 C 
ENDBRANCH   8  24
TORSDOF 7
ENDMDL
MODEL 2
REMARK VINA RESULT:      -5.8      1.915      4.376
REMARK  7 active torsions:
REMARK  status: ('A' for Active; 'I' for Inactive)
REMARK    1  A    between atoms: C_10  and  C_4 
REMARK    2  A    between atoms: N_12  and  C_5 
REMARK    3  A    between atoms: C_11  and  C_8 
REMARK    4  A    between atoms: C_21  and  N_12 
REMARK    5  A    between atoms: N_16  and  C_25 
REMARK    6  A    between atoms: C_20  and  C_21 
REMARK    7  A    between atoms: C_25  and  C_20 
ROOT
ATOM      1  C   UNL d   1      53.133  33.092  53.821  0.00  0.00     0.168 A 
ATOM      2  N   UNL d   1      53.264  32.284  53.665  0.00  0.00    -0.184 N 
ATOM      3  N   UNL d   1      52.471  33.457  53.520  0.00  0.00    -0.231 NA
ATOM      4  C   UNL d   1      53.663  33.505  54.268  0.00  0.00     0.057 A 
ATOM      5  C   UNL d   1      52.727  31.878  53.215  0.00  0.00     0.217 A 
ATOM      6  N   UNL d   1      54.447  32.335  54.409  0.00  0.00    -0.160 NA
ATOM      7  C   UNL d   1      52.061  32.239  52.910  0.00  0.00     0.067 A 
ATOM      8  C   UNL d   1      51.931  33.044  53.065  0.00  0.00     0.064 A 
ATOM      9  C   UNL d   1      54.319  33.128  54.562  0.00  0.00     0.124 A 
ENDROOT
BRANCH   4  10
ATOM     10  C   UNL d   1      53.534  34.297  54.421  0.00  0.00     0.005 A 
ATOM     11  C   UNL d   1      53.776  34.865  53.893  0.00  0.00     0.001 A 
ATOM     12  C   UNL d   1      53.647  35.665  54.048  0.00  0.00     0.011 A 
ATOM     13  C   UNL d   1      53.277  35.889  54.729  0.00  0.00     0.058 A 
ATOM     14  C   UNL d   1      53.032  35.309  55.264  0.00  0.00     0.011 A 
ATOM     15 CL   UNL d   1      53.144  36.709  54.887  0.00  0.00    -0.082 Cl
ATOM     16  C   UNL d   1      53.158  34.530  55.113  0.00  0.00     0.001 A 
ENDBRANCH   4  10
BRANCH   5  17
ATOM     17  N   UNL d   1      52.860  31.053  53.055  0.00  0.00    -0.380 NA
BRANCH  17  18
ATOM     18  C   UNL d   1      52.976  30.221  52.967  0.00  0.00     0.164 C 
BRANCH  18  19
ATOM     19  C   UNL d   1      52.819  29.714  53.623  0.00  0.00     0.054 C 
BRANCH  19  20
ATOM     20  C   UNL d   1      53.426  29.167  53.885  0.00  0.00     0.083 C 
BRANCH  20  21
ATOM     21  N   UNL d   1      53.389  28.839  54.662  0.00  0.00    -0.300 N 
ATOM     22  C   UNL d   1      53.770  28.122  54.407  0.00  0.00     0.100 C 
ATOM     23  C   UNL d   1      53.164  28.911  55.474  0.00  0.00     0.100 C 
ENDBRANCH  20  21
ENDBRANCH  19  20
ENDBRANCH  18  19
ENDBRANCH  17  18
ENDBRANCH   5  17
BRANCH   8  24
ATOM     24  C   UNL d   1      51.239  33.433  52.753  0.00  0.00     0.036 C 
ATOM     25  C   UNL d   1      50.555  33.820  52.439  0.00  0.00     0.006 C 
ATOM     26  C   UNL d   1      50.498  33.388  53.175  0.00  0.00     0.006 C 
ATOM     27  C   UNL d   1      51.295  33.865  52.017  0.00  0.00     0.006 C 
ENDBRANCH   8  24
TORSDOF 7
ENDMDL
MODEL 3
REMARK VINA RESULT:      -5.4      1.619      3.175
REMARK  7 active torsions:
REMARK  status: ('A' for Active; 'I' for Inactive)
REMARK    1  A    between atoms: C_10  and  C_4 
REMARK    2  A    between atoms: N_12  and  C_5 
REMARK    3  A    between atoms: C_11  and  C_8 
REMARK    4  A    between atoms: C_21  and  N_12 
REMARK    5  A    between atoms: N_16  and  C_25 
REMARK    6  A    between atoms: C_20  and  C_21 
REMARK    7  A    between atoms: C_25  and  C_20 
ROOT
ATOM      1  C   UNL d   1      52.621  31.830  53.488  0.00  0.00     0.168 A 
ATOM      2  N   UNL d   1      52.149  32.448  53.186  0.00  0.00    -0.184 N 
ATOM      3  N   UNL d   1      53.297  32.009  53.905  0.00  0.00    -0.231 NA
ATOM      4  C   UNL d   1      52.405  31.063  53.365  0.00  0.00     0.057 A 
ATOM      5  C   UNL d   1      52.375  33.215  53.316  0.00  0.00     0.217 A 
ATOM      6  N   UNL d   1      51.265  31.505  52.652  0.00  0.00    -0.160 NA
ATOM      7  C   UNL d   1      53.052  33.400  53.733  0.00  0.00     0.067 A 
ATOM      8  C   UNL d   1      53.522  32.785  54.033  0.00  0.00     0.064 A 
ATOM      9  C   UNL d   1      51.728  30.900  52.947  0.00  0.00     0.124 A 
ENDROOT
BRANCH   4  10
ATOM     10  C   UNL d   1      52.867  30.458  53.661  0.00  0.00     0.005 A 
ATOM     11  C   UNL d   1      52.708  30.133  54.388  0.00  0.00     0.001 A 
ATOM     12  C   UNL d   1      53.176  29.522  54.687  0.00  0.00     0.011 A 
ATOM     13  C   UNL d   1      53.797  29.243  54.255  0.00  0.00     0.058 A 
ATOM     14  C   UNL d   1      53.956  29.575  53.517  0.00  0.00     0.011 A 
ATOM     15 CL   UNL d   1      54.276  28.617  54.562  0.00  0.00    -0.082 Cl
ATOM     16  C   UNL d   1      53.501  30.171  53.225  0.00  0.00     0.001 A 
ENDBRANCH   4  10
BRANCH   5  17
ATOM     17  N   UNL d   1      51.893  33.845  53.007  0.00  0.00    -0.380 NA
BRANCH  17  18
ATOM     18  C   UNL d   1      51.422  34.440  52.636  0.00  0.00     0.164 C 
BRANCH  18  19
ATOM     19  C   UNL d   1      50.616  34.529  52.870  0.00  0.00     0.054 C 
BRANCH  19  20
ATOM     20  C   UNL d   1      50.023  34.703  52.275  0.00  0.00     0.083 C 
BRANCH  20  21
ATOM     21  N   UNL d   1      49.269  35.001  52.509  0.00  0.00    -0.300 N 
ATOM     22  C   UNL d   1      48.895  34.673  51.819  0.00  0.00     0.100 C 
ATOM     23  C   UNL d   1      48.793  35.429  53.062  0.00  0.00     0.100 C 
ENDBRANCH  20  21
ENDBRANCH  19  20
ENDBRANCH  18  19
ENDBRANCH  17  18
ENDBRANCH   5  17
BRANCH   8  24
ATOM     24  C   UNL d   1      54.231  32.965  54.471  0.00  0.00     0.036 C 
ATOM     25  C   UNL d   1      54.937  33.144  54.901  0.00  0.00     0.006 C 
ATOM     26  C   UNL d   1      54.203  33.026  55.322  0.00  0.00     0.006 C 
ATOM     27  C   UNL d   1      54.966  33.084  54.051  0.00  0.00     0.006 C 
ENDBRANCH   8  24
TORSDOF 7
ENDMDL
MODEL 4
REMARK VINA RESULT:      -4.7      1.369      2.638
REMARK  7 active torsions:
REMARK  status: ('A' for Active; 'I' for Inactive)
REMARK    1  A    between atoms: C_10  and  C_4 
REMARK    2  A    between atoms: N_12  and  C_5 
REMARK    3  A    between atoms: C_11  and  C_8 
REMARK    4  A    between atoms: C_21  and  N_12 
REMARK    5  A    between atoms: N_16  and  C_25 
REMARK    6  A    between atoms: C_20  and  C_21 
REMARK    7  A    between atoms: C_25  and  C_20 
ROOT
ATOM      1  C   UNL d   1      51.588  33.305  53.280  0.00  0.00     0.168 A 
ATOM      2  N   UNL d   1      50.842  33.647  53.132  0.00  0.00    -0.184 N 
ATOM      3  N   UNL d   1      52.213  33.781  53.493  0.00  0.00    -0.231 NA
ATOM      4  C   UNL d   1      51.684  32.507  53.210  0.00  0.00     0.057 A 
ATOM      5  C   UNL d   1      50.756  34.449  53.205  0.00  0.00     0.217 A 
ATOM      6  N   UNL d   1      50.320  32.380  52.851  0.00  0.00    -0.160 NA
ATOM      7  C   UNL d   1      51.379  34.931  53.419  0.00  0.00     0.067 A 
ATOM      8  C   UNL d   1      52.122  34.590  53.566  0.00  0.00     0.064 A 
ATOM      9  C   UNL d   1      51.051  32.044  52.996  0.00  0.00     0.124 A 
ENDROOT
BRANCH   4  10
ATOM     10  C   UNL d   1      52.415  32.171  53.354  0.00  0.00     0.005 A 
ATOM     11  C   UNL d   1      52.641  31.982  54.111  0.00  0.00     0.001 A 
ATOM     12  C   UNL d   1      53.379  31.643  54.257  0.00  0.00     0.011 A 
ATOM     13  C   UNL d   1      53.883  31.497  53.645  0.00  0.00     0.058 A 
ATOM     14  C   UNL d   1      53.650  31.691  52.876  0.00  0.00     0.011 A 
ATOM     15 CL   UNL d   1      54.639  31.150  53.794  0.00  0.00    -0.082 Cl
ATOM     16  C   UNL d   1      52.931  32.021  52.734  0.00  0.00     0.001 A 
ENDBRANCH   4  10
BRANCH   5  17
ATOM     17  N   UNL d   1      49.995  34.798  53.055  0.00  0.00    -0.380 NA
BRANCH  17  18
ATOM     18  C   UNL d   1      49.252  35.135  52.834  0.00  0.00     0.164 C 
BRANCH  18  19
ATOM     19  C   UNL d   1      48.816  35.574  53.408  0.00  0.00     0.054 C 
BRANCH  19  20
ATOM     20  C   UNL d   1      48.097  35.977  53.169  0.00  0.00     0.083 C 
BRANCH  20  21
ATOM     21  N   UNL d   1      47.648  36.408  53.740  0.00  0.00    -0.300 N 
ATOM     22  C   UNL d   1      47.029  36.562  53.176  0.00  0.00     0.100 C 
ATOM     23  C   UNL d   1      47.565  36.709  54.525  0.00  0.00     0.100 C 
ENDBRANCH  20  21
ENDBRANCH  19  20
ENDBRANCH  18  19
ENDBRANCH  17  18
ENDBRANCH   5  17
BRANCH   8  24
ATOM     24  C   UNL d   1      52.781  35.083  53.790  0.00  0.00     0.036 C 
ATOM     25  C   UNL d   1      53.436  35.571  54.008  0.00  0.00     0.006 C 
ATOM     26  C   UNL d   1      52.875  35.324  54.603  0.00  0.00     0.006 C 
ATOM     27  C   UNL d   1      53.343  35.331  53.195  0.00  0.00     0.006 C 
ENDBRANCH   8  24
TORSDOF 7
ENDMDL
MODEL 5
REMARK VINA RESULT:      -4.2      0.950      2.286
REMARK  7 active torsions:
REMARK  status: ('A' for Active; 'I' for Inactive)
REMARK    1  A    between atoms: C_10  and  C_4 
REMARK    2  A    between atoms: N_12  and  C_5 
REMARK    3  A    between atoms: C_11  and  C_8 
REMARK    4  A    between atoms: C_21  and  N_12 
REMARK    5  A    between atoms: N_16  and  C_25 
REMARK    6  A    between atoms: C_20  and  C_21 
REMARK    7  A    between atoms: C_25  and  C_20 
ROOT
ATOM      1  C   UNL d   1      52.759  33.602  53.437  0.00  0.00     0.168 A 
ATOM      2  N   UNL d   1      52.111  33.528  52.916  0.00  0.00    -0.184 N 
ATOM      3  N   UNL d   1      52.867  34.297  53.846  0.00  0.00    -0.231 NA
ATOM      4  C   UNL d   1      53.270  32.985  53.531  0.00  0.00     0.057 A 
ATOM      5  C   UNL d   1      51.604  34.152  52.829  0.00  0.00     0.217 A 
ATOM      6  N   UNL d   1      52.515  32.224  52.607  0.00  0.00    -0.160 NA
ATOM      7  C   UNL d   1      51.708  34.852  53.236  0.00  0.00     0.067 A 
ATOM      8  C   UNL d   1      52.352  34.926  53.754  0.00  0.00     0.064 A 
ATOM      9  C   UNL d   1      53.149  32.297  53.117  0.00  0.00     0.124 A 
ENDROOT
BRANCH   4  10
ATOM     10  C   UNL d   1      53.904  33.058  54.042  0.00  0.00     0.005 A 
ATOM     11  C   UNL d   1      54.624  33.319  53.772  0.00  0.00     0.001 A 
ATOM     12  C   UNL d   1      55.265  33.393  54.288  0.00  0.00     0.011 A 
ATOM     13  C   UNL d   1      55.177  33.203  55.067  0.00  0.00     0.058 A 
ATOM     14  C   UNL d   1      54.444  32.938  55.338  0.00  0.00     0.011 A 
ATOM     15 CL   UNL d   1      55.834  33.278  55.595  0.00  0.00    -0.082 Cl
ATOM     16  C   UNL d   1      53.820  32.866  54.836  0.00  0.00     0.001 A 
ENDBRANCH   4  10
BRANCH   5  17
ATOM     17  N   UNL d   1      50.944  34.077  52.297  0.00  0.00    -0.380 NA
BRANCH  17  18
ATOM     18  C   UNL d   1      50.326  34.042  51.722  0.00  0.00     0.164 C 
BRANCH  18  19
ATOM     19  C   UNL d   1      49.598  34.440  51.879  0.00  0.00     0.054 C 
BRANCH  19  20
ATOM     20  C   UNL d   1      49.037  34.555  51.240  0.00  0.00     0.083 C 
BRANCH  20  21
ATOM     21  N   UNL d   1      48.346  35.023  51.367  0.00  0.00    -0.300 N 
ATOM     22  C   UNL d   1      47.969  34.705  50.675  0.00  0.00     0.100 C 
ATOM     23  C   UNL d   1      47.929  35.596  51.828  0.00  0.00     0.100 C 
ENDBRANCH  20  21
ENDBRANCH  19  20
ENDBRANCH  18  19
ENDBRANCH  17  18
ENDBRANCH   5  17
BRANCH   8  24
ATOM     24  C   UNL d   1      52.472  35.651  54.185  0.00  0.00     0.036 C 
ATOM     25  C   UNL d   1      52.595  36.373  54.610  0.00  0.00     0.006 C 
ATOM     26  C   UNL d   1      51.980  35.833  54.859  0.00  0.00     0.006 C 
ATOM     27  C   UNL d   1      53.086  36.192  53.938  0.00  0.00     0.006 C 
ENDBRANCH   8  24
TORSDOF 7
ENDMDL
