MODEL 1
REMARK VINA RESULT:      -2.7      0.000      0.000
REMARK  4 active torsions:
REMARK  status: ('A' for Active; 'I' for Inactive)
REMARK    1  A    between atoms: C_6  and  N_1 
REMARK    2  A    between atoms: C_10  and  C_4 
REMARK    3  A    between atoms: C_8  and  C_6 
REMARK    4  A    between atoms: C_9  and  C_8 
ROOT
ATOM      1  N   UNL d   1      58.554  -0.522  29.948  0.00  0.00    -0.305 N 
ATOM      2  C   UNL d   1      57.618  -0.888  30.836  0.00  0.00     0.057 A 
ATOM      3  C   UNL d   1      58.046  -0.238  30.533  0.00  0.00     0.067 A 
ATOM      4  C   UNL d   1      58.449  -1.326  29.885  0.00  0.00     0.064 A 
ATOM      5  C   UNL d   1      57.870  -1.562  30.433  0.00  0.00     0.022 A 
ATOM      6  C   UNL d   1      57.063  -0.774  31.433  0.00  0.00     0.197 A 
ATOM      7  O   UNL d   1      56.636  -1.424  31.737  0.00  0.00    -0.286 OA
ATOM      8  C   UNL d   1      57.912   0.518  30.831  0.00  0.00     0.018 A 
ATOM      9  C   UNL d   1      56.930  -0.019  31.731  0.00  0.00     0.042 A 
ATOM     10  C   UNL d   1      57.350   0.620  31.433  0.00  0.00     0.005 A 
ENDROOT
BRANCH   4  11
ATOM     11  C   UNL d   1      58.708  -2.011  29.473  0.00  0.00     0.016 A 
ATOM     12  C   UNL d   1      58.256  -2.315  28.860  0.00  0.00     0.001 A 
ATOM     13  C   UNL d   1      58.506  -2.985  28.455  0.00  0.00     0.000 A 
ATOM     14  C   UNL d   1      59.219  -3.344  28.679  0.00  0.00     0.000 A 
ATOM     15  C   UNL d   1      59.675  -3.046  29.292  0.00  0.00     0.000 A 
ATOM     16  C   UNL d   1      59.420  -2.374  29.694  0.00  0.00     0.001 A 
ENDBRANCH   4  11
BRANCH   1  17
ATOM     17  C   UNL d   1      59.091  -0.084  29.486  0.00  0.00     0.086 C 
BRANCH  17  18
ATOM     18  C   UNL d   1      59.782   0.207  29.844  0.00  0.00     0.089 C 
BRANCH  18  19
ATOM     19  C   UNL d   1      60.396   0.521  29.391  0.00  0.00     0.213 C 
ATOM     20  O   UNL d   1      61.123   0.681  29.737  0.00  0.00    -0.644 OA
ATOM     21  O   UNL d   1      60.306   0.682  28.591  0.00  0.00    -0.644 OA
ENDBRANCH  18  19
ENDBRANCH  17  18
ENDBRANCH   1  17
TORSDOF 4
ENDMDL
MODEL 2
REMARK VINA RESULT:      -1.8      1.433      3.611
REMARK  4 active torsions:
REMARK  status: ('A' for Active; 'I' for Inactive)
REMARK    1  A    between atoms: C_6  and  N_1 
REMARK    2  A    between atoms: C_10  and  C_4 
REMARK    3  A    between atoms: C_8  and  C_6 
REMARK    4  A    between atoms: C_9  and  C_8 
ROOT
ATOM      1  N   UNL d   1      58.903  -1.564  29.337  0.00  0.00    -0.305 N 
ATOM      2  C   UNL d   1      59.632  -2.609  28.914  0.00  0.00     0.057 A 
ATOM      3  C   UNL d   1      58.870  -2.370  29.158  0.00  0.00     0.067 A 
ATOM      4  C   UNL d   1      59.663  -1.306  29.208  0.00  0.00     0.064 A 
ATOM      5  C   UNL d   1      60.122  -1.947  28.946  0.00  0.00     0.022 A 
ATOM      6  C   UNL d   1      59.769  -3.391  28.699  0.00  0.00     0.197 A 
ATOM      7  O   UNL d   1      60.531  -3.631  28.455  0.00  0.00    -0.286 OA
ATOM      8  C   UNL d   1      58.255  -2.917  29.184  0.00  0.00     0.018 A 
ATOM      9  C   UNL d   1      59.154  -3.938  28.724  0.00  0.00     0.042 A 
ATOM     10  C   UNL d   1      58.406  -3.703  28.964  0.00  0.00     0.005 A 
ENDROOT
BRANCH   4  11
ATOM     11  C   UNL d   1      60.162  -0.630  29.242  0.00  0.00     0.016 A 
ATOM     12  C   UNL d   1      60.300  -0.188  28.564  0.00  0.00     0.001 A 
ATOM     13  C   UNL d   1      60.787   0.473  28.594  0.00  0.00     0.000 A 
ATOM     14  C   UNL d   1      61.133   0.682  29.317  0.00  0.00     0.000 A 
ATOM     15  C   UNL d   1      61.000   0.245  29.998  0.00  0.00     0.000 A 
ATOM     16  C   UNL d   1      60.511  -0.417  29.964  0.00  0.00     0.001 A 
ENDBRANCH   4  11
BRANCH   1  17
ATOM     17  C   UNL d   1      58.283  -1.077  29.603  0.00  0.00     0.086 C 
BRANCH  17  18
ATOM     18  C   UNL d   1      58.051  -1.123  30.399  0.00  0.00     0.089 C 
BRANCH  18  19
ATOM     19  C   UNL d   1      57.479  -0.615  30.706  0.00  0.00     0.213 C 
ATOM     20  O   UNL d   1      57.257   0.055  30.288  0.00  0.00    -0.644 OA
ATOM     21  O   UNL d   1      57.116  -0.756  31.429  0.00  0.00    -0.644 OA
ENDBRANCH  18  19
ENDBRANCH  17  18
ENDBRANCH   1  17
TORSDOF 4
ENDMDL
MODEL 3
REMARK VINA RESULT:      -1.1      1.187      1.658
REMARK  4 active torsions:
REMARK  status: ('A' for Active; 'I' for Inactive)
REMARK    1  A    between atoms: C_6  and  N_1 
REMARK    2  A    between atoms: C_10  and  C_4 
REMARK    3  A    between atoms: C_8  and  C_6 
REMARK    4  A    between atoms: C_9  and  C_8 
ROOT
ATOM      1  N   UNL d   1      58.532   0.206  31.148  0.00  0.00    -0.305 N 
ATOM      2  C   UNL d   1      57.355  -0.308  31.536  0.00  0.00     0.057 A 
ATOM      3  C   UNL d   1      57.956   0.236  31.738  0.00  0.00     0.067 A 
ATOM      4  C   UNL d   1      58.301  -0.341  30.593  0.00  0.00     0.064 A 
ATOM      5  C   UNL d   1      57.572  -0.665  30.825  0.00  0.00     0.022 A 
ATOM      6  C   UNL d   1      56.701  -0.400  32.027  0.00  0.00     0.197 A 
ATOM      7  O   UNL d   1      56.101  -0.945  31.825  0.00  0.00    -0.286 OA
ATOM      8  C   UNL d   1      57.893   0.682  32.428  0.00  0.00     0.018 A 
ATOM      9  C   UNL d   1      56.638   0.045  32.716  0.00  0.00     0.042 A 
ATOM     10  C   UNL d   1      57.228   0.580  32.914  0.00  0.00     0.005 A 
ENDROOT
BRANCH   4  11
ATOM     11  C   UNL d   1      58.524  -0.704  29.868  0.00  0.00     0.016 A 
ATOM     12  C   UNL d   1      58.581  -0.254  29.185  0.00  0.00     0.001 A 
ATOM     13  C   UNL d   1      58.798  -0.606  28.475  0.00  0.00     0.000 A 
ATOM     14  C   UNL d   1      58.957  -1.420  28.465  0.00  0.00     0.000 A 
ATOM     15  C   UNL d   1      58.902  -1.876  29.144  0.00  0.00     0.000 A 
ATOM     16  C   UNL d   1      58.683  -1.519  29.853  0.00  0.00     0.001 A 
ENDBRANCH   4  11
BRANCH   1  17
ATOM     17  C   UNL d   1      59.237   0.646  31.104  0.00  0.00     0.086 C 
BRANCH  17  18
ATOM     18  C   UNL d   1      59.754   0.643  31.755  0.00  0.00     0.089 C 
BRANCH  18  19
ATOM     19  C   UNL d   1      60.571   0.660  31.649  0.00  0.00     0.213 C 
ATOM     20  O   UNL d   1      61.071   0.655  32.300  0.00  0.00    -0.644 OA
ATOM     21  O   UNL d   1      60.911   0.682  30.902  0.00  0.00    -0.644 OA
ENDBRANCH  18  19
ENDBRANCH  17  18
ENDBRANCH   1  17
TORSDOF 4
ENDMDL
MODEL 4
REMARK VINA RESULT:      -1.0      1.531      3.716
REMARK  4 active torsions:
REMARK  status: ('A' for Active; 'I' for Inactive)
REMARK    1  A    between atoms: C_6  and  N_1 
REMARK    2  A    between atoms: C_10  and  C_4 
REMARK    3  A    between atoms: C_8  and  C_6 
REMARK    4  A    between atoms: C_9  and  C_8 
ROOT
ATOM      1  N   UNL d   1      58.939  -1.329  29.406  0.00  0.00    -0.305 N 
ATOM      2  C   UNL d   1      59.887  -0.390  29.547  0.00  0.00     0.057 A 
ATOM      3  C   UNL d   1      59.686  -1.094  29.145  0.00  0.00     0.067 A 
ATOM      4  C   UNL d   1      58.679  -0.788  29.955  0.00  0.00     0.064 A 
ATOM      5  C   UNL d   1      59.261  -0.202  30.049  0.00  0.00     0.022 A 
ATOM      6  C   UNL d   1      60.609  -0.022  29.398  0.00  0.00     0.197 A 
ATOM      7  O   UNL d   1      60.810   0.682  29.799  0.00  0.00    -0.286 OA
ATOM      8  C   UNL d   1      60.210  -1.421  28.601  0.00  0.00     0.018 A 
ATOM      9  C   UNL d   1      61.132  -0.350  28.854  0.00  0.00     0.042 A 
ATOM     10  C   UNL d   1      60.935  -1.041  28.460  0.00  0.00     0.005 A 
ENDROOT
BRANCH   4  11
ATOM     11  C   UNL d   1      58.039  -0.598  30.466  0.00  0.00     0.016 A 
ATOM     12  C   UNL d   1      57.692   0.145  30.430  0.00  0.00     0.001 A 
ATOM     13  C   UNL d   1      57.066   0.333  30.928  0.00  0.00     0.000 A 
ATOM     14  C   UNL d   1      56.796  -0.239  31.464  0.00  0.00     0.000 A 
ATOM     15  C   UNL d   1      57.138  -0.983  31.505  0.00  0.00     0.000 A 
ATOM     16  C   UNL d   1      57.765  -1.167  31.004  0.00  0.00     0.001 A 
ENDBRANCH   4  11
BRANCH   1  17
ATOM     17  C   UNL d   1      58.505  -1.997  29.167  0.00  0.00     0.086 C 
BRANCH  17  18
ATOM     18  C   UNL d   1      58.868  -2.744  29.200  0.00  0.00     0.089 C 
BRANCH  18  19
ATOM     19  C   UNL d   1      58.481  -3.417  28.923  0.00  0.00     0.213 C 
ATOM     20  O   UNL d   1      57.808  -3.344  28.459  0.00  0.00    -0.644 OA
ATOM     21  O   UNL d   1      58.750  -4.174  29.096  0.00  0.00    -0.644 OA
ENDBRANCH  18  19
ENDBRANCH  17  18
ENDBRANCH   1  17
TORSDOF 4
ENDMDL
MODEL 5
REMARK VINA RESULT:      -0.4      2.278      3.579
REMARK  4 active torsions:
REMARK  status: ('A' for Active; 'I' for Inactive)
REMARK    1  A    between atoms: C_6  and  N_1 
REMARK    2  A    between atoms: C_10  and  C_4 
REMARK    3  A    between atoms: C_8  and  C_6 
REMARK    4  A    between atoms: C_9  and  C_8 
ROOT
ATOM      1  N   UNL d   1      58.332   0.404  31.392  0.00  0.00    -0.305 N 
ATOM      2  C   UNL d   1      57.862   0.332  30.137  0.00  0.00     0.057 A 
ATOM      3  C   UNL d   1      58.544   0.475  30.598  0.00  0.00     0.067 A 
ATOM      4  C   UNL d   1      57.541   0.220  31.429  0.00  0.00     0.064 A 
ATOM      5  C   UNL d   1      57.241   0.174  30.656  0.00  0.00     0.022 A 
ATOM      6  C   UNL d   1      57.905   0.365  29.316  0.00  0.00     0.197 A 
ATOM      7  O   UNL d   1      57.223   0.222  28.856  0.00  0.00    -0.286 OA
ATOM      8  C   UNL d   1      59.260   0.651  30.230  0.00  0.00     0.018 A 
ATOM      9  C   UNL d   1      58.620   0.540  28.949  0.00  0.00     0.042 A 
ATOM     10  C   UNL d   1      59.290   0.682  29.401  0.00  0.00     0.005 A 
ENDROOT
BRANCH   4  11
ATOM     11  C   UNL d   1      56.908   0.059  31.959  0.00  0.00     0.016 A 
ATOM     12  C   UNL d   1      56.783  -0.706  32.228  0.00  0.00     0.001 A 
ATOM     13  C   UNL d   1      56.166  -0.866  32.746  0.00  0.00     0.000 A 
ATOM     14  C   UNL d   1      55.676  -0.242  32.989  0.00  0.00     0.000 A 
ATOM     15  C   UNL d   1      55.796   0.525  32.724  0.00  0.00     0.000 A 
ATOM     16  C   UNL d   1      56.416   0.680  32.205  0.00  0.00     0.001 A 
ENDBRANCH   4  11
BRANCH   1  17
ATOM     17  C   UNL d   1      58.821   0.497  32.059  0.00  0.00     0.086 C 
BRANCH  17  18
ATOM     18  C   UNL d   1      59.634   0.631  31.944  0.00  0.00     0.089 C 
BRANCH  18  19
ATOM     19  C   UNL d   1      60.159   0.624  32.579  0.00  0.00     0.213 C 
ATOM     20  O   UNL d   1      60.969   0.606  32.443  0.00  0.00    -0.644 OA
ATOM     21  O   UNL d   1      59.899   0.636  33.358  0.00  0.00    -0.644 OA
ENDBRANCH  18  19
ENDBRANCH  17  18
ENDBRANCH   1  17
TORSDOF 4
ENDMDL
MODEL 6
REMARK VINA RESULT:       0.2      1.602      2.713
REMARK  4 active torsions:
REMARK  status: ('A' for Active; 'I' for Inactive)
REMARK    1  A    between atoms: C_6  and  N_1 
REMARK    2  A    between atoms: C_10  and  C_4 
REMARK    3  A    between atoms: C_8  and  C_6 
REMARK    4  A    between atoms: C_9  and  C_8 
ROOT
ATOM      1  N   UNL d   1      58.074  -0.877  30.503  0.00  0.00    -0.305 N 
ATOM      2  C   UNL d   1      57.878  -0.172  31.627  0.00  0.00     0.057 A 
ATOM      3  C   UNL d   1      57.599  -0.815  31.175  0.00  0.00     0.067 A 
ATOM      4  C   UNL d   1      58.636  -0.289  30.533  0.00  0.00     0.064 A 
ATOM      5  C   UNL d   1      58.522   0.153  31.227  0.00  0.00     0.022 A 
ATOM      6  C   UNL d   1      57.508   0.025  32.336  0.00  0.00     0.197 A 
ATOM      7  O   UNL d   1      57.788   0.669  32.788  0.00  0.00    -0.286 OA
ATOM      8  C   UNL d   1      56.953  -1.254  31.437  0.00  0.00     0.018 A 
ATOM      9  C   UNL d   1      56.863  -0.413  32.598  0.00  0.00     0.042 A 
ATOM     10  C   UNL d   1      56.589  -1.045  32.153  0.00  0.00     0.005 A 
ENDROOT
BRANCH   4  11
ATOM     11  C   UNL d   1      59.291   0.041  30.123  0.00  0.00     0.016 A 
ATOM     12  C   UNL d   1      59.209   0.280  29.343  0.00  0.00     0.001 A 
ATOM     13  C   UNL d   1      59.848   0.603  28.940  0.00  0.00     0.000 A 
ATOM     14  C   UNL d   1      60.572   0.681  29.336  0.00  0.00     0.000 A 
ATOM     15  C   UNL d   1      60.662   0.443  30.116  0.00  0.00     0.000 A 
ATOM     16  C   UNL d   1      60.018   0.120  30.516  0.00  0.00     0.001 A 
ENDBRANCH   4  11
BRANCH   1  17
ATOM     17  C   UNL d   1      58.013  -1.433  29.887  0.00  0.00     0.086 C 
BRANCH  17  18
ATOM     18  C   UNL d   1      58.370  -2.177  29.981  0.00  0.00     0.089 C 
BRANCH  18  19
ATOM     19  C   UNL d   1      58.466  -2.688  29.341  0.00  0.00     0.213 C 
ATOM     20  O   UNL d   1      59.066  -3.247  29.347  0.00  0.00    -0.644 OA
ATOM     21  O   UNL d   1      57.974  -2.656  28.684  0.00  0.00    -0.644 OA
ENDBRANCH  18  19
ENDBRANCH  17  18
ENDBRANCH   1  17
TORSDOF 4
ENDMDL
