MODEL 1
REMARK VINA RESULT:      -0.9      0.000      0.000
REMARK  6 active torsions:
REMARK  status: ('A' for Active; 'I' for Inactive)
REMARK    1  A    between atoms: C_8  and  C_1 
REMARK    2  A    between atoms: C_2  and  N_3 
REMARK       I    between atoms: N_3  and  C_8 
REMARK    3  A    between atoms: S_4  and  C_14 
REMARK    4  A    between atoms: C_23  and  N_7 
REMARK    5  A    between atoms: C_27  and  C_23 
REMARK    6  A    between atoms: O_26  and  C_27 
ROOT
ATOM      1  C   UNL d   1      57.071   0.195  32.461  0.00  0.00     0.182 A 
ATOM      2  N   UNL d   1      57.252   0.354  33.244  0.00  0.00    -0.283 N 
ATOM      3  S   UNL d   1      56.250   0.187  32.387  0.00  0.00    -0.048 SA
ATOM      4  C   UNL d   1      55.925   0.341  33.131  0.00  0.00     0.049 A 
ATOM      5  C   UNL d   1      56.547   0.444  33.663  0.00  0.00     0.072 A 
ATOM      6  C   UNL d   1      54.988   0.562  34.183  0.00  0.00     0.107 A 
ATOM      7  C   UNL d   1      55.146   0.400  33.392  0.00  0.00     0.021 A 
ATOM      8  C   UNL d   1      56.389   0.607  34.456  0.00  0.00     0.019 A 
ATOM      9  C   UNL d   1      55.610   0.666  34.715  0.00  0.00     0.015 A 
ENDROOT
BRANCH   1  10
ATOM     10  N   UNL d   1      57.619   0.068  31.857  0.00  0.00    -0.183 NA
ATOM     11  C   UNL d   1      57.354  -0.124  31.102  0.00  0.00     0.288 C 
ATOM     12  O   UNL d   1      56.546  -0.187  30.955  0.00  0.00    -0.265 OA
BRANCH  11  13
ATOM     13  C   UNL d   1      57.896  -0.252  30.494  0.00  0.00     0.098 A 
ATOM     14  S   UNL d   1      58.291   0.327  30.074  0.00  0.00    -0.081 SA
ATOM     15  C   UNL d   1      58.776  -0.038  29.520  0.00  0.00     0.030 A 
ATOM     16  C   UNL d   1      59.296   0.271  28.953  0.00  0.00     0.006 A 
ATOM     17  C   UNL d   1      58.687  -0.855  29.591  0.00  0.00     0.017 A 
ATOM     18  C   UNL d   1      59.726  -0.238  28.455  0.00  0.00     0.001 A 
ATOM     19  C   UNL d   1      59.625  -1.064  28.539  0.00  0.00     0.000 A 
ATOM     20  C   UNL d   1      59.114  -1.363  29.097  0.00  0.00     0.001 A 
ATOM     21  C   UNL d   1      58.134  -0.991  30.202  0.00  0.00     0.069 A 
ATOM     22 CL   UNL d   1      57.878  -1.727  30.461  0.00  0.00    -0.082 Cl
ENDBRANCH  11  13
ENDBRANCH   1  10
BRANCH   2  23
ATOM     23  C   UNL d   1      58.010   0.414  33.568  0.00  0.00     0.108 C 
BRANCH  23  24
ATOM     24  C   UNL d   1      58.660   0.561  33.085  0.00  0.00     0.135 C 
BRANCH  24  25
ATOM     25  O   UNL d   1      59.402   0.682  33.414  0.00  0.00    -0.325 OA
ATOM     26  C   UNL d   1      60.081   0.680  32.939  0.00  0.00     0.182 C 
ENDBRANCH  24  25
ENDBRANCH  23  24
ENDBRANCH   2  23
BRANCH   6  27
ATOM     27  S   UNL d   1      54.198   0.622  34.449  0.00  0.00     0.302 S 
ATOM     28  O   UNL d   1      53.908   0.658  33.673  0.00  0.00    -0.197 OA
ATOM     29  O   UNL d   1      54.489   0.587  35.217  0.00  0.00    -0.197 OA
ATOM     30  N   UNL d   1      53.429   0.681  34.738  0.00  0.00    -0.043 N 
ENDBRANCH   6  27
TORSDOF 6
ENDMDL
