MODEL 1
REMARK VINA RESULT:      13.1      0.000      0.000
REMARK  2 active torsions:
REMARK  status: ('A' for Active; 'I' for Inactive)
REMARK    1  A    between atoms: N_2  and  S_1 
REMARK    2  A    between atoms: C_3  and  S_1 
ROOT
ATOM      1  N   UNL d   1      45.643 -13.981  44.445  0.00  0.00    -0.231 N 
ATOM      2  C   UNL d   1      45.320 -13.484  43.864  0.00  0.00     0.075 A 
ATOM      3  C   UNL d   1      46.099 -13.481  44.949  0.00  0.00     0.092 A 
ATOM      4  C   UNL d   1      45.583 -12.695  44.025  0.00  0.00     0.018 A 
ATOM      5  C   UNL d   1      46.059 -12.728  44.696  0.00  0.00     0.021 A 
ATOM      6  C   UNL d   1      44.835 -13.615  43.224  0.00  0.00     0.018 A 
ATOM      7  C   UNL d   1      45.353 -12.082  43.543  0.00  0.00     0.002 A 
ATOM      8  C   UNL d   1      44.599 -12.996  42.732  0.00  0.00     0.002 A 
ATOM      9  C   UNL d   1      44.861 -12.225  42.896  0.00  0.00     0.000 A 
ENDROOT
BRANCH   1  10
ATOM     10  S   UNL d   1      45.593 -14.784  44.585  0.00  0.00     0.277 S 
ATOM     11  O   UNL d   1      46.366 -14.900  44.270  0.00  0.00    -0.199 OA
ATOM     12  O   UNL d   1      44.814 -14.693  44.907  0.00  0.00    -0.199 OA
BRANCH  10  13
ATOM     13  C   UNL d   1      45.555 -15.593  44.721  0.00  0.00     0.133 A 
ATOM     14  S   UNL d   1      44.867 -16.064  44.836  0.00  0.00    -0.074 SA
ATOM     15  C   UNL d   1      45.096 -16.838  44.952  0.00  0.00     0.036 A 
ATOM     16  C   UNL d   1      45.915 -16.901  44.918  0.00  0.00     0.008 A 
ATOM     17  C   UNL d   1      46.201 -16.133  44.775  0.00  0.00     0.020 A 
ENDBRANCH  10  13
ENDBRANCH   1  10
TORSDOF 2
ENDMDL
MODEL 2
REMARK VINA RESULT:      15.0      7.196      7.959
REMARK  2 active torsions:
REMARK  status: ('A' for Active; 'I' for Inactive)
REMARK    1  A    between atoms: N_2  and  S_1 
REMARK    2  A    between atoms: C_3  and  S_1 
ROOT
ATOM      1  N   UNL d   1      44.688 -15.472  36.675  0.00  0.00    -0.231 N 
ATOM      2  C   UNL d   1      45.220 -14.911  36.979  0.00  0.00     0.075 A 
ATOM      3  C   UNL d   1      45.163 -16.077  36.330  0.00  0.00     0.092 A 
ATOM      4  C   UNL d   1      46.004 -15.184  36.814  0.00  0.00     0.018 A 
ATOM      5  C   UNL d   1      45.934 -15.902  36.415  0.00  0.00     0.021 A 
ATOM      6  C   UNL d   1      45.123 -14.206  37.373  0.00  0.00     0.018 A 
ATOM      7  C   UNL d   1      46.647 -14.745  37.048  0.00  0.00     0.002 A 
ATOM      8  C   UNL d   1      45.772 -13.757  37.613  0.00  0.00     0.002 A 
ATOM      9  C   UNL d   1      46.538 -14.031  37.447  0.00  0.00     0.000 A 
ENDROOT
BRANCH   1  10
ATOM     10  S   UNL d   1      43.872 -15.520  36.661  0.00  0.00     0.277 S 
ATOM     11  O   UNL d   1      43.901 -16.301  36.976  0.00  0.00    -0.199 OA
ATOM     12  O   UNL d   1      43.818 -14.735  36.345  0.00  0.00    -0.199 OA
BRANCH  10  13
ATOM     13  C   UNL d   1      43.054 -15.581  36.653  0.00  0.00     0.133 A 
ATOM     14  S   UNL d   1      42.493 -15.034  36.963  0.00  0.00    -0.074 SA
ATOM     15  C   UNL d   1      41.743 -15.325  36.829  0.00  0.00     0.036 A 
ATOM     16  C   UNL d   1      41.782 -16.048  36.440  0.00  0.00     0.008 A 
ATOM     17  C   UNL d   1      42.591 -16.209  36.330  0.00  0.00     0.020 A 
ENDBRANCH  10  13
ENDBRANCH   1  10
TORSDOF 2
ENDMDL
MODEL 3
REMARK VINA RESULT:      16.0      3.054      5.102
REMARK  2 active torsions:
REMARK  status: ('A' for Active; 'I' for Inactive)
REMARK    1  A    between atoms: N_2  and  S_1 
REMARK    2  A    between atoms: C_3  and  S_1 
ROOT
ATOM      1  N   UNL d   1      46.241 -18.655  43.643  0.00  0.00    -0.231 N 
ATOM      2  C   UNL d   1      46.362 -18.973  42.886  0.00  0.00     0.075 A 
ATOM      3  C   UNL d   1      46.316 -19.302  44.180  0.00  0.00     0.092 A 
ATOM      4  C   UNL d   1      46.508 -19.802  42.975  0.00  0.00     0.018 A 
ATOM      5  C   UNL d   1      46.472 -19.972  43.781  0.00  0.00     0.021 A 
ATOM      6  C   UNL d   1      46.364 -18.651  42.139  0.00  0.00     0.018 A 
ATOM      7  C   UNL d   1      46.647 -20.266  42.322  0.00  0.00     0.002 A 
ATOM      8  C   UNL d   1      46.505 -19.117  41.472  0.00  0.00     0.002 A 
ATOM      9  C   UNL d   1      46.647 -19.929  41.568  0.00  0.00     0.000 A 
ENDROOT
BRANCH   1  10
ATOM     10  S   UNL d   1      46.079 -17.901  43.914  0.00  0.00     0.277 S 
ATOM     11  O   UNL d   1      46.098 -17.601  43.126  0.00  0.00    -0.199 OA
ATOM     12  O   UNL d   1      46.055 -18.179  44.714  0.00  0.00    -0.199 OA
BRANCH  10  13
ATOM     13  C   UNL d   1      45.918 -17.139  44.173  0.00  0.00     0.133 A 
ATOM     14  S   UNL d   1      45.726 -16.891  44.955  0.00  0.00    -0.074 SA
ATOM     15  C   UNL d   1      45.610 -16.084  44.952  0.00  0.00     0.036 A 
ATOM     16  C   UNL d   1      45.717 -15.783  44.194  0.00  0.00     0.008 A 
ATOM     17  C   UNL d   1      45.907 -16.433  43.711  0.00  0.00     0.020 A 
ENDBRANCH  10  13
ENDBRANCH   1  10
TORSDOF 2
ENDMDL
