MODEL 1
REMARK VINA RESULT:      66.2      0.000      0.000
REMARK  7 active torsions:
REMARK  status: ('A' for Active; 'I' for Inactive)
REMARK    1  A    between atoms: C_16  and  N_3 
REMARK    2  A    between atoms: C_15  and  N_8 
REMARK    3  A    between atoms: C_12  and  C_10 
REMARK    4  A    between atoms: C_11  and  N_14 
REMARK    5  A    between atoms: O_22  and  C_12 
REMARK    6  A    between atoms: C_13  and  C_15 
REMARK       I    between atoms: N_14  and  C_13 
REMARK    7  A    between atoms: C_28  and  O_22 
ROOT
ATOM      1  C   UNL d   1      14.614  17.246  -4.455  0.00  0.00     0.191 A 
ATOM      2  C   UNL d   1      15.162  16.724  -4.108  0.00  0.00     0.196 A 
ATOM      3  N   UNL d   1      15.044  17.880  -4.776  0.00  0.00    -0.193 N 
ATOM      4  N   UNL d   1      15.837  17.745  -4.626  0.00  0.00    -0.058 NA
ATOM      5  N   UNL d   1      15.918  17.047  -4.222  0.00  0.00    -0.122 NA
ATOM      6  N   UNL d   1      13.817  17.072  -4.430  0.00  0.00    -0.204 NA
ATOM      7  C   UNL d   1      14.898  16.043  -3.745  0.00  0.00     0.289 A 
ATOM      8  N   UNL d   1      14.094  15.862  -3.717  0.00  0.00    -0.249 N 
ATOM      9  C   UNL d   1      13.546  16.384  -4.065  0.00  0.00     0.187 A 
ATOM     10  O   UNL d   1      15.446  15.521  -3.398  0.00  0.00    -0.265 OA
ENDROOT
BRANCH   8  11
ATOM     11  C   UNL d   1      13.817  15.171  -3.350  0.00  0.00     0.147 C 
BRANCH  11  12
ATOM     12  C   UNL d   1      13.527  14.538  -3.805  0.00  0.00     0.297 C 
ATOM     13  N   UNL d   1      13.635  13.768  -3.541  0.00  0.00    -0.207 NA
ATOM     14  O   UNL d   1      13.135  14.689  -4.516  0.00  0.00    -0.264 OA
BRANCH  13  15
ATOM     15  C   UNL d   1      13.349  13.134  -3.989  0.00  0.00     0.090 A 
ATOM     16  C   UNL d   1      13.214  12.416  -3.630  0.00  0.00     0.081 A 
ATOM     17  C   UNL d   1      12.928  11.782  -4.079  0.00  0.00     0.007 A 
ATOM     18  C   UNL d   1      12.781  11.881  -4.884  0.00  0.00     0.000 A 
ATOM     19  C   UNL d   1      12.915  12.599  -5.243  0.00  0.00     0.002 A 
ATOM     20  C   UNL d   1      13.198  13.225  -4.795  0.00  0.00     0.019 A 
BRANCH  16  21
ATOM     21  C   UNL d   1      13.362  12.317  -2.825  0.00  0.00     0.302 C 
ATOM     22  O   UNL d   1      12.776  12.508  -2.272  0.00  0.00    -0.259 OA
BRANCH  21  23
ATOM     23  O   UNL d   1      14.094  12.027  -2.572  0.00  0.00    -0.271 OA
BRANCH  23  24
ATOM     24  C   UNL d   1      14.334  12.127  -1.787  0.00  0.00     0.126 C 
ATOM     25  C   UNL d   1      15.033  11.787  -1.525  0.00  0.00     0.029 C 
ENDBRANCH  23  24
ENDBRANCH  21  23
ENDBRANCH  16  21
ENDBRANCH  13  15
ENDBRANCH  11  12
ENDBRANCH   8  11
BRANCH   3  26
ATOM     26  C   UNL d   1      14.772  18.530  -5.170  0.00  0.00     0.086 A 
ATOM     27  C   UNL d   1      14.205  18.445  -5.783  0.00  0.00     0.019 A 
ATOM     28  C   UNL d   1      13.936  19.102  -6.175  0.00  0.00     0.002 A 
ATOM     29  C   UNL d   1      14.221  19.868  -5.972  0.00  0.00     0.000 A 
ATOM     30  C   UNL d   1      14.770  19.941  -5.377  0.00  0.00     0.002 A 
ATOM     31  C   UNL d   1      13.942  20.556  -6.380  0.00  0.00     0.000 C 
ATOM     32  C   UNL d   1      15.050  19.282  -4.972  0.00  0.00     0.019 A 
ENDBRANCH   3  26
TORSDOF 7
ENDMDL
MODEL 2
REMARK VINA RESULT:      68.3      1.715      3.381
REMARK  7 active torsions:
REMARK  status: ('A' for Active; 'I' for Inactive)
REMARK    1  A    between atoms: C_16  and  N_3 
REMARK    2  A    between atoms: C_15  and  N_8 
REMARK    3  A    between atoms: C_12  and  C_10 
REMARK    4  A    between atoms: C_11  and  N_14 
REMARK    5  A    between atoms: O_22  and  C_12 
REMARK    6  A    between atoms: C_13  and  C_15 
REMARK       I    between atoms: N_14  and  C_13 
REMARK    7  A    between atoms: C_28  and  O_22 
ROOT
ATOM      1  C   UNL d   1      13.707  14.627  -4.628  0.00  0.00     0.191 A 
ATOM      2  C   UNL d   1      13.612  13.826  -4.836  0.00  0.00     0.196 A 
ATOM      3  N   UNL d   1      13.837  15.051  -5.329  0.00  0.00    -0.193 N 
ATOM      4  N   UNL d   1      13.822  14.518  -5.950  0.00  0.00    -0.058 NA
ATOM      5  N   UNL d   1      13.686  13.774  -5.660  0.00  0.00    -0.122 NA
ATOM      6  N   UNL d   1      13.661  14.850  -3.844  0.00  0.00    -0.204 NA
ATOM      7  C   UNL d   1      13.474  13.271  -4.253  0.00  0.00     0.289 A 
ATOM      8  N   UNL d   1      13.427  13.491  -3.461  0.00  0.00    -0.249 N 
ATOM      9  C   UNL d   1      13.522  14.292  -3.253  0.00  0.00     0.187 A 
ATOM     10  O   UNL d   1      13.379  12.470  -4.461  0.00  0.00    -0.265 OA
ENDROOT
BRANCH   8  11
ATOM     11  C   UNL d   1      13.287  12.932  -2.862  0.00  0.00     0.147 C 
BRANCH  11  12
ATOM     12  C   UNL d   1      13.902  12.694  -2.356  0.00  0.00     0.297 C 
ATOM     13  N   UNL d   1      13.942  13.005  -1.596  0.00  0.00    -0.207 NA
ATOM     14  O   UNL d   1      14.464  12.150  -2.619  0.00  0.00    -0.264 OA
BRANCH  13  15
ATOM     15  C   UNL d   1      14.552  12.772  -1.087  0.00  0.00     0.090 A 
ATOM     16  C   UNL d   1      14.827  13.292  -0.525  0.00  0.00     0.081 A 
ATOM     17  C   UNL d   1      15.437  13.059  -0.016  0.00  0.00     0.007 A 
ATOM     18  C   UNL d   1      15.761  12.303  -0.081  0.00  0.00     0.000 A 
ATOM     19  C   UNL d   1      15.485  11.784  -0.642  0.00  0.00     0.002 A 
ATOM     20  C   UNL d   1      14.881  12.017  -1.145  0.00  0.00     0.019 A 
BRANCH  16  21
ATOM     21  C   UNL d   1      14.503  14.048  -0.460  0.00  0.00     0.302 C 
ATOM     22  O   UNL d   1      13.756  14.148  -0.119  0.00  0.00    -0.259 OA
BRANCH  21  23
ATOM     23  O   UNL d   1      14.926  14.703  -0.736  0.00  0.00    -0.271 OA
BRANCH  23  24
ATOM     24  C   UNL d   1      14.831  15.443  -0.378  0.00  0.00     0.126 C 
ATOM     25  C   UNL d   1      15.458  15.970  -0.352  0.00  0.00     0.029 C 
ENDBRANCH  23  24
ENDBRANCH  21  23
ENDBRANCH  16  21
ENDBRANCH  13  15
ENDBRANCH  11  12
ENDBRANCH   8  11
BRANCH   3  26
ATOM     26  C   UNL d   1      13.961  15.843  -5.428  0.00  0.00     0.086 A 
ATOM     27  C   UNL d   1      13.484  16.282  -5.960  0.00  0.00     0.019 A 
ATOM     28  C   UNL d   1      13.614  17.076  -6.055  0.00  0.00     0.002 A 
ATOM     29  C   UNL d   1      14.224  17.465  -5.623  0.00  0.00     0.000 A 
ATOM     30  C   UNL d   1      14.681  17.032  -5.110  0.00  0.00     0.002 A 
ATOM     31  C   UNL d   1      14.362  18.295  -5.719  0.00  0.00     0.000 C 
ATOM     32  C   UNL d   1      14.559  16.225  -5.005  0.00  0.00     0.019 A 
ENDBRANCH   3  26
TORSDOF 7
ENDMDL
MODEL 3
REMARK VINA RESULT:      69.0      2.395      6.050
REMARK  7 active torsions:
REMARK  status: ('A' for Active; 'I' for Inactive)
REMARK    1  A    between atoms: C_16  and  N_3 
REMARK    2  A    between atoms: C_15  and  N_8 
REMARK    3  A    between atoms: C_12  and  C_10 
REMARK    4  A    between atoms: C_11  and  N_14 
REMARK    5  A    between atoms: O_22  and  C_12 
REMARK    6  A    between atoms: C_13  and  C_15 
REMARK       I    between atoms: N_14  and  C_13 
REMARK    7  A    between atoms: C_28  and  O_22 
ROOT
ATOM      1  C   UNL d   1      15.030  15.365  -1.421  0.00  0.00     0.191 A 
ATOM      2  C   UNL d   1      15.148  16.175  -1.268  0.00  0.00     0.196 A 
ATOM      3  N   UNL d   1      14.952  14.983  -0.688  0.00  0.00    -0.193 N 
ATOM      4  N   UNL d   1      15.022  15.550  -0.103  0.00  0.00    -0.058 NA
ATOM      5  N   UNL d   1      15.141  16.275  -0.445  0.00  0.00    -0.122 NA
ATOM      6  N   UNL d   1      15.010  15.097  -2.192  0.00  0.00    -0.204 NA
ATOM      7  C   UNL d   1      15.244  16.694  -1.891  0.00  0.00     0.289 A 
ATOM      8  N   UNL d   1      15.225  16.428  -2.671  0.00  0.00    -0.249 N 
ATOM      9  C   UNL d   1      15.106  15.618  -2.823  0.00  0.00     0.187 A 
ATOM     10  O   UNL d   1      15.362  17.504  -1.739  0.00  0.00    -0.265 OA
ENDROOT
BRANCH   8  11
ATOM     11  C   UNL d   1      15.321  16.950  -3.310  0.00  0.00     0.147 C 
BRANCH  11  12
ATOM     12  C   UNL d   1      14.806  16.918  -3.962  0.00  0.00     0.297 C 
ATOM     13  N   UNL d   1      14.731  17.575  -4.449  0.00  0.00    -0.207 NA
ATOM     14  O   UNL d   1      14.377  16.229  -4.113  0.00  0.00    -0.264 OA
BRANCH  13  15
ATOM     15  C   UNL d   1      14.220  17.549  -5.100  0.00  0.00     0.090 A 
ATOM     16  C   UNL d   1      14.090  18.225  -5.536  0.00  0.00     0.081 A 
ATOM     17  C   UNL d   1      13.579  18.199  -6.186  0.00  0.00     0.007 A 
ATOM     18  C   UNL d   1      13.206  17.492  -6.389  0.00  0.00     0.000 A 
ATOM     19  C   UNL d   1      13.335  16.818  -5.953  0.00  0.00     0.002 A 
ATOM     20  C   UNL d   1      13.842  16.846  -5.309  0.00  0.00     0.019 A 
BRANCH  16  21
ATOM     21  C   UNL d   1      14.464  18.932  -5.333  0.00  0.00     0.302 C 
ATOM     22  O   UNL d   1      14.782  19.027  -4.575  0.00  0.00    -0.259 OA
BRANCH  21  23
ATOM     23  O   UNL d   1      14.520  19.542  -5.889  0.00  0.00    -0.271 OA
BRANCH  23  24
ATOM     24  C   UNL d   1      14.698  20.313  -5.645  0.00  0.00     0.126 C 
ATOM     25  C   UNL d   1      15.028  20.844  -6.175  0.00  0.00     0.029 C 
ENDBRANCH  23  24
ENDBRANCH  21  23
ENDBRANCH  16  21
ENDBRANCH  13  15
ENDBRANCH  11  12
ENDBRANCH   8  11
BRANCH   3  26
ATOM     26  C   UNL d   1      14.829  14.200  -0.534  0.00  0.00     0.086 A 
ATOM     27  C   UNL d   1      15.410  13.633  -0.743  0.00  0.00     0.019 A 
ATOM     28  C   UNL d   1      15.280  12.848  -0.586  0.00  0.00     0.002 A 
ATOM     29  C   UNL d   1      14.567  12.598  -0.214  0.00  0.00     0.000 A 
ATOM     30  C   UNL d   1      14.010  13.155  -0.014  0.00  0.00     0.002 A 
ATOM     31  C   UNL d   1      14.429  11.779  -0.047  0.00  0.00     0.000 C 
ATOM     32  C   UNL d   1      14.130  13.954  -0.169  0.00  0.00     0.019 A 
ENDBRANCH   3  26
TORSDOF 7
ENDMDL
