MODEL 1
REMARK VINA RESULT:      32.3      0.000      0.000
REMARK  5 active torsions:
REMARK  status: ('A' for Active; 'I' for Inactive)
REMARK    1  A    between atoms: N_3  and  C_1 
REMARK    2  A    between atoms: N_6  and  C_1 
REMARK       I    between atoms: C_2  and  N_4 
REMARK    3  A    between atoms: C_5  and  C_2 
REMARK    4  A    between atoms: C_7  and  N_3 
REMARK    5  A    between atoms: N_4  and  N_6 
ROOT
ATOM      1  N   UNL d   1      14.222  14.084  -2.992  0.00  0.00    -0.273 N 
ATOM      2  H   UNL d   1      14.879  14.588  -3.005  0.00  0.00     0.189 HD
ENDROOT
BRANCH   1   3
ATOM      3  N   UNL d   1      14.151  13.509  -2.407  0.00  0.00    -0.264 N 
ATOM      4  C   UNL d   1      14.703  13.484  -1.801  0.00  0.00     0.272 C 
ATOM      5  O   UNL d   1      15.324  14.031  -1.776  0.00  0.00    -0.266 OA
ATOM      6  H   UNL d   1      13.538  12.970  -2.431  0.00  0.00     0.190 HD
BRANCH   4   7
ATOM      7  C   UNL d   1      14.650  12.912  -1.200  0.00  0.00     0.058 A 
ATOM      8  C   UNL d   1      13.924  12.672  -0.919  0.00  0.00     0.011 A 
ATOM      9  C   UNL d   1      13.896  12.103  -0.323  0.00  0.00     0.035 A 
ATOM     10 BR   UNL d   1      13.172  11.842  -0.021  0.00  0.00    -0.049 Br
ATOM     11  C   UNL d   1      14.600  11.781  -0.014  0.00  0.00     0.007 A 
ATOM     12  C   UNL d   1      15.332  12.028  -0.302  0.00  0.00     0.001 A 
ATOM     13  C   UNL d   1      15.354  12.591  -0.891  0.00  0.00     0.005 A 
ENDBRANCH   4   7
ENDBRANCH   1   3
BRANCH   1  14
ATOM     14  C   UNL d   1      13.637  14.149  -3.556  0.00  0.00     0.191 C 
ATOM     15  S   UNL d   1      12.909  14.466  -3.366  0.00  0.00    -0.039 SA
BRANCH  14  16
ATOM     16  N   UNL d   1      13.785  13.887  -4.339  0.00  0.00    -0.331 N 
ATOM     17  H   UNL d   1      14.261  14.342  -4.841  0.00  0.00     0.168 HD
BRANCH  16  18
ATOM     18  C   UNL d   1      13.458  13.182  -4.602  0.00  0.00     0.058 A 
ATOM     19  C   UNL d   1      13.396  13.044  -5.413  0.00  0.00     0.016 A 
ATOM     20  C   UNL d   1      13.660  13.612  -5.954  0.00  0.00     0.002 C 
ATOM     21  C   UNL d   1      13.071  12.344  -5.670  0.00  0.00     0.001 A 
ATOM     22  C   UNL d   1      12.810  11.784  -5.137  0.00  0.00     0.000 A 
ATOM     23  C   UNL d   1      12.869  11.914  -4.335  0.00  0.00     0.002 A 
ATOM     24  C   UNL d   1      13.197  12.622  -4.069  0.00  0.00     0.017 A 
ENDBRANCH  16  18
ENDBRANCH  14  16
ENDBRANCH   1  14
TORSDOF 5
ENDMDL
MODEL 2
REMARK VINA RESULT:      34.3      1.443      3.972
REMARK  5 active torsions:
REMARK  status: ('A' for Active; 'I' for Inactive)
REMARK    1  A    between atoms: N_3  and  C_1 
REMARK    2  A    between atoms: N_6  and  C_1 
REMARK       I    between atoms: C_2  and  N_4 
REMARK    3  A    between atoms: C_5  and  C_2 
REMARK    4  A    between atoms: C_7  and  N_3 
REMARK    5  A    between atoms: N_4  and  N_6 
ROOT
ATOM      1  N   UNL d   1      14.704  14.577  -1.994  0.00  0.00    -0.273 N 
ATOM      2  H   UNL d   1      15.236  15.123  -2.317  0.00  0.00     0.189 HD
ENDROOT
BRANCH   1   3
ATOM      3  N   UNL d   1      14.250  14.097  -2.486  0.00  0.00    -0.264 N 
ATOM      4  C   UNL d   1      14.150  14.310  -3.272  0.00  0.00     0.272 C 
ATOM      5  O   UNL d   1      14.502  14.999  -3.568  0.00  0.00    -0.266 OA
ATOM      6  H   UNL d   1      13.904  13.418  -2.195  0.00  0.00     0.190 HD
BRANCH   4   7
ATOM      7  C   UNL d   1      13.696  13.842  -3.787  0.00  0.00     0.058 A 
ATOM      8  C   UNL d   1      13.615  13.042  -3.654  0.00  0.00     0.011 A 
ATOM      9  C   UNL d   1      13.160  12.596  -4.178  0.00  0.00     0.035 A 
ATOM     10 BR   UNL d   1      13.061  11.782  -4.066  0.00  0.00    -0.049 Br
ATOM     11  C   UNL d   1      12.790  12.959  -4.830  0.00  0.00     0.007 A 
ATOM     12  C   UNL d   1      12.876  13.770  -4.959  0.00  0.00     0.001 A 
ATOM     13  C   UNL d   1      13.327  14.205  -4.438  0.00  0.00     0.005 A 
ENDBRANCH   4   7
ENDBRANCH   1   3
BRANCH   1  14
ATOM     14  C   UNL d   1      14.621  14.505  -1.186  0.00  0.00     0.191 C 
ATOM     15  S   UNL d   1      14.103  14.984  -0.777  0.00  0.00    -0.039 SA
BRANCH  14  16
ATOM     16  N   UNL d   1      15.075  13.932  -0.773  0.00  0.00    -0.331 N 
ATOM     17  H   UNL d   1      15.863  14.096  -0.578  0.00  0.00     0.168 HD
BRANCH  16  18
ATOM     18  C   UNL d   1      14.734  13.216  -0.564  0.00  0.00     0.058 A 
ATOM     19  C   UNL d   1      15.155  12.518  -0.692  0.00  0.00     0.016 A 
ATOM     20  C   UNL d   1      15.912  12.542  -1.027  0.00  0.00     0.002 C 
ATOM     21  C   UNL d   1      14.814  11.808  -0.484  0.00  0.00     0.001 A 
ATOM     22  C   UNL d   1      14.068  11.785  -0.154  0.00  0.00     0.000 A 
ATOM     23  C   UNL d   1      13.648  12.470  -0.025  0.00  0.00     0.002 A 
ATOM     24  C   UNL d   1      13.989  13.192  -0.234  0.00  0.00     0.017 A 
ENDBRANCH  16  18
ENDBRANCH  14  16
ENDBRANCH   1  14
TORSDOF 5
ENDMDL
