MODEL 1
REMARK VINA RESULT:      62.1      0.000      0.000
REMARK  6 active torsions:
REMARK  status: ('A' for Active; 'I' for Inactive)
REMARK    1  A    between atoms: C_11  and  C_4 
REMARK    2  A    between atoms: N_10  and  C_5 
REMARK    3  A    between atoms: C_16  and  C_9 
REMARK    4  A    between atoms: C_13  and  N_10 
REMARK    5  A    between atoms: C_14  and  C_13 
REMARK    6  A    between atoms: C_21  and  C_16 
ROOT
ATOM      1  N   UNL d   1     -50.864  26.399  33.504  0.00  0.00    -0.195 N 
ATOM      2  C   UNL d   1     -51.201  25.647  33.476  0.00  0.00     0.167 A 
ATOM      3  N   UNL d   1     -52.141  26.967  33.605  0.00  0.00    -0.163 NA
ATOM      4  C   UNL d   1     -51.994  25.563  33.512  0.00  0.00     0.055 A 
ATOM      5  C   UNL d   1     -50.061  26.462  33.465  0.00  0.00     0.167 A 
ATOM      6  C   UNL d   1     -52.478  26.215  33.577  0.00  0.00     0.104 A 
ATOM      7  N   UNL d   1     -50.717  24.996  33.411  0.00  0.00    -0.227 NA
ATOM      8  C   UNL d   1     -49.580  25.828  33.402  0.00  0.00     0.058 A 
ATOM      9  C   UNL d   1     -49.917  25.076  33.374  0.00  0.00     0.086 A 
ATOM     10  C   UNL d   1     -53.277  26.138  33.614  0.00  0.00     0.023 C 
ENDROOT
BRANCH   5  11
ATOM     11  N   UNL d   1     -49.714  27.238  33.494  0.00  0.00    -0.224 NA
BRANCH  11  12
ATOM     12  C   UNL d   1     -49.815  28.000  33.845  0.00  0.00     0.120 C 
BRANCH  12  13
ATOM     13  C   UNL d   1     -49.189  28.370  34.268  0.00  0.00     0.101 A 
ATOM     14  N   UNL d   1     -48.570  27.900  34.613  0.00  0.00    -0.242 NA
ATOM     15  C   UNL d   1     -47.945  28.278  35.037  0.00  0.00     0.099 A 
ATOM     16  C   UNL d   1     -47.933  29.121  35.119  0.00  0.00     0.021 A 
ATOM     17  C   UNL d   1     -48.558  29.586  34.770  0.00  0.00     0.003 A 
ATOM     18  C   UNL d   1     -49.184  29.209  34.345  0.00  0.00     0.021 A 
ENDBRANCH  12  13
ENDBRANCH  11  12
ENDBRANCH   5  11
BRANCH   9  19
ATOM     19  C   UNL d   1     -49.419  24.394  33.307  0.00  0.00     0.019 C 
BRANCH  19  20
ATOM     20  C   UNL d   1     -49.211  23.936  33.997  0.00  0.00     0.002 C 
ATOM     21  C   UNL d   1     -48.523  23.455  33.996  0.00  0.00     0.000 C 
ENDBRANCH  19  20
ENDBRANCH   9  19
BRANCH   4  22
ATOM     22  C   UNL d   1     -52.326  24.823  33.485  0.00  0.00     0.004 A 
ATOM     23  C   UNL d   1     -51.860  24.171  33.607  0.00  0.00     0.000 A 
ATOM     24  C   UNL d   1     -52.191  23.430  33.580  0.00  0.00     0.000 A 
ATOM     25  C   UNL d   1     -52.989  23.341  33.430  0.00  0.00     0.000 A 
ATOM     26  C   UNL d   1     -53.459  23.994  33.306  0.00  0.00     0.000 A 
ATOM     27  C   UNL d   1     -53.122  24.746  33.334  0.00  0.00     0.000 A 
ENDBRANCH   4  22
TORSDOF 6
ENDMDL
