MODEL 1
REMARK VINA RESULT:      30.6      0.000      0.000
REMARK  5 active torsions:
REMARK  status: ('A' for Active; 'I' for Inactive)
REMARK    1  A    between atoms: N_10  and  C_2 
REMARK    2  A    between atoms: C_7  and  C_5 
REMARK    3  A    between atoms: C_6  and  C_9 
REMARK    4  A    between atoms: C_8  and  C_7 
REMARK       I    between atoms: N_11  and  C_8 
REMARK    5  A    between atoms: C_14  and  N_11 
ROOT
ATOM      1  C   UNL d   1      13.519  12.517  -3.359  0.00  0.00     0.280 C 
ATOM      2  N   UNL d   1      13.398  13.278  -3.070  0.00  0.00    -0.208 NA
ATOM      3  O   UNL d   1      13.691  12.406  -4.157  0.00  0.00    -0.265 OA
ENDROOT
BRANCH   1   4
ATOM      4  C   UNL d   1      13.469  11.869  -2.855  0.00  0.00     0.074 C 
BRANCH   4   5
ATOM      5  C   UNL d   1      13.896  11.855  -2.150  0.00  0.00     0.093 A 
ATOM      6  C   UNL d   1      13.572  11.828  -1.392  0.00  0.00     0.272 A 
ATOM      7  N   UNL d   1      14.192  11.823  -0.855  0.00  0.00    -0.251 N 
ATOM      8  O   UNL d   1      12.769  11.811  -1.207  0.00  0.00    -0.266 OA
ATOM      9  C   UNL d   1      14.899  11.846  -1.280  0.00  0.00     0.182 A 
ATOM     10  C   UNL d   1      14.124  11.798  -0.031  0.00  0.00     0.104 C 
ATOM     11  S   UNL d   1      14.713  11.866  -2.080  0.00  0.00    -0.045 SA
BRANCH   9  12
ATOM     12  N   UNL d   1      15.659  11.848  -0.958  0.00  0.00    -0.219 NA
ATOM     13  C   UNL d   1      16.291  12.158  -1.391  0.00  0.00     0.122 C 
ENDBRANCH   9  12
ENDBRANCH   4   5
ENDBRANCH   1   4
BRANCH   2  14
ATOM     14  C   UNL d   1      13.449  13.925  -3.581  0.00  0.00     0.085 A 
ATOM     15  C   UNL d   1      13.950  14.560  -3.404  0.00  0.00     0.023 A 
ATOM     16  C   UNL d   1      13.997  15.204  -3.919  0.00  0.00     0.073 A 
ATOM     17  C   UNL d   1      13.547  15.213  -4.606  0.00  0.00     0.004 A 
ATOM     18  C   UNL d   1      13.046  14.578  -4.782  0.00  0.00     0.002 A 
ATOM     19  C   UNL d   1      12.996  13.936  -4.272  0.00  0.00     0.019 A 
BRANCH  16  20
ATOM     20  C   UNL d   1      14.498  15.838  -3.743  0.00  0.00     0.419 C 
ATOM     21  F   UNL d   1      14.951  16.413  -3.583  0.00  0.00    -0.166 F 
ATOM     22  F   UNL d   1      15.020  16.282  -4.262  0.00  0.00    -0.166 F 
ATOM     23  F   UNL d   1      14.635  16.231  -2.986  0.00  0.00    -0.166 F 
ENDBRANCH  16  20
ENDBRANCH   2  14
TORSDOF 5
ENDMDL
MODEL 2
REMARK VINA RESULT:      31.2      3.125      4.764
REMARK  5 active torsions:
REMARK  status: ('A' for Active; 'I' for Inactive)
REMARK    1  A    between atoms: N_10  and  C_2 
REMARK    2  A    between atoms: C_7  and  C_5 
REMARK    3  A    between atoms: C_6  and  C_9 
REMARK    4  A    between atoms: C_8  and  C_7 
REMARK       I    between atoms: N_11  and  C_8 
REMARK    5  A    between atoms: C_14  and  N_11 
ROOT
ATOM      1  C   UNL d   1      15.083  14.645  -0.440  0.00  0.00     0.280 C 
ATOM      2  N   UNL d   1      15.443  13.961  -0.725  0.00  0.00    -0.208 NA
ATOM      3  O   UNL d   1      14.315  14.609  -0.145  0.00  0.00    -0.265 OA
ENDROOT
BRANCH   1   4
ATOM      4  C   UNL d   1      15.487  15.361  -0.450  0.00  0.00     0.074 C 
BRANCH   4   5
ATOM      5  C   UNL d   1      15.273  15.954  -0.981  0.00  0.00     0.093 A 
ATOM      6  C   UNL d   1      15.317  16.765  -0.842  0.00  0.00     0.272 A 
ATOM      7  N   UNL d   1      15.050  17.150  -1.514  0.00  0.00    -0.251 N 
ATOM      8  O   UNL d   1      15.583  17.125  -0.149  0.00  0.00    -0.266 OA
ATOM      9  C   UNL d   1      14.840  16.578  -2.071  0.00  0.00     0.182 A 
ATOM     10  C   UNL d   1      14.999  17.969  -1.620  0.00  0.00     0.104 C 
ATOM     11  S   UNL d   1      14.978  15.840  -1.739  0.00  0.00    -0.045 SA
BRANCH   9  12
ATOM     12  N   UNL d   1      14.543  16.722  -2.827  0.00  0.00    -0.219 NA
ATOM     13  C   UNL d   1      14.604  16.143  -3.413  0.00  0.00     0.122 C 
ENDBRANCH   9  12
ENDBRANCH   4   5
ENDBRANCH   1   4
BRANCH   2  14
ATOM     14  C   UNL d   1      15.032  13.245  -0.713  0.00  0.00     0.085 A 
ATOM     15  C   UNL d   1      14.611  12.991  -1.380  0.00  0.00     0.023 A 
ATOM     16  C   UNL d   1      14.203  12.274  -1.361  0.00  0.00     0.073 A 
ATOM     17  C   UNL d   1      14.214  11.813  -0.681  0.00  0.00     0.004 A 
ATOM     18  C   UNL d   1      14.635  12.066  -0.015  0.00  0.00     0.002 A 
ATOM     19  C   UNL d   1      15.043  12.780  -0.029  0.00  0.00     0.019 A 
BRANCH  16  20
ATOM     20  C   UNL d   1      13.782  12.021  -2.027  0.00  0.00     0.419 C 
ATOM     21  F   UNL d   1      13.401  11.791  -2.630  0.00  0.00    -0.166 F 
ATOM     22  F   UNL d   1      12.948  11.824  -2.103  0.00  0.00    -0.166 F 
ATOM     23  F   UNL d   1      14.065  11.884  -2.831  0.00  0.00    -0.166 F 
ENDBRANCH  16  20
ENDBRANCH   2  14
TORSDOF 5
ENDMDL
