MODEL 1
REMARK VINA RESULT:       2.3      0.000      0.000
REMARK  5 active torsions:
REMARK  status: ('A' for Active; 'I' for Inactive)
REMARK    1  A    between atoms: C_8  and  C_1 
REMARK    2  A    between atoms: C_11  and  C_3 
REMARK    3  A    between atoms: C_7  and  C_4 
REMARK    4  A    between atoms: O_16  and  C_8 
REMARK    5  A    between atoms: C_19  and  O_16 
ROOT
ATOM      1  C   UNL d   1     -41.714-122.489 -52.036  0.00  0.00     0.102 A 
ATOM      2  C   UNL d   1     -41.872-123.288 -51.879  0.00  0.00     0.201 A 
ATOM      3  C   UNL d   1     -41.586-121.955 -51.420  0.00  0.00     0.008 A 
ATOM      4  C   UNL d   1     -41.767-122.997 -50.478  0.00  0.00     0.009 A 
ATOM      5  C   UNL d   1     -41.895-123.531 -51.094  0.00  0.00     0.043 A 
ATOM      6  C   UNL d   1     -41.614-122.215 -50.642  0.00  0.00     0.001 A 
ATOM      7  O   UNL d   1     -41.999-123.817 -52.489  0.00  0.00    -0.286 OA
ENDROOT
BRANCH   3   8
ATOM      8  C   UNL d   1     -41.432-121.167 -51.590  0.00  0.00     0.000 A 
ATOM      9  C   UNL d   1     -41.363-120.631 -50.966  0.00  0.00     0.000 A 
ATOM     10  C   UNL d   1     -41.207-119.839 -51.144  0.00  0.00     0.000 A 
ATOM     11  C   UNL d   1     -41.123-119.585 -51.903  0.00  0.00     0.000 A 
ATOM     12  C   UNL d   1     -41.195-120.138 -52.528  0.00  0.00     0.000 A 
ATOM     13  C   UNL d   1     -41.350-120.930 -52.363  0.00  0.00     0.000 A 
ENDBRANCH   3   8
BRANCH   1  14
ATOM     14  C   UNL d   1     -41.687-122.226 -52.823  0.00  0.00     0.303 C 
ATOM     15  O   UNL d   1     -42.222-121.657 -53.088  0.00  0.00    -0.259 OA
BRANCH  14  16
ATOM     16  O   UNL d   1     -41.123-122.533 -53.346  0.00  0.00    -0.271 OA
BRANCH  16  17
ATOM     17  C   UNL d   1     -41.259-122.509 -54.157  0.00  0.00     0.126 C 
ATOM     18  C   UNL d   1     -41.213-123.202 -54.601  0.00  0.00     0.029 C 
ENDBRANCH  16  17
ENDBRANCH  14  16
ENDBRANCH   1  14
BRANCH   4  19
ATOM     19  C   UNL d   1     -41.796-123.264 -49.695  0.00  0.00     0.030 A 
ATOM     20  S   UNL d   1     -41.162-123.524 -49.243  0.00  0.00    -0.086 SA
ATOM     21  C   UNL d   1     -41.442-123.729 -48.516  0.00  0.00     0.035 A 
ATOM     22  C   UNL d   1     -42.260-123.603 -48.494  0.00  0.00     0.007 A 
ATOM     23  C   UNL d   1     -42.486-123.310 -49.232  0.00  0.00     0.007 A 
ENDBRANCH   4  19
TORSDOF 5
ENDMDL
MODEL 2
REMARK VINA RESULT:       2.9      1.023      2.428
REMARK  5 active torsions:
REMARK  status: ('A' for Active; 'I' for Inactive)
REMARK    1  A    between atoms: C_8  and  C_1 
REMARK    2  A    between atoms: C_11  and  C_3 
REMARK    3  A    between atoms: C_7  and  C_4 
REMARK    4  A    between atoms: O_16  and  C_8 
REMARK    5  A    between atoms: C_19  and  O_16 
ROOT
ATOM      1  C   UNL d   1     -41.565-121.643 -51.648  0.00  0.00     0.102 A 
ATOM      2  C   UNL d   1     -41.574-121.332 -50.879  0.00  0.00     0.201 A 
ATOM      3  C   UNL d   1     -41.844-122.404 -51.800  0.00  0.00     0.008 A 
ATOM      4  C   UNL d   1     -42.148-122.567 -50.426  0.00  0.00     0.009 A 
ATOM      5  C   UNL d   1     -41.868-121.805 -50.274  0.00  0.00     0.043 A 
ATOM      6  C   UNL d   1     -42.135-122.862 -51.184  0.00  0.00     0.001 A 
ATOM      7  O   UNL d   1     -41.297-120.579 -50.729  0.00  0.00    -0.286 OA
ENDROOT
BRANCH   3   8
ATOM      8  C   UNL d   1     -41.830-122.699 -52.566  0.00  0.00     0.000 A 
ATOM      9  C   UNL d   1     -41.179-123.144 -52.810  0.00  0.00     0.000 A 
ATOM     10  C   UNL d   1     -41.172-123.438 -53.582  0.00  0.00     0.000 A 
ATOM     11  C   UNL d   1     -41.778-123.299 -54.094  0.00  0.00     0.000 A 
ATOM     12  C   UNL d   1     -42.433-122.845 -53.835  0.00  0.00     0.000 A 
ATOM     13  C   UNL d   1     -42.452-122.548 -53.067  0.00  0.00     0.000 A 
ENDBRANCH   3   8
BRANCH   1  14
ATOM     14  C   UNL d   1     -41.271-121.179 -52.271  0.00  0.00     0.303 C 
ATOM     15  O   UNL d   1     -41.125-121.521 -53.008  0.00  0.00    -0.259 OA
BRANCH  14  16
ATOM     16  O   UNL d   1     -41.123-120.373 -52.158  0.00  0.00    -0.271 OA
BRANCH  16  17
ATOM     17  C   UNL d   1     -41.279-119.837 -52.763  0.00  0.00     0.126 C 
ATOM     18  C   UNL d   1     -41.335-119.033 -52.593  0.00  0.00     0.029 C 
ENDBRANCH  16  17
ENDBRANCH  14  16
ENDBRANCH   1  14
BRANCH   4  19
ATOM     19  C   UNL d   1     -42.440-123.026 -49.802  0.00  0.00     0.030 A 
ATOM     20  S   UNL d   1     -42.077-123.154 -49.077  0.00  0.00    -0.086 SA
ATOM     21  C   UNL d   1     -42.556-123.633 -48.640  0.00  0.00     0.035 A 
ATOM     22  C   UNL d   1     -43.232-123.817 -49.081  0.00  0.00     0.007 A 
ATOM     23  C   UNL d   1     -43.164-123.438 -49.811  0.00  0.00     0.007 A 
ENDBRANCH   4  19
TORSDOF 5
ENDMDL
MODEL 3
REMARK VINA RESULT:       3.4      2.081      4.090
REMARK  5 active torsions:
REMARK  status: ('A' for Active; 'I' for Inactive)
REMARK    1  A    between atoms: C_8  and  C_1 
REMARK    2  A    between atoms: C_11  and  C_3 
REMARK    3  A    between atoms: C_7  and  C_4 
REMARK    4  A    between atoms: O_16  and  C_8 
REMARK    5  A    between atoms: C_19  and  O_16 
ROOT
ATOM      1  C   UNL d   1     -42.363-123.213 -49.697  0.00  0.00     0.102 A 
ATOM      2  C   UNL d   1     -41.603-123.491 -49.882  0.00  0.00     0.201 A 
ATOM      3  C   UNL d   1     -42.847-122.888 -50.280  0.00  0.00     0.008 A 
ATOM      4  C   UNL d   1     -41.834-123.107 -51.245  0.00  0.00     0.009 A 
ATOM      5  C   UNL d   1     -41.349-123.433 -50.662  0.00  0.00     0.043 A 
ATOM      6  C   UNL d   1     -42.577-122.837 -51.054  0.00  0.00     0.001 A 
ATOM      7  O   UNL d   1     -41.123-123.813 -49.304  0.00  0.00    -0.286 OA
ENDROOT
BRANCH   3   8
ATOM      8  C   UNL d   1     -43.597-122.617 -50.083  0.00  0.00     0.000 A 
ATOM      9  C   UNL d   1     -43.772-121.817 -50.187  0.00  0.00     0.000 A 
ATOM     10  C   UNL d   1     -44.528-121.551 -49.987  0.00  0.00     0.000 A 
ATOM     11  C   UNL d   1     -45.089-122.051 -49.696  0.00  0.00     0.000 A 
ATOM     12  C   UNL d   1     -44.899-122.861 -49.594  0.00  0.00     0.000 A 
ATOM     13  C   UNL d   1     -44.149-123.137 -49.791  0.00  0.00     0.000 A 
ENDBRANCH   3   8
BRANCH   1  14
ATOM     14  C   UNL d   1     -42.636-123.264 -48.914  0.00  0.00     0.303 C 
ATOM     15  O   UNL d   1     -43.275-123.752 -48.730  0.00  0.00    -0.259 OA
BRANCH  14  16
ATOM     16  O   UNL d   1     -42.269-122.827 -48.315  0.00  0.00    -0.271 OA
BRANCH  16  17
ATOM     17  C   UNL d   1     -42.349-123.059 -47.529  0.00  0.00     0.126 C 
ATOM     18  C   UNL d   1     -41.980-122.625 -46.935  0.00  0.00     0.029 C 
ENDBRANCH  16  17
ENDBRANCH  14  16
ENDBRANCH   1  14
BRANCH   4  19
ATOM     19  C   UNL d   1     -41.558-123.058 -52.024  0.00  0.00     0.030 A 
ATOM     20  S   UNL d   1     -41.417-123.686 -52.533  0.00  0.00    -0.086 SA
ATOM     21  C   UNL d   1     -41.154-123.384 -53.233  0.00  0.00     0.035 A 
ATOM     22  C   UNL d   1     -41.123-122.559 -53.179  0.00  0.00     0.007 A 
ATOM     23  C   UNL d   1     -41.375-122.349 -52.422  0.00  0.00     0.007 A 
ENDBRANCH   4  19
TORSDOF 5
ENDMDL
MODEL 4
REMARK VINA RESULT:       3.5      1.918      3.925
REMARK  5 active torsions:
REMARK  status: ('A' for Active; 'I' for Inactive)
REMARK    1  A    between atoms: C_8  and  C_1 
REMARK    2  A    between atoms: C_11  and  C_3 
REMARK    3  A    between atoms: C_7  and  C_4 
REMARK    4  A    between atoms: O_16  and  C_8 
REMARK    5  A    between atoms: C_19  and  O_16 
ROOT
ATOM      1  C   UNL d   1     -42.675-121.996 -52.151  0.00  0.00     0.102 A 
ATOM      2  C   UNL d   1     -42.988-121.736 -52.873  0.00  0.00     0.201 A 
ATOM      3  C   UNL d   1     -42.040-122.522 -52.130  0.00  0.00     0.008 A 
ATOM      4  C   UNL d   1     -42.012-122.544 -53.545  0.00  0.00     0.009 A 
ATOM      5  C   UNL d   1     -42.647-122.018 -53.566  0.00  0.00     0.043 A 
ATOM      6  C   UNL d   1     -41.711-122.793 -52.831  0.00  0.00     0.001 A 
ATOM      7  O   UNL d   1     -43.617-121.215 -52.893  0.00  0.00    -0.286 OA
ENDROOT
BRANCH   3   8
ATOM      8  C   UNL d   1     -41.740-122.771 -51.407  0.00  0.00     0.000 A 
ATOM      9  C   UNL d   1     -41.768-123.574 -51.219  0.00  0.00     0.000 A 
ATOM     10  C   UNL d   1     -41.464-123.817 -50.490  0.00  0.00     0.000 A 
ATOM     11  C   UNL d   1     -41.146-123.293 -49.968  0.00  0.00     0.000 A 
ATOM     12  C   UNL d   1     -41.123-122.480 -50.170  0.00  0.00     0.000 A 
ATOM     13  C   UNL d   1     -41.422-122.226 -50.894  0.00  0.00     0.000 A 
ENDBRANCH   3   8
BRANCH   1  14
ATOM     14  C   UNL d   1     -43.007-121.721 -51.440  0.00  0.00     0.303 C 
ATOM     15  O   UNL d   1     -42.577-121.216 -50.950  0.00  0.00    -0.259 OA
BRANCH  14  16
ATOM     16  O   UNL d   1     -43.771-121.953 -51.220  0.00  0.00    -0.271 OA
BRANCH  16  17
ATOM     17  C   UNL d   1     -44.034-121.823 -50.451  0.00  0.00     0.126 C 
ATOM     18  C   UNL d   1     -44.813-122.000 -50.249  0.00  0.00     0.029 C 
ENDBRANCH  16  17
ENDBRANCH  14  16
ENDBRANCH   1  14
BRANCH   4  19
ATOM     19  C   UNL d   1     -41.683-122.815 -54.256  0.00  0.00     0.030 A 
ATOM     20  S   UNL d   1     -41.578-123.598 -54.478  0.00  0.00    -0.086 SA
ATOM     21  C   UNL d   1     -41.240-123.605 -55.210  0.00  0.00     0.035 A 
ATOM     22  C   UNL d   1     -41.126-122.825 -55.465  0.00  0.00     0.007 A 
ATOM     23  C   UNL d   1     -41.402-122.326 -54.869  0.00  0.00     0.007 A 
ENDBRANCH   4  19
TORSDOF 5
ENDMDL
MODEL 5
REMARK VINA RESULT:       3.9      1.625      2.519
REMARK  5 active torsions:
REMARK  status: ('A' for Active; 'I' for Inactive)
REMARK    1  A    between atoms: C_8  and  C_1 
REMARK    2  A    between atoms: C_11  and  C_3 
REMARK    3  A    between atoms: C_7  and  C_4 
REMARK    4  A    between atoms: O_16  and  C_8 
REMARK    5  A    between atoms: C_19  and  O_16 
ROOT
ATOM      1  C   UNL d   1     -42.272-123.033 -50.330  0.00  0.00     0.102 A 
ATOM      2  C   UNL d   1     -41.621-123.496 -50.108  0.00  0.00     0.201 A 
ATOM      3  C   UNL d   1     -42.775-122.710 -49.762  0.00  0.00     0.008 A 
ATOM      4  C   UNL d   1     -41.995-123.298 -48.737  0.00  0.00     0.009 A 
ATOM      5  C   UNL d   1     -41.492-123.622 -49.306  0.00  0.00     0.043 A 
ATOM      6  C   UNL d   1     -42.631-122.846 -48.965  0.00  0.00     0.001 A 
ATOM      7  O   UNL d   1     -41.123-123.816 -50.671  0.00  0.00    -0.286 OA
ENDROOT
BRANCH   3   8
ATOM      8  C   UNL d   1     -43.416-122.253 -49.997  0.00  0.00     0.000 A 
ATOM      9  C   UNL d   1     -43.290-121.464 -50.201  0.00  0.00     0.000 A 
ATOM     10  C   UNL d   1     -43.940-121.011 -50.436  0.00  0.00     0.000 A 
ATOM     11  C   UNL d   1     -44.682-121.321 -50.469  0.00  0.00     0.000 A 
ATOM     12  C   UNL d   1     -44.798-122.124 -50.259  0.00  0.00     0.000 A 
ATOM     13  C   UNL d   1     -44.158-122.585 -50.023  0.00  0.00     0.000 A 
ENDBRANCH   3   8
BRANCH   1  14
ATOM     14  C   UNL d   1     -42.418-122.895 -51.137  0.00  0.00     0.303 C 
ATOM     15  O   UNL d   1     -43.080-123.226 -51.500  0.00  0.00    -0.259 OA
BRANCH  14  16
ATOM     16  O   UNL d   1     -41.899-122.426 -51.580  0.00  0.00    -0.271 OA
BRANCH  16  17
ATOM     17  C   UNL d   1     -41.751-122.610 -52.368  0.00  0.00     0.126 C 
ATOM     18  C   UNL d   1     -41.575-122.008 -52.903  0.00  0.00     0.029 C 
ENDBRANCH  16  17
ENDBRANCH  14  16
ENDBRANCH   1  14
BRANCH   4  19
ATOM     19  C   UNL d   1     -41.846-123.438 -47.934  0.00  0.00     0.030 A 
ATOM     20  S   UNL d   1     -42.369-123.759 -47.389  0.00  0.00    -0.086 SA
ATOM     21  C   UNL d   1     -41.994-123.795 -46.677  0.00  0.00     0.035 A 
ATOM     22  C   UNL d   1     -41.226-123.497 -46.758  0.00  0.00     0.007 A 
ATOM     23  C   UNL d   1     -41.129-123.271 -47.546  0.00  0.00     0.007 A 
ENDBRANCH   4  19
TORSDOF 5
ENDMDL
MODEL 6
REMARK VINA RESULT:       5.3      1.785      2.699
REMARK  5 active torsions:
REMARK  status: ('A' for Active; 'I' for Inactive)
REMARK    1  A    between atoms: C_8  and  C_1 
REMARK    2  A    between atoms: C_11  and  C_3 
REMARK    3  A    between atoms: C_7  and  C_4 
REMARK    4  A    between atoms: O_16  and  C_8 
REMARK    5  A    between atoms: C_19  and  O_16 
ROOT
ATOM      1  C   UNL d   1     -43.167-122.624 -50.086  0.00  0.00     0.102 A 
ATOM      2  C   UNL d   1     -43.593-122.912 -49.436  0.00  0.00     0.201 A 
ATOM      3  C   UNL d   1     -42.348-122.529 -50.047  0.00  0.00     0.008 A 
ATOM      4  C   UNL d   1     -42.357-123.006 -48.714  0.00  0.00     0.009 A 
ATOM      5  C   UNL d   1     -43.176-123.101 -48.753  0.00  0.00     0.043 A 
ATOM      6  C   UNL d   1     -41.948-122.722 -49.357  0.00  0.00     0.001 A 
ATOM      7  O   UNL d   1     -44.404-123.006 -49.475  0.00  0.00    -0.286 OA
ENDROOT
BRANCH   3   8
ATOM      8  C   UNL d   1     -41.939-122.241 -50.699  0.00  0.00     0.000 A 
ATOM      9  C   UNL d   1     -41.771-122.756 -51.322  0.00  0.00     0.000 A 
ATOM     10  C   UNL d   1     -41.359-122.460 -51.974  0.00  0.00     0.000 A 
ATOM     11  C   UNL d   1     -41.123-121.691 -52.012  0.00  0.00     0.000 A 
ATOM     12  C   UNL d   1     -41.299-121.179 -51.373  0.00  0.00     0.000 A 
ATOM     13  C   UNL d   1     -41.709-121.462 -50.718  0.00  0.00     0.000 A 
ENDBRANCH   3   8
BRANCH   1  14
ATOM     14  C   UNL d   1     -43.572-122.428 -50.785  0.00  0.00     0.303 C 
ATOM     15  O   UNL d   1     -43.523-122.922 -51.443  0.00  0.00    -0.259 OA
BRANCH  14  16
ATOM     16  O   UNL d   1     -44.027-121.738 -50.824  0.00  0.00    -0.271 OA
BRANCH  16  17
ATOM     17  C   UNL d   1     -44.575-121.641 -51.430  0.00  0.00     0.126 C 
ATOM     18  C   UNL d   1     -45.208-121.122 -51.330  0.00  0.00     0.029 C 
ENDBRANCH  16  17
ENDBRANCH  14  16
ENDBRANCH   1  14
BRANCH   4  19
ATOM     19  C   UNL d   1     -41.957-123.202 -48.016  0.00  0.00     0.030 A 
ATOM     20  S   UNL d   1     -42.068-122.862 -47.277  0.00  0.00    -0.086 SA
ATOM     21  C   UNL d   1     -41.563-123.221 -46.761  0.00  0.00     0.035 A 
ATOM     22  C   UNL d   1     -41.123-123.795 -47.164  0.00  0.00     0.007 A 
ATOM     23  C   UNL d   1     -41.367-123.786 -47.952  0.00  0.00     0.007 A 
ENDBRANCH   4  19
TORSDOF 5
ENDMDL
