MODEL 1
REMARK VINA RESULT:      -5.9      0.000      0.000
REMARK  3 active torsions:
REMARK  status: ('A' for Active; 'I' for Inactive)
REMARK    1  A    between atoms: C_10  and  C_3 
REMARK    2  A    between atoms: O_13  and  C_10 
REMARK    3  A    between atoms: C_12  and  O_13 
ROOT
ATOM      1  C   UNL d   1     -42.355-122.700 -50.061  0.00  0.00     0.002 A 
ATOM      2  C   UNL d   1     -42.352-122.438 -50.843  0.00  0.00     0.025 A 
ATOM      3  C   UNL d   1     -41.736-123.188 -49.784  0.00  0.00     0.000 A 
ATOM      4  C   UNL d   1     -41.123-123.407 -50.294  0.00  0.00     0.002 A 
ATOM      5  C   UNL d   1     -41.744-122.655 -51.350  0.00  0.00     0.100 A 
ATOM      6  C   UNL d   1     -41.124-123.143 -51.074  0.00  0.00     0.025 A 
ATOM      7  C   UNL d   1     -42.959-122.486 -49.553  0.00  0.00     0.000 A 
ATOM      8  C   UNL d   1     -41.734-123.452 -49.005  0.00  0.00     0.000 A 
ATOM      9  C   UNL d   1     -42.967-122.745 -48.772  0.00  0.00     0.000 A 
ATOM     10  C   UNL d   1     -42.347-123.233 -48.495  0.00  0.00     0.000 A 
ENDROOT
BRANCH   5  11
ATOM     11  O   UNL d   1     -41.738-122.393 -52.136  0.00  0.00    -0.304 OA
BRANCH  11  12
ATOM     12  C   UNL d   1     -41.387-122.868 -52.721  0.00  0.00     0.142 C 
BRANCH  12  13
ATOM     13  C   UNL d   1     -41.514-122.704 -53.519  0.00  0.00     0.115 A 
ATOM     14  N   UNL d   1     -41.931-122.061 -53.828  0.00  0.00    -0.217 NA
ATOM     15  C   UNL d   1     -41.918-122.119 -54.652  0.00  0.00     0.215 A 
ATOM     16  S   UNL d   1     -41.490-122.804 -54.851  0.00  0.00    -0.045 SA
ATOM     17  N   UNL d   1     -42.268-121.591 -55.178  0.00  0.00    -0.120 N 
ATOM     18  C   UNL d   1     -41.240-123.166 -54.155  0.00  0.00     0.060 A 
ENDBRANCH  12  13
ENDBRANCH  11  12
ENDBRANCH   5  11
TORSDOF 3
ENDMDL
MODEL 2
REMARK VINA RESULT:      -5.8      2.069      4.498
REMARK  3 active torsions:
REMARK  status: ('A' for Active; 'I' for Inactive)
REMARK    1  A    between atoms: C_10  and  C_3 
REMARK    2  A    between atoms: O_13  and  C_10 
REMARK    3  A    between atoms: C_12  and  O_13 
ROOT
ATOM      1  C   UNL d   1     -41.903-122.169 -54.014  0.00  0.00     0.002 A 
ATOM      2  C   UNL d   1     -41.870-122.140 -53.190  0.00  0.00     0.025 A 
ATOM      3  C   UNL d   1     -41.547-122.807 -54.420  0.00  0.00     0.000 A 
ATOM      4  C   UNL d   1     -41.164-123.405 -53.997  0.00  0.00     0.002 A 
ATOM      5  C   UNL d   1     -41.491-122.733 -52.768  0.00  0.00     0.100 A 
ATOM      6  C   UNL d   1     -41.135-123.371 -53.175  0.00  0.00     0.025 A 
ATOM      7  C   UNL d   1     -42.280-121.580 -54.438  0.00  0.00     0.000 A 
ATOM      8  C   UNL d   1     -41.576-122.842 -55.241  0.00  0.00     0.000 A 
ATOM      9  C   UNL d   1     -42.315-121.606 -55.259  0.00  0.00     0.000 A 
ATOM     10  C   UNL d   1     -41.959-122.244 -55.665  0.00  0.00     0.000 A 
ENDROOT
BRANCH   5  11
ATOM     11  O   UNL d   1     -41.457-122.706 -51.941  0.00  0.00    -0.304 OA
BRANCH  11  12
ATOM     12  C   UNL d   1     -41.766-123.338 -51.500  0.00  0.00     0.142 C 
BRANCH  12  13
ATOM     13  C   UNL d   1     -41.866-123.265 -50.685  0.00  0.00     0.115 A 
ATOM     14  N   UNL d   1     -42.496-122.895 -50.298  0.00  0.00    -0.217 NA
ATOM     15  C   UNL d   1     -42.367-122.954 -49.484  0.00  0.00     0.215 A 
ATOM     16  S   UNL d   1     -41.653-123.362 -49.370  0.00  0.00    -0.045 SA
ATOM     17  N   UNL d   1     -42.862-122.658 -48.896  0.00  0.00    -0.120 N 
ATOM     18  C   UNL d   1     -41.342-123.556 -50.108  0.00  0.00     0.060 A 
ENDBRANCH  12  13
ENDBRANCH  11  12
ENDBRANCH   5  11
TORSDOF 3
ENDMDL
MODEL 3
REMARK VINA RESULT:      -4.9      0.768      1.117
REMARK  3 active torsions:
REMARK  status: ('A' for Active; 'I' for Inactive)
REMARK    1  A    between atoms: C_10  and  C_3 
REMARK    2  A    between atoms: O_13  and  C_10 
REMARK    3  A    between atoms: C_12  and  O_13 
ROOT
ATOM      1  C   UNL d   1     -42.398-123.184 -49.064  0.00  0.00     0.002 A 
ATOM      2  C   UNL d   1     -42.461-123.012 -49.868  0.00  0.00     0.025 A 
ATOM      3  C   UNL d   1     -41.724-123.586 -48.777  0.00  0.00     0.000 A 
ATOM      4  C   UNL d   1     -41.123-123.809 -49.299  0.00  0.00     0.002 A 
ATOM      5  C   UNL d   1     -41.864-123.232 -50.387  0.00  0.00     0.100 A 
ATOM      6  C   UNL d   1     -41.189-123.634 -50.100  0.00  0.00     0.025 A 
ATOM      7  C   UNL d   1     -42.990-122.966 -48.544  0.00  0.00     0.000 A 
ATOM      8  C   UNL d   1     -41.656-123.761 -47.976  0.00  0.00     0.000 A 
ATOM      9  C   UNL d   1     -42.932-123.137 -47.741  0.00  0.00     0.000 A 
ATOM     10  C   UNL d   1     -42.258-123.538 -47.455  0.00  0.00     0.000 A 
ENDROOT
BRANCH   5  11
ATOM     11  O   UNL d   1     -41.925-123.060 -51.195  0.00  0.00    -0.304 OA
BRANCH  11  12
ATOM     12  C   UNL d   1     -41.318-123.300 -51.709  0.00  0.00     0.142 C 
BRANCH  12  13
ATOM     13  C   UNL d   1     -41.389-123.175 -52.521  0.00  0.00     0.115 A 
ATOM     14  N   UNL d   1     -41.557-122.458 -52.895  0.00  0.00    -0.217 NA
ATOM     15  C   UNL d   1     -41.576-122.591 -53.710  0.00  0.00     0.215 A 
ATOM     16  S   UNL d   1     -41.417-123.397 -53.838  0.00  0.00    -0.045 SA
ATOM     17  N   UNL d   1     -41.724-122.024 -54.288  0.00  0.00    -0.120 N 
ATOM     18  C   UNL d   1     -41.302-123.760 -53.107  0.00  0.00     0.060 A 
ENDBRANCH  12  13
ENDBRANCH  11  12
ENDBRANCH   5  11
TORSDOF 3
ENDMDL
MODEL 4
REMARK VINA RESULT:      -4.8      2.823      4.696
REMARK  3 active torsions:
REMARK  status: ('A' for Active; 'I' for Inactive)
REMARK    1  A    between atoms: C_10  and  C_3 
REMARK    2  A    between atoms: O_13  and  C_10 
REMARK    3  A    between atoms: C_12  and  O_13 
ROOT
ATOM      1  C   UNL d   1     -41.372-123.282 -52.495  0.00  0.00     0.002 A 
ATOM      2  C   UNL d   1     -41.441-123.580 -51.729  0.00  0.00     0.025 A 
ATOM      3  C   UNL d   1     -41.317-122.456 -52.615  0.00  0.00     0.000 A 
ATOM      4  C   UNL d   1     -41.332-121.943 -51.967  0.00  0.00     0.002 A 
ATOM      5  C   UNL d   1     -41.457-123.072 -51.085  0.00  0.00     0.100 A 
ATOM      6  C   UNL d   1     -41.402-122.246 -51.205  0.00  0.00     0.025 A 
ATOM      7  C   UNL d   1     -41.356-123.786 -53.139  0.00  0.00     0.000 A 
ATOM      8  C   UNL d   1     -41.247-122.153 -53.376  0.00  0.00     0.000 A 
ATOM      9  C   UNL d   1     -41.287-123.492 -53.904  0.00  0.00     0.000 A 
ATOM     10  C   UNL d   1     -41.232-122.667 -54.024  0.00  0.00     0.000 A 
ENDROOT
BRANCH   5  11
ATOM     11  O   UNL d   1     -41.527-123.369 -50.316  0.00  0.00    -0.304 OA
BRANCH  11  12
ATOM     12  C   UNL d   1     -41.827-122.880 -49.715  0.00  0.00     0.142 C 
BRANCH  12  13
ATOM     13  C   UNL d   1     -41.976-123.187 -48.965  0.00  0.00     0.115 A 
ATOM     14  N   UNL d   1     -41.430-123.265 -48.349  0.00  0.00    -0.217 NA
ATOM     15  C   UNL d   1     -41.820-123.599 -47.702  0.00  0.00     0.215 A 
ATOM     16  S   UNL d   1     -42.611-123.727 -47.921  0.00  0.00    -0.045 SA
ATOM     17  N   UNL d   1     -41.481-123.772 -46.972  0.00  0.00    -0.120 N 
ATOM     18  C   UNL d   1     -42.711-123.475 -48.699  0.00  0.00     0.060 A 
ENDBRANCH  12  13
ENDBRANCH  11  12
ENDBRANCH   5  11
TORSDOF 3
ENDMDL
