MODEL 1
REMARK VINA RESULT:      -3.4      0.000      0.000
REMARK  4 active torsions:
REMARK  status: ('A' for Active; 'I' for Inactive)
REMARK    1  A    between atoms: N_3  and  C_1 
REMARK       I    between atoms: C_5  and  N_3 
REMARK    2  A    between atoms: C_15  and  C_5 
REMARK    3  A    between atoms: C_8  and  C_9 
REMARK    4  A    between atoms: O_16  and  C_8 
ROOT
ATOM      1  C   UNL d   1      33.095  20.535 -22.065  0.00  0.00     0.197 A 
ATOM      2  N   UNL d   1      33.241  19.792 -21.718  0.00  0.00    -0.221 NA
ATOM      3  S   UNL d   1      32.905  20.411 -22.856  0.00  0.00    -0.047 SA
ATOM      4  C   UNL d   1      32.930  19.599 -23.011  0.00  0.00     0.050 A 
ATOM      5  C   UNL d   1      33.139  19.213 -22.301  0.00  0.00     0.090 A 
ATOM      6  C   UNL d   1      32.862  18.346 -23.673  0.00  0.00     0.064 A 
ATOM      7  C   UNL d   1      32.792  19.160 -23.695  0.00  0.00     0.013 A 
ATOM      8  C   UNL d   1      33.207  18.395 -22.290  0.00  0.00     0.020 A 
ATOM      9  C   UNL d   1      33.072  17.960 -22.963  0.00  0.00     0.007 A 
ENDROOT
BRANCH   1  10
ATOM     10  N   UNL d   1      33.134  21.266 -21.679  0.00  0.00    -0.183 NA
ATOM     11  C   UNL d   1      32.523  21.501 -21.177  0.00  0.00     0.281 C 
ATOM     12  O   UNL d   1      31.873  21.008 -21.061  0.00  0.00    -0.265 OA
BRANCH  11  13
ATOM     13  C   UNL d   1      32.562  22.220 -20.798  0.00  0.00     0.058 A 
ATOM     14  C   UNL d   1      32.176  22.881 -21.123  0.00  0.00     0.005 A 
ATOM     15  C   UNL d   1      32.215  23.610 -20.738  0.00  0.00     0.000 A 
ATOM     16  C   UNL d   1      32.641  23.680 -20.027  0.00  0.00     0.000 A 
ATOM     17  C   UNL d   1      33.016  23.028 -19.716  0.00  0.00     0.000 A 
ATOM     18  C   UNL d   1      32.976  22.298 -20.102  0.00  0.00     0.005 A 
ENDBRANCH  11  13
ENDBRANCH   1  10
BRANCH   6  19
ATOM     19  C   UNL d   1      32.727  17.893 -24.350  0.00  0.00     0.296 C 
ATOM     20  O   UNL d   1      33.241  17.929 -24.984  0.00  0.00    -0.259 OA
BRANCH  19  21
ATOM     21  O   UNL d   1      32.060  17.399 -24.377  0.00  0.00    -0.296 OA
ATOM     22  C   UNL d   1      31.931  16.930 -25.038  0.00  0.00     0.185 C 
ENDBRANCH  19  21
ENDBRANCH   6  19
TORSDOF 4
ENDMDL
MODEL 2
REMARK VINA RESULT:      -2.6      1.191      5.252
REMARK  4 active torsions:
REMARK  status: ('A' for Active; 'I' for Inactive)
REMARK    1  A    between atoms: N_3  and  C_1 
REMARK       I    between atoms: C_5  and  N_3 
REMARK    2  A    between atoms: C_15  and  C_5 
REMARK    3  A    between atoms: C_8  and  C_9 
REMARK    4  A    between atoms: O_16  and  C_8 
ROOT
ATOM      1  C   UNL d   1      33.079  19.172 -22.890  0.00  0.00     0.197 A 
ATOM      2  N   UNL d   1      33.235  19.863 -23.328  0.00  0.00    -0.221 NA
ATOM      3  S   UNL d   1      32.905  19.397 -22.117  0.00  0.00    -0.047 SA
ATOM      4  C   UNL d   1      32.949  20.221 -22.064  0.00  0.00     0.050 A 
ATOM      5  C   UNL d   1      33.155  20.511 -22.819  0.00  0.00     0.090 A 
ATOM      6  C   UNL d   1      32.918  21.547 -21.562  0.00  0.00     0.064 A 
ATOM      7  C   UNL d   1      32.832  20.744 -21.438  0.00  0.00     0.013 A 
ATOM      8  C   UNL d   1      33.240  21.320 -22.933  0.00  0.00     0.020 A 
ATOM      9  C   UNL d   1      33.124  21.838 -22.317  0.00  0.00     0.007 A 
ENDROOT
BRANCH   1  10
ATOM     10  N   UNL d   1      33.097  18.398 -23.183  0.00  0.00    -0.183 NA
ATOM     11  C   UNL d   1      32.464  18.110 -23.627  0.00  0.00     0.281 C 
ATOM     12  O   UNL d   1      31.814  18.594 -23.779  0.00  0.00    -0.265 OA
BRANCH  11  13
ATOM     13  C   UNL d   1      32.482  17.350 -23.915  0.00  0.00     0.058 A 
ATOM     14  C   UNL d   1      32.788  17.202 -24.675  0.00  0.00     0.005 A 
ATOM     15  C   UNL d   1      32.806  16.430 -24.967  0.00  0.00     0.000 A 
ATOM     16  C   UNL d   1      32.518  15.805 -24.501  0.00  0.00     0.000 A 
ATOM     17  C   UNL d   1      32.221  15.959 -23.759  0.00  0.00     0.000 A 
ATOM     18  C   UNL d   1      32.203  16.731 -23.467  0.00  0.00     0.005 A 
ENDBRANCH  11  13
ENDBRANCH   1  10
BRANCH   6  19
ATOM     19  C   UNL d   1      32.804  22.083 -20.944  0.00  0.00     0.296 C 
ATOM     20  O   UNL d   1      33.188  21.983 -20.230  0.00  0.00    -0.259 OA
BRANCH  19  21
ATOM     21  O   UNL d   1      32.291  22.727 -21.059  0.00  0.00    -0.296 OA
ATOM     22  C   UNL d   1      32.113  23.219 -20.428  0.00  0.00     0.185 C 
ENDBRANCH  19  21
ENDBRANCH   6  19
TORSDOF 4
ENDMDL
MODEL 3
REMARK VINA RESULT:      -0.6      1.417      2.119
REMARK  4 active torsions:
REMARK  status: ('A' for Active; 'I' for Inactive)
REMARK    1  A    between atoms: N_3  and  C_1 
REMARK       I    between atoms: C_5  and  N_3 
REMARK    2  A    between atoms: C_15  and  C_5 
REMARK    3  A    between atoms: C_8  and  C_9 
REMARK    4  A    between atoms: O_16  and  C_8 
ROOT
ATOM      1  C   UNL d   1      33.179  21.351 -20.545  0.00  0.00     0.197 A 
ATOM      2  N   UNL d   1      33.045  21.733 -21.274  0.00  0.00    -0.221 NA
ATOM      3  S   UNL d   1      33.238  20.543 -20.692  0.00  0.00    -0.047 SA
ATOM      4  C   UNL d   1      33.142  20.412 -21.503  0.00  0.00     0.050 A 
ATOM      5  C   UNL d   1      33.022  21.154 -21.866  0.00  0.00     0.090 A 
ATOM      6  C   UNL d   1      33.036  19.776 -22.767  0.00  0.00     0.064 A 
ATOM      7  C   UNL d   1      33.148  19.725 -21.959  0.00  0.00     0.013 A 
ATOM      8  C   UNL d   1      32.910  21.194 -22.678  0.00  0.00     0.020 A 
ATOM      9  C   UNL d   1      32.915  20.519 -23.130  0.00  0.00     0.007 A 
ENDROOT
BRANCH   1  10
ATOM     10  N   UNL d   1      33.241  21.721 -19.809  0.00  0.00    -0.183 NA
ATOM     11  C   UNL d   1      32.630  22.203 -19.536  0.00  0.00     0.281 C 
ATOM     12  O   UNL d   1      31.956  22.315 -19.999  0.00  0.00    -0.265 OA
BRANCH  11  13
ATOM     13  C   UNL d   1      32.691  22.567 -18.811  0.00  0.00     0.058 A 
ATOM     14  C   UNL d   1      32.380  23.332 -18.705  0.00  0.00     0.005 A 
ATOM     15  C   UNL d   1      32.442  23.702 -17.969  0.00  0.00     0.000 A 
ATOM     16  C   UNL d   1      32.815  23.307 -17.339  0.00  0.00     0.000 A 
ATOM     17  C   UNL d   1      33.116  22.560 -17.452  0.00  0.00     0.000 A 
ATOM     18  C   UNL d   1      33.054  22.190 -18.188  0.00  0.00     0.005 A 
ENDBRANCH  11  13
ENDBRANCH   1  10
BRANCH   6  19
ATOM     19  C   UNL d   1      33.039  19.097 -23.236  0.00  0.00     0.296 C 
ATOM     20  O   UNL d   1      32.855  19.140 -24.031  0.00  0.00    -0.259 OA
BRANCH  19  21
ATOM     21  O   UNL d   1      33.232  18.368 -22.888  0.00  0.00    -0.296 OA
ATOM     22  C   UNL d   1      32.827  17.692 -23.115  0.00  0.00     0.185 C 
ENDBRANCH  19  21
ENDBRANCH   6  19
TORSDOF 4
ENDMDL
