MODEL 1
REMARK VINA RESULT:      18.9      0.000      0.000
REMARK  2 active torsions:
REMARK  status: ('A' for Active; 'I' for Inactive)
REMARK       I    between atoms: C_2  and  N_1 
REMARK       I    between atoms: N_8  and  C_2 
REMARK    1  A    between atoms: C_15  and  N_8 
REMARK    2  A    between atoms: C_9  and  C_15 
ROOT
ATOM      1  N   UNL d   1      46.523 -18.581  42.850  0.00  0.00    -0.258 N 
ATOM      2  C   UNL d   1      46.522 -17.757  42.919  0.00  0.00     0.354 C 
ATOM      3  S   UNL d   1      46.524 -20.234  42.749  0.00  0.00    -0.084 SA
ATOM      4  C   UNL d   1      46.482 -19.045  43.541  0.00  0.00     0.074 A 
ATOM      5  C   UNL d   1      46.564 -18.932  42.115  0.00  0.00     0.074 A 
ATOM      6  C   UNL d   1      46.483 -19.877  43.491  0.00  0.00     0.046 A 
ATOM      7  C   UNL d   1      46.565 -19.764  42.064  0.00  0.00     0.046 A 
ATOM      8  N   UNL d   1      46.476 -17.370  43.743  0.00  0.00    -0.189 NA
ATOM      9  O   UNL d   1      46.566 -17.257  42.165  0.00  0.00    -0.244 OA
ATOM     10  C   UNL d   1      46.604 -18.476  41.438  0.00  0.00     0.018 A 
ATOM     11  C   UNL d   1      46.441 -18.689  44.275  0.00  0.00     0.018 A 
ATOM     12  C   UNL d   1      46.443 -20.328  44.168  0.00  0.00     0.008 A 
ATOM     13  C   UNL d   1      46.606 -20.123  41.327  0.00  0.00     0.008 A 
ATOM     14  C   UNL d   1      46.401 -19.146  44.955  0.00  0.00     0.002 A 
ATOM     15  C   UNL d   1      46.645 -18.835  40.697  0.00  0.00     0.002 A 
ATOM     16  C   UNL d   1      46.646 -19.666  40.639  0.00  0.00     0.001 A 
ATOM     17  C   UNL d   1      46.402 -19.981  44.903  0.00  0.00     0.001 A 
ENDROOT
BRANCH   8  18
ATOM     18  C   UNL d   1      46.474 -16.548  43.806  0.00  0.00     0.128 C 
BRANCH  18  19
ATOM     19  C   UNL d   1      45.894 -16.167  44.257  0.00  0.00     0.119 A 
ATOM     20  O   UNL d   1      45.189 -16.502  44.529  0.00  0.00    -0.304 OA
ATOM     21  C   UNL d   1      44.777 -15.926  44.953  0.00  0.00     0.123 A 
ATOM     22  C   UNL d   1      45.225 -15.234  44.944  0.00  0.00     0.029 A 
ATOM     23  C   UNL d   1      45.913 -15.383  44.515  0.00  0.00     0.028 A 
ENDBRANCH  18  19
ENDBRANCH   8  18
TORSDOF 2
ENDMDL
