MODEL 1
REMARK VINA RESULT:      68.3      0.000      0.000
REMARK  9 active torsions:
REMARK  status: ('A' for Active; 'I' for Inactive)
REMARK    1  A    between atoms: C_21  and  N_1 
REMARK    2  A    between atoms: S_17  and  C_3 
REMARK    3  A    between atoms: C_16  and  C_32 
REMARK       I    between atoms: N_19  and  C_16 
REMARK    4  A    between atoms: C_29  and  S_17 
REMARK    5  A    between atoms: C_22  and  N_19 
REMARK    6  A    between atoms: C_31  and  C_21 
REMARK    7  A    between atoms: C_23  and  C_22 
REMARK    8  A    between atoms: O_30  and  C_24 
REMARK    9  A    between atoms: C_32  and  C_31 
ROOT
ATOM      1  N   UNL d   1      42.343 -12.104  38.589  0.00  0.00    -0.195 NA
ATOM      2  C   UNL d   1      42.933 -12.254  39.142  0.00  0.00     0.086 C 
ATOM      3  C   UNL d   1      43.534 -12.414  39.687  0.00  0.00     0.170 C 
ENDROOT
BRANCH   3   4
ATOM      4  S   UNL d   1      43.503 -12.080  40.440  0.00  0.00    -0.060 SA
BRANCH   4   5
ATOM      5  C   UNL d   1      44.108 -12.258  41.005  0.00  0.00     0.178 A 
ATOM      6  N   UNL d   1      44.876 -12.330  40.751  0.00  0.00    -0.253 N 
ATOM      7  C   UNL d   1      45.476 -12.504  41.295  0.00  0.00     0.268 A 
ATOM      8  C   UNL d   1      45.299 -12.605  42.103  0.00  0.00     0.076 A 
ATOM      9  O   UNL d   1      46.254 -12.577  41.037  0.00  0.00    -0.267 OA
ATOM     10  C   UNL d   1      45.898 -12.778  42.645  0.00  0.00     0.033 A 
ATOM     11  C   UNL d   1      44.531 -12.532  42.357  0.00  0.00     0.090 A 
ATOM     12  C   UNL d   1      45.724 -12.881  43.463  0.00  0.00     0.119 A 
ATOM     13  O   UNL d   1      46.196 -13.057  44.142  0.00  0.00    -0.300 OA
ATOM     14  C   UNL d   1      44.955 -12.808  43.714  0.00  0.00     0.121 A 
ATOM     15  C   UNL d   1      45.717 -13.093  44.817  0.00  0.00     0.304 A 
ATOM     16  O   UNL d   1      44.955 -12.939  44.545  0.00  0.00    -0.299 OA
ATOM     17  C   UNL d   1      44.354 -12.634  43.165  0.00  0.00     0.046 A 
ATOM     18  N   UNL d   1      43.930 -12.358  41.808  0.00  0.00    -0.222 NA
BRANCH   6  19
ATOM     19  C   UNL d   1      45.049 -12.226  39.927  0.00  0.00     0.085 C 
BRANCH  19  20
ATOM     20  C   UNL d   1      45.471 -12.810  39.530  0.00  0.00     0.024 C 
BRANCH  20  21
ATOM     21  C   UNL d   1      45.279 -12.977  38.743  0.00  0.00     0.064 C 
BRANCH  21  22
ATOM     22  C   UNL d   1      45.841 -13.324  38.250  0.00  0.00     0.279 C 
ATOM     23  N   UNL d   1      45.598 -13.816  37.636  0.00  0.00    -0.206 NA
ATOM     24  O   UNL d   1      46.646 -13.179  38.373  0.00  0.00    -0.265 OA
BRANCH  23  25
ATOM     25  C   UNL d   1      44.799 -13.958  37.517  0.00  0.00     0.102 C 
BRANCH  25  26
ATOM     26  C   UNL d   1      44.556 -14.700  37.226  0.00  0.00     0.019 A 
ATOM     27  C   UNL d   1      43.772 -14.909  37.244  0.00  0.00     0.004 A 
ATOM     28  C   UNL d   1      43.540 -15.641  36.957  0.00  0.00     0.024 A 
ATOM     29  C   UNL d   1      44.093 -16.167  36.650  0.00  0.00     0.094 A 
ATOM     30  C   UNL d   1      44.887 -15.951  36.634  0.00  0.00     0.024 A 
ATOM     31  C   UNL d   1      45.130 -15.209  36.925  0.00  0.00     0.004 A 
BRANCH  29  32
ATOM     32  O   UNL d   1      43.860 -16.902  36.361  0.00  0.00    -0.328 OA
ATOM     33  C   UNL d   1      43.056 -17.078  36.336  0.00  0.00     0.181 C 
ENDBRANCH  29  32
ENDBRANCH  25  26
ENDBRANCH  23  25
ENDBRANCH  21  22
ENDBRANCH  20  21
ENDBRANCH  19  20
ENDBRANCH   6  19
ENDBRANCH   4   5
ENDBRANCH   3   4
TORSDOF 9
ENDMDL
MODEL 2
REMARK VINA RESULT:      70.6      1.668      6.150
REMARK  9 active torsions:
REMARK  status: ('A' for Active; 'I' for Inactive)
REMARK    1  A    between atoms: C_21  and  N_1 
REMARK    2  A    between atoms: S_17  and  C_3 
REMARK    3  A    between atoms: C_16  and  C_32 
REMARK       I    between atoms: N_19  and  C_16 
REMARK    4  A    between atoms: C_29  and  S_17 
REMARK    5  A    between atoms: C_22  and  N_19 
REMARK    6  A    between atoms: C_31  and  C_21 
REMARK    7  A    between atoms: C_23  and  C_22 
REMARK    8  A    between atoms: O_30  and  C_24 
REMARK    9  A    between atoms: C_32  and  C_31 
ROOT
ATOM      1  N   UNL d   1      46.205 -17.115  36.802  0.00  0.00    -0.195 NA
ATOM      2  C   UNL d   1      46.215 -16.480  37.326  0.00  0.00     0.086 C 
ATOM      3  C   UNL d   1      46.233 -15.852  37.864  0.00  0.00     0.170 C 
ENDROOT
BRANCH   3   4
ATOM      4  S   UNL d   1      45.956 -15.110  37.635  0.00  0.00    -0.060 SA
BRANCH   4   5
ATOM      5  C   UNL d   1      45.133 -15.002  37.462  0.00  0.00     0.178 A 
ATOM      6  N   UNL d   1      44.812 -14.259  37.522  0.00  0.00    -0.253 N 
ATOM      7  C   UNL d   1      44.009 -14.142  37.355  0.00  0.00     0.268 A 
ATOM      8  C   UNL d   1      43.527 -14.781  37.125  0.00  0.00     0.076 A 
ATOM      9  O   UNL d   1      43.684 -13.389  37.416  0.00  0.00    -0.267 OA
ATOM     10  C   UNL d   1      42.727 -14.663  36.958  0.00  0.00     0.033 A 
ATOM     11  C   UNL d   1      43.848 -15.525  37.064  0.00  0.00     0.090 A 
ATOM     12  C   UNL d   1      42.234 -15.307  36.724  0.00  0.00     0.119 A 
ATOM     13  O   UNL d   1      41.416 -15.372  36.520  0.00  0.00    -0.300 OA
ATOM     14  C   UNL d   1      42.559 -16.049  36.665  0.00  0.00     0.121 A 
ATOM     15  C   UNL d   1      41.233 -16.158  36.333  0.00  0.00     0.304 A 
ATOM     16  O   UNL d   1      41.942 -16.568  36.425  0.00  0.00    -0.299 OA
ATOM     17  C   UNL d   1      43.366 -16.163  36.834  0.00  0.00     0.046 A 
ATOM     18  N   UNL d   1      44.655 -15.639  37.233  0.00  0.00    -0.222 NA
BRANCH   6  19
ATOM     19  C   UNL d   1      45.309 -13.613  37.757  0.00  0.00     0.085 C 
BRANCH  19  20
ATOM     20  C   UNL d   1      44.968 -12.955  38.114  0.00  0.00     0.024 C 
BRANCH  20  21
ATOM     21  C   UNL d   1      45.137 -12.798  38.908  0.00  0.00     0.064 C 
BRANCH  21  22
ATOM     22  C   UNL d   1      44.575 -12.421  39.379  0.00  0.00     0.279 C 
ATOM     23  N   UNL d   1      44.708 -12.339  40.188  0.00  0.00    -0.206 NA
ATOM     24  O   UNL d   1      43.880 -12.128  39.039  0.00  0.00    -0.265 OA
BRANCH  23  25
ATOM     25  C   UNL d   1      45.398 -12.631  40.521  0.00  0.00     0.102 C 
BRANCH  25  26
ATOM     26  C   UNL d   1      45.482 -12.631  41.350  0.00  0.00     0.019 A 
ATOM     27  C   UNL d   1      46.217 -12.696  41.686  0.00  0.00     0.004 A 
ATOM     28  C   UNL d   1      46.292 -12.696  42.502  0.00  0.00     0.024 A 
ATOM     29  C   UNL d   1      45.631 -12.629  42.986  0.00  0.00     0.094 A 
ATOM     30  C   UNL d   1      44.886 -12.563  42.641  0.00  0.00     0.024 A 
ATOM     31  C   UNL d   1      44.803 -12.564  41.812  0.00  0.00     0.004 A 
BRANCH  29  32
ATOM     32  O   UNL d   1      45.705 -12.628  43.805  0.00  0.00    -0.328 OA
ATOM     33  C   UNL d   1      45.177 -12.177  44.248  0.00  0.00     0.181 C 
ENDBRANCH  29  32
ENDBRANCH  25  26
ENDBRANCH  23  25
ENDBRANCH  21  22
ENDBRANCH  20  21
ENDBRANCH  19  20
ENDBRANCH   6  19
ENDBRANCH   4   5
ENDBRANCH   3   4
TORSDOF 9
ENDMDL
