MODEL 1
REMARK VINA RESULT:      -8.0      0.000      0.000
REMARK  4 active torsions:
REMARK  status: ('A' for Active; 'I' for Inactive)
REMARK    1  A    between atoms: N_2  and  S_1 
REMARK    2  A    between atoms: C_3  and  S_1 
REMARK    3  A    between atoms: C_5  and  N_4 
REMARK    4  A    between atoms: O_17  and  C_14 
ROOT
ATOM      1  N   UNL d   1     -49.373  14.742  22.617  0.00  0.00    -0.226 N 
ATOM      2  N   UNL d   1     -47.852  14.138  22.599  0.00  0.00    -0.299 N 
ATOM      3  C   UNL d   1     -49.022  14.533  21.897  0.00  0.00     0.111 A 
ATOM      4  C   UNL d   1     -48.963  14.648  23.324  0.00  0.00     0.111 A 
ATOM      5  C   UNL d   1     -48.255  14.229  21.892  0.00  0.00     0.100 A 
ATOM      6  C   UNL d   1     -48.196  14.343  23.311  0.00  0.00     0.100 A 
ENDROOT
BRANCH   1   7
ATOM      7  S   UNL d   1     -50.140  15.047  22.626  0.00  0.00     0.272 S 
ATOM      8  O   UNL d   1     -50.898  15.352  22.635  0.00  0.00    -0.200 OA
ATOM      9  O   UNL d   1     -49.833  15.805  22.737  0.00  0.00    -0.200 OA
BRANCH   7  10
ATOM     10  C   UNL d   1     -50.439  14.286  22.515  0.00  0.00     0.106 A 
ATOM     11  C   UNL d   1     -50.599  13.800  23.165  0.00  0.00     0.037 A 
ATOM     12  C   UNL d   1     -50.898  13.041  23.046  0.00  0.00     0.095 A 
ATOM     13  C   UNL d   1     -51.038  12.767  22.278  0.00  0.00     0.024 A 
ATOM     14  C   UNL d   1     -50.877  13.253  21.632  0.00  0.00     0.003 A 
ATOM     15  C   UNL d   1     -50.578  14.013  21.751  0.00  0.00     0.013 A 
BRANCH  12  16
ATOM     16  O   UNL d   1     -51.059  12.555  23.691  0.00  0.00    -0.328 OA
ATOM     17  C   UNL d   1     -50.792  11.774  23.697  0.00  0.00     0.181 C 
ENDBRANCH  12  16
ENDBRANCH   7  10
ENDBRANCH   1   7
BRANCH   2  18
ATOM     18  C   UNL d   1     -47.085  13.833  22.594  0.00  0.00     0.092 A 
ATOM     19  C   UNL d   1     -46.969  13.021  22.604  0.00  0.00     0.156 A 
ATOM     20  F   UNL d   1     -47.650  12.547  22.618  0.00  0.00    -0.203 F 
ATOM     21  C   UNL d   1     -46.206  12.704  22.599  0.00  0.00     0.031 A 
ATOM     22  C   UNL d   1     -45.553  13.221  22.585  0.00  0.00     0.002 A 
ATOM     23  C   UNL d   1     -45.672  14.039  22.575  0.00  0.00     0.002 A 
ATOM     24  C   UNL d   1     -46.439  14.344  22.580  0.00  0.00     0.020 A 
ENDBRANCH   2  18
TORSDOF 4
ENDMDL
MODEL 2
REMARK VINA RESULT:      -7.5      2.332      4.485
REMARK  4 active torsions:
REMARK  status: ('A' for Active; 'I' for Inactive)
REMARK    1  A    between atoms: N_2  and  S_1 
REMARK    2  A    between atoms: C_3  and  S_1 
REMARK    3  A    between atoms: C_5  and  N_4 
REMARK    4  A    between atoms: O_17  and  C_14 
ROOT
ATOM      1  N   UNL d   1     -47.516  12.161  23.090  0.00  0.00    -0.226 N 
ATOM      2  N   UNL d   1     -48.929  12.725  22.485  0.00  0.00    -0.299 N 
ATOM      3  C   UNL d   1     -47.777  11.904  22.347  0.00  0.00     0.111 A 
ATOM      4  C   UNL d   1     -47.962  12.697  23.527  0.00  0.00     0.111 A 
ATOM      5  C   UNL d   1     -48.490  12.191  22.046  0.00  0.00     0.100 A 
ATOM      6  C   UNL d   1     -48.673  12.979  23.219  0.00  0.00     0.100 A 
ENDROOT
BRANCH   1   7
ATOM      7  S   UNL d   1     -46.804  11.876  23.395  0.00  0.00     0.272 S 
ATOM      8  O   UNL d   1     -46.101  11.591  23.698  0.00  0.00    -0.200 OA
ATOM      9  O   UNL d   1     -47.200  11.217  23.694  0.00  0.00    -0.200 OA
BRANCH   7  10
ATOM     10  C   UNL d   1     -46.415  12.538  23.093  0.00  0.00     0.106 A 
ATOM     11  C   UNL d   1     -45.943  12.474  22.417  0.00  0.00     0.037 A 
ATOM     12  C   UNL d   1     -45.557  13.140  22.120  0.00  0.00     0.095 A 
ATOM     13  C   UNL d   1     -45.643  13.871  22.500  0.00  0.00     0.024 A 
ATOM     14  C   UNL d   1     -46.114  13.932  23.173  0.00  0.00     0.003 A 
ATOM     15  C   UNL d   1     -46.500  13.265  23.470  0.00  0.00     0.013 A 
BRANCH  12  16
ATOM     16  O   UNL d   1     -45.086  13.080  21.448  0.00  0.00    -0.328 OA
ATOM     17  C   UNL d   1     -44.269  13.175  21.505  0.00  0.00     0.181 C 
ENDBRANCH  12  16
ENDBRANCH   7  10
ENDBRANCH   1   7
BRANCH   2  18
ATOM     18  C   UNL d   1     -49.641  13.011  22.184  0.00  0.00     0.092 A 
ATOM     19  C   UNL d   1     -49.641  13.664  21.687  0.00  0.00     0.156 A 
ATOM     20  F   UNL d   1     -48.902  14.001  21.515  0.00  0.00    -0.203 F 
ATOM     21  C   UNL d   1     -50.348  13.960  21.379  0.00  0.00     0.031 A 
ATOM     22  C   UNL d   1     -51.064  13.588  21.580  0.00  0.00     0.002 A 
ATOM     23  C   UNL d   1     -51.064  12.930  22.082  0.00  0.00     0.002 A 
ATOM     24  C   UNL d   1     -50.351  12.643  22.383  0.00  0.00     0.020 A 
ENDBRANCH   2  18
TORSDOF 4
ENDMDL
MODEL 3
REMARK VINA RESULT:      -7.4      1.149      1.584
REMARK  4 active torsions:
REMARK  status: ('A' for Active; 'I' for Inactive)
REMARK    1  A    between atoms: N_2  and  S_1 
REMARK    2  A    between atoms: C_3  and  S_1 
REMARK    3  A    between atoms: C_5  and  N_4 
REMARK    4  A    between atoms: O_17  and  C_14 
ROOT
ATOM      1  N   UNL d   1     -48.296  13.990  22.528  0.00  0.00    -0.226 N 
ATOM      2  N   UNL d   1     -47.233  12.822  22.959  0.00  0.00    -0.299 N 
ATOM      3  C   UNL d   1     -48.064  13.916  23.320  0.00  0.00     0.111 A 
ATOM      4  C   UNL d   1     -47.996  13.480  21.956  0.00  0.00     0.111 A 
ATOM      5  C   UNL d   1     -47.528  13.326  23.532  0.00  0.00     0.100 A 
ATOM      6  C   UNL d   1     -47.460  12.893  22.177  0.00  0.00     0.100 A 
ENDROOT
BRANCH   1   7
ATOM      7  S   UNL d   1     -48.832  14.578  22.311  0.00  0.00     0.272 S 
ATOM      8  O   UNL d   1     -49.360  15.164  22.097  0.00  0.00    -0.200 OA
ATOM      9  O   UNL d   1     -48.228  15.139  22.354  0.00  0.00    -0.200 OA
BRANCH   7  10
ATOM     10  C   UNL d   1     -49.431  14.012  22.270  0.00  0.00     0.106 A 
ATOM     11  C   UNL d   1     -49.849  13.794  22.949  0.00  0.00     0.037 A 
ATOM     12  C   UNL d   1     -50.446  13.227  22.900  0.00  0.00     0.095 A 
ATOM     13  C   UNL d   1     -50.626  12.879  22.172  0.00  0.00     0.024 A 
ATOM     14  C   UNL d   1     -50.208  13.098  21.496  0.00  0.00     0.003 A 
ATOM     15  C   UNL d   1     -49.611  13.665  21.545  0.00  0.00     0.013 A 
BRANCH  12  16
ATOM     16  O   UNL d   1     -50.863  13.007  23.575  0.00  0.00    -0.328 OA
ATOM     17  C   UNL d   1     -51.064  12.217  23.698  0.00  0.00     0.181 C 
ENDBRANCH  12  16
ENDBRANCH   7  10
ENDBRANCH   1   7
BRANCH   2  18
ATOM     18  C   UNL d   1     -46.697  12.233  23.172  0.00  0.00     0.092 A 
ATOM     19  C   UNL d   1     -46.972  11.518  23.466  0.00  0.00     0.156 A 
ATOM     20  F   UNL d   1     -47.795  11.434  23.531  0.00  0.00    -0.203 F 
ATOM     21  C   UNL d   1     -46.445  10.919  23.682  0.00  0.00     0.031 A 
ATOM     22  C   UNL d   1     -45.627  11.051  23.598  0.00  0.00     0.002 A 
ATOM     23  C   UNL d   1     -45.351  11.771  23.302  0.00  0.00     0.002 A 
ATOM     24  C   UNL d   1     -45.887  12.361  23.089  0.00  0.00     0.020 A 
ENDBRANCH   2  18
TORSDOF 4
ENDMDL
MODEL 4
REMARK VINA RESULT:      -6.6      9.350     10.697
REMARK  4 active torsions:
REMARK  status: ('A' for Active; 'I' for Inactive)
REMARK    1  A    between atoms: N_2  and  S_1 
REMARK    2  A    between atoms: C_3  and  S_1 
REMARK    3  A    between atoms: C_5  and  N_4 
REMARK    4  A    between atoms: O_17  and  C_14 
ROOT
ATOM      1  N   UNL d   1     -40.566  15.209  17.891  0.00  0.00    -0.226 N 
ATOM      2  N   UNL d   1     -40.058  15.215  19.447  0.00  0.00    -0.299 N 
ATOM      3  C   UNL d   1     -40.497  14.494  18.305  0.00  0.00     0.111 A 
ATOM      4  C   UNL d   1     -40.381  15.922  18.257  0.00  0.00     0.111 A 
ATOM      5  C   UNL d   1     -40.241  14.502  19.089  0.00  0.00     0.100 A 
ATOM      6  C   UNL d   1     -40.126  15.922  19.042  0.00  0.00     0.100 A 
ENDROOT
BRANCH   1   7
ATOM      7  S   UNL d   1     -40.822  15.205  17.107  0.00  0.00     0.272 S 
ATOM      8  O   UNL d   1     -41.079  15.201  16.331  0.00  0.00    -0.200 OA
ATOM      9  O   UNL d   1     -41.605  15.213  17.366  0.00  0.00    -0.200 OA
BRANCH   7  10
ATOM     10  C   UNL d   1     -40.036  15.197  16.855  0.00  0.00     0.106 A 
ATOM     11  C   UNL d   1     -39.654  14.480  16.700  0.00  0.00     0.037 A 
ATOM     12  C   UNL d   1     -38.868  14.480  16.448  0.00  0.00     0.095 A 
ATOM     13  C   UNL d   1     -38.465  15.197  16.351  0.00  0.00     0.024 A 
ATOM     14  C   UNL d   1     -38.849  15.909  16.507  0.00  0.00     0.003 A 
ATOM     15  C   UNL d   1     -39.635  15.909  16.758  0.00  0.00     0.013 A 
BRANCH  12  16
ATOM     16  O   UNL d   1     -38.484  13.769  16.293  0.00  0.00    -0.328 OA
ATOM     17  C   UNL d   1     -37.977  13.705  15.645  0.00  0.00     0.181 C 
ENDBRANCH  12  16
ENDBRANCH   7  10
ENDBRANCH   1   7
BRANCH   2  18
ATOM     18  C   UNL d   1     -39.802  15.223  20.232  0.00  0.00     0.092 A 
ATOM     19  C   UNL d   1     -39.009  15.098  20.403  0.00  0.00     0.156 A 
ATOM     20  F   UNL d   1     -38.504  14.968  19.757  0.00  0.00    -0.203 F 
ATOM     21  C   UNL d   1     -38.741  15.103  21.184  0.00  0.00     0.031 A 
ATOM     22  C   UNL d   1     -39.286  15.238  21.799  0.00  0.00     0.002 A 
ATOM     23  C   UNL d   1     -40.085  15.364  21.625  0.00  0.00     0.002 A 
ATOM     24  C   UNL d   1     -40.341  15.356  20.841  0.00  0.00     0.020 A 
ENDBRANCH   2  18
TORSDOF 4
ENDMDL
MODEL 5
REMARK VINA RESULT:      -6.2      9.650     10.672
REMARK  4 active torsions:
REMARK  status: ('A' for Active; 'I' for Inactive)
REMARK    1  A    between atoms: N_2  and  S_1 
REMARK    2  A    between atoms: C_3  and  S_1 
REMARK    3  A    between atoms: C_5  and  N_4 
REMARK    4  A    between atoms: O_17  and  C_14 
ROOT
ATOM      1  N   UNL d   1     -39.016  14.142  18.425  0.00  0.00    -0.226 N 
ATOM      2  N   UNL d   1     -39.252  14.722  19.937  0.00  0.00    -0.299 N 
ATOM      3  C   UNL d   1     -39.623  13.832  18.894  0.00  0.00     0.111 A 
ATOM      4  C   UNL d   1     -38.530  14.741  18.713  0.00  0.00     0.111 A 
ATOM      5  C   UNL d   1     -39.739  14.127  19.656  0.00  0.00     0.100 A 
ATOM      6  C   UNL d   1     -38.652  15.030  19.476  0.00  0.00     0.100 A 
ENDROOT
BRANCH   1   7
ATOM      7  S   UNL d   1     -38.897  13.850  17.662  0.00  0.00     0.272 S 
ATOM      8  O   UNL d   1     -38.777  13.558  16.909  0.00  0.00    -0.200 OA
ATOM      9  O   UNL d   1     -38.518  13.189  17.979  0.00  0.00    -0.200 OA
BRANCH   7  10
ATOM     10  C   UNL d   1     -39.277  14.514  17.353  0.00  0.00     0.106 A 
ATOM     11  C   UNL d   1     -40.096  14.514  17.242  0.00  0.00     0.037 A 
ATOM     12  C   UNL d   1     -40.469  15.182  16.932  0.00  0.00     0.095 A 
ATOM     13  C   UNL d   1     -40.022  15.849  16.733  0.00  0.00     0.024 A 
ATOM     14  C   UNL d   1     -39.205  15.847  16.845  0.00  0.00     0.003 A 
ATOM     15  C   UNL d   1     -38.833  15.179  17.155  0.00  0.00     0.013 A 
BRANCH  12  16
ATOM     16  O   UNL d   1     -41.284  15.185  16.820  0.00  0.00    -0.328 OA
ATOM     17  C   UNL d   1     -41.692  15.901  16.772  0.00  0.00     0.181 C 
ENDBRANCH  12  16
ENDBRANCH   7  10
ENDBRANCH   1   7
BRANCH   2  18
ATOM     18  C   UNL d   1     -39.368  15.017  20.699  0.00  0.00     0.092 A 
ATOM     19  C   UNL d   1     -39.912  15.618  20.825  0.00  0.00     0.156 A 
ATOM     20  F   UNL d   1     -40.320  15.898  20.159  0.00  0.00    -0.203 F 
ATOM     21  C   UNL d   1     -40.036  15.922  21.584  0.00  0.00     0.031 A 
ATOM     22  C   UNL d   1     -39.603  15.609  22.221  0.00  0.00     0.002 A 
ATOM     23  C   UNL d   1     -39.055  15.002  22.093  0.00  0.00     0.002 A 
ATOM     24  C   UNL d   1     -38.940  14.707  21.331  0.00  0.00     0.020 A 
ENDBRANCH   2  18
TORSDOF 4
ENDMDL
MODEL 6
REMARK VINA RESULT:      -6.2      9.066     10.146
REMARK  4 active torsions:
REMARK  status: ('A' for Active; 'I' for Inactive)
REMARK    1  A    between atoms: N_2  and  S_1 
REMARK    2  A    between atoms: C_3  and  S_1 
REMARK    3  A    between atoms: C_5  and  N_4 
REMARK    4  A    between atoms: O_17  and  C_14 
ROOT
ATOM      1  N   UNL d   1     -40.423  15.399  19.990  0.00  0.00    -0.226 N 
ATOM      2  N   UNL d   1     -39.767  14.880  18.582  0.00  0.00    -0.299 N 
ATOM      3  C   UNL d   1     -40.645  14.664  19.678  0.00  0.00     0.111 A 
ATOM      4  C   UNL d   1     -39.875  15.870  19.597  0.00  0.00     0.111 A 
ATOM      5  C   UNL d   1     -40.312  14.406  18.968  0.00  0.00     0.100 A 
ATOM      6  C   UNL d   1     -39.547  15.605  18.887  0.00  0.00     0.100 A 
ENDROOT
BRANCH   1   7
ATOM      7  S   UNL d   1     -40.754  15.660  20.699  0.00  0.00     0.272 S 
ATOM      8  O   UNL d   1     -41.085  15.919  21.399  0.00  0.00    -0.200 OA
ATOM      9  O   UNL d   1     -41.425  15.910  20.289  0.00  0.00    -0.200 OA
BRANCH   7  10
ATOM     10  C   UNL d   1     -40.080  15.406  21.102  0.00  0.00     0.106 A 
ATOM     11  C   UNL d   1     -40.047  14.647  21.428  0.00  0.00     0.037 A 
ATOM     12  C   UNL d   1     -39.370  14.401  21.829  0.00  0.00     0.095 A 
ATOM     13  C   UNL d   1     -38.725  14.914  21.905  0.00  0.00     0.024 A 
ATOM     14  C   UNL d   1     -38.760  15.670  21.579  0.00  0.00     0.003 A 
ATOM     15  C   UNL d   1     -39.438  15.916  21.177  0.00  0.00     0.013 A 
BRANCH  12  16
ATOM     16  O   UNL d   1     -39.335  13.646  22.155  0.00  0.00    -0.328 OA
ATOM     17  C   UNL d   1     -38.604  13.297  22.313  0.00  0.00     0.181 C 
ENDBRANCH  12  16
ENDBRANCH   7  10
ENDBRANCH   1   7
BRANCH   2  18
ATOM     18  C   UNL d   1     -39.434  14.622  17.873  0.00  0.00     0.092 A 
ATOM     19  C   UNL d   1     -38.778  14.130  17.885  0.00  0.00     0.156 A 
ATOM     20  F   UNL d   1     -38.484  13.919  18.632  0.00  0.00    -0.203 F 
ATOM     21  C   UNL d   1     -38.436  13.866  17.181  0.00  0.00     0.031 A 
ATOM     22  C   UNL d   1     -38.766  14.105  16.456  0.00  0.00     0.002 A 
ATOM     23  C   UNL d   1     -39.428  14.601  16.444  0.00  0.00     0.002 A 
ATOM     24  C   UNL d   1     -39.761  14.858  17.154  0.00  0.00     0.020 A 
ENDBRANCH   2  18
TORSDOF 4
ENDMDL
MODEL 7
REMARK VINA RESULT:      -5.4      8.207     10.164
REMARK  4 active torsions:
REMARK  status: ('A' for Active; 'I' for Inactive)
REMARK    1  A    between atoms: N_2  and  S_1 
REMARK    2  A    between atoms: C_3  and  S_1 
REMARK    3  A    between atoms: C_5  and  N_4 
REMARK    4  A    between atoms: O_17  and  C_14 
ROOT
ATOM      1  N   UNL d   1     -39.041  15.288  20.229  0.00  0.00    -0.226 N 
ATOM      2  N   UNL d   1     -38.888  15.062  18.615  0.00  0.00    -0.299 N 
ATOM      3  C   UNL d   1     -38.843  14.539  19.935  0.00  0.00     0.111 A 
ATOM      4  C   UNL d   1     -39.161  15.919  19.715  0.00  0.00     0.111 A 
ATOM      5  C   UNL d   1     -38.767  14.430  19.120  0.00  0.00     0.100 A 
ATOM      6  C   UNL d   1     -39.083  15.802  18.902  0.00  0.00     0.100 A 
ENDROOT
BRANCH   1   7
ATOM      7  S   UNL d   1     -39.118  15.401  21.042  0.00  0.00     0.272 S 
ATOM      8  O   UNL d   1     -39.190  15.514  21.848  0.00  0.00    -0.200 OA
ATOM      9  O   UNL d   1     -38.303  15.521  21.099  0.00  0.00    -0.200 OA
BRANCH   7  10
ATOM     10  C   UNL d   1     -39.931  15.280  20.978  0.00  0.00     0.106 A 
ATOM     11  C   UNL d   1     -40.250  14.522  21.065  0.00  0.00     0.037 A 
ATOM     12  C   UNL d   1     -41.065  14.409  20.999  0.00  0.00     0.095 A 
ATOM     13  C   UNL d   1     -41.560  15.054  20.847  0.00  0.00     0.024 A 
ATOM     14  C   UNL d   1     -41.240  15.809  20.762  0.00  0.00     0.003 A 
ATOM     15  C   UNL d   1     -40.425  15.922  20.827  0.00  0.00     0.013 A 
BRANCH  12  16
ATOM     16  O   UNL d   1     -41.385  13.656  21.085  0.00  0.00    -0.328 OA
ATOM     17  C   UNL d   1     -42.203  13.549  21.058  0.00  0.00     0.181 C 
ENDBRANCH  12  16
ENDBRANCH   7  10
ENDBRANCH   1   7
BRANCH   2  18
ATOM     18  C   UNL d   1     -38.812  14.952  17.801  0.00  0.00     0.092 A 
ATOM     19  C   UNL d   1     -39.461  14.713  17.359  0.00  0.00     0.156 A 
ATOM     20  F   UNL d   1     -40.170  14.594  17.773  0.00  0.00    -0.203 F 
ATOM     21  C   UNL d   1     -39.397  14.600  16.543  0.00  0.00     0.031 A 
ATOM     22  C   UNL d   1     -38.664  14.732  16.172  0.00  0.00     0.002 A 
ATOM     23  C   UNL d   1     -38.010  14.973  16.618  0.00  0.00     0.002 A 
ATOM     24  C   UNL d   1     -38.086  15.083  17.432  0.00  0.00     0.020 A 
ENDBRANCH   2  18
TORSDOF 4
ENDMDL
