MODEL 1
REMARK VINA RESULT:      15.4      0.000      0.000
REMARK  4 active torsions:
REMARK  status: ('A' for Active; 'I' for Inactive)
REMARK    1  A    between atoms: N_2  and  C_1 
REMARK       I    between atoms: C_5  and  N_2 
REMARK    2  A    between atoms: C_8  and  C_5 
REMARK    3  A    between atoms: O_16  and  C_10 
REMARK    4  A    between atoms: O_17  and  C_12 
ROOT
ATOM      1  N   UNL d   1      46.296 -16.785  43.857  0.00  0.00    -0.184 NA
ATOM      2  C   UNL d   1      45.828 -16.462  44.457  0.00  0.00     0.281 C 
ATOM      3  O   UNL d   1      45.419 -16.977  44.954  0.00  0.00    -0.265 OA
ENDROOT
BRANCH   2   4
ATOM      4  C   UNL d   1      45.756 -15.667  44.577  0.00  0.00     0.060 A 
ATOM      5  C   UNL d   1      45.028 -15.314  44.493  0.00  0.00     0.031 A 
ATOM      6  C   UNL d   1      44.958 -14.503  44.616  0.00  0.00     0.116 A 
ATOM      7  C   UNL d   1      45.611 -14.060  44.819  0.00  0.00     0.116 A 
ATOM      8  C   UNL d   1      46.338 -14.413  44.902  0.00  0.00     0.026 A 
ATOM      9  C   UNL d   1      46.436 -15.240  44.783  0.00  0.00     0.007 A 
BRANCH   6  10
ATOM     10  O   UNL d   1      44.204 -14.134  44.529  0.00  0.00    -0.326 OA
ATOM     11  C   UNL d   1      43.541 -14.654  44.955  0.00  0.00     0.181 C 
ENDBRANCH   6  10
BRANCH   7  12
ATOM     12  O   UNL d   1      45.532 -13.243  44.940  0.00  0.00    -0.326 OA
ATOM     13  C   UNL d   1      46.120 -12.624  44.735  0.00  0.00     0.181 C 
ENDBRANCH   7  12
ENDBRANCH   2   4
BRANCH   1  14
ATOM     14  C   UNL d   1      46.336 -17.608  43.778  0.00  0.00     0.182 A 
ATOM     15  N   UNL d   1      46.371 -18.065  43.074  0.00  0.00    -0.283 N 
ATOM     16  C   UNL d   1      46.404 -18.876  43.336  0.00  0.00     0.072 A 
ATOM     17  C   UNL d   1      46.372 -17.788  42.331  0.00  0.00     0.101 C 
ATOM     18  C   UNL d   1      46.446 -19.603  42.917  0.00  0.00     0.018 A 
ATOM     19  C   UNL d   1      46.388 -18.866  44.131  0.00  0.00     0.048 A 
ATOM     20  C   UNL d   1      46.472 -20.329  43.351  0.00  0.00     0.002 A 
ATOM     21  C   UNL d   1      46.455 -20.308  44.157  0.00  0.00     0.001 A 
ATOM     22  C   UNL d   1      46.414 -19.587  44.576  0.00  0.00     0.008 A 
ATOM     23  S   UNL d   1      46.348 -18.118  44.410  0.00  0.00    -0.048 SA
ENDBRANCH   1  14
TORSDOF 4
ENDMDL
MODEL 2
REMARK VINA RESULT:      16.3      1.502      4.935
REMARK  4 active torsions:
REMARK  status: ('A' for Active; 'I' for Inactive)
REMARK    1  A    between atoms: N_2  and  C_1 
REMARK       I    between atoms: C_5  and  N_2 
REMARK    2  A    between atoms: C_8  and  C_5 
REMARK    3  A    between atoms: O_16  and  C_10 
REMARK    4  A    between atoms: O_17  and  C_12 
ROOT
ATOM      1  N   UNL d   1      45.624 -16.150  44.840  0.00  0.00    -0.184 NA
ATOM      2  C   UNL d   1      46.057 -16.536  44.251  0.00  0.00     0.281 C 
ATOM      3  O   UNL d   1      46.400 -16.082  43.655  0.00  0.00    -0.265 OA
ENDROOT
BRANCH   2   4
ATOM      4  C   UNL d   1      46.158 -17.337  44.236  0.00  0.00     0.060 A 
ATOM      5  C   UNL d   1      46.113 -17.733  43.527  0.00  0.00     0.031 A 
ATOM      6  C   UNL d   1      46.216 -18.550  43.516  0.00  0.00     0.116 A 
ATOM      7  C   UNL d   1      46.363 -18.956  44.206  0.00  0.00     0.116 A 
ATOM      8  C   UNL d   1      46.409 -18.560  44.914  0.00  0.00     0.026 A 
ATOM      9  C   UNL d   1      46.307 -17.725  44.953  0.00  0.00     0.007 A 
BRANCH   6  10
ATOM     10  O   UNL d   1      46.169 -18.963  42.782  0.00  0.00    -0.326 OA
ATOM     11  C   UNL d   1      46.522 -18.428  42.088  0.00  0.00     0.181 C 
ENDBRANCH   6  10
BRANCH   7  12
ATOM     12  O   UNL d   1      46.467 -19.779  44.186  0.00  0.00    -0.326 OA
ATOM     13  C   UNL d   1      46.419 -20.329  44.869  0.00  0.00     0.181 C 
ENDBRANCH   7  12
ENDBRANCH   2   4
BRANCH   1  14
ATOM     14  C   UNL d   1      45.551 -15.326  44.809  0.00  0.00     0.182 A 
ATOM     15  N   UNL d   1      44.854 -14.860  44.859  0.00  0.00    -0.283 N 
ATOM     16  C   UNL d   1      45.120 -14.052  44.795  0.00  0.00     0.072 A 
ATOM     17  C   UNL d   1      44.113 -15.128  44.948  0.00  0.00     0.101 C 
ATOM     18  C   UNL d   1      44.708 -13.320  44.803  0.00  0.00     0.018 A 
ATOM     19  C   UNL d   1      45.912 -14.072  44.714  0.00  0.00     0.048 A 
ATOM     20  C   UNL d   1      45.145 -12.600  44.725  0.00  0.00     0.002 A 
ATOM     21  C   UNL d   1      45.947 -12.630  44.644  0.00  0.00     0.001 A 
ATOM     22  C   UNL d   1      46.359 -13.357  44.635  0.00  0.00     0.008 A 
ATOM     23  S   UNL d   1      46.184 -14.824  44.721  0.00  0.00    -0.048 SA
ENDBRANCH   1  14
TORSDOF 4
ENDMDL
