MODEL 1
REMARK VINA RESULT:      -2.2      0.000      0.000
REMARK  5 active torsions:
REMARK  status: ('A' for Active; 'I' for Inactive)
REMARK    1  A    between atoms: C_2  and  S_1 
REMARK    2  A    between atoms: N_4  and  S_1 
REMARK    3  A    between atoms: C_10  and  N_4 
REMARK    4  A    between atoms: C_14  and  C_5 
REMARK    5  A    between atoms: C_13  and  C_10 
ROOT
ATOM      1  S   UNL d   1      30.957  16.464 -24.138  0.00  0.00     0.285 S 
ATOM      2  O   UNL d   1      31.084  16.387 -23.337  0.00  0.00    -0.198 OA
ATOM      3  O   UNL d   1      30.827  16.542 -24.953  0.00  0.00    -0.198 OA
ENDROOT
BRANCH   1   4
ATOM      4  C   UNL d   1      31.718  16.768 -24.230  0.00  0.00     0.105 A 
ATOM      5  C   UNL d   1      31.856  17.574 -24.129  0.00  0.00     0.013 A 
ATOM      6  C   UNL d   1      32.616  17.878 -24.221  0.00  0.00     0.001 A 
ATOM      7  C   UNL d   1      33.241  17.375 -24.414  0.00  0.00     0.000 A 
ATOM      8  C   UNL d   1      33.100  16.577 -24.514  0.00  0.00     0.001 A 
ATOM      9  C   UNL d   1      32.340  16.273 -24.422  0.00  0.00     0.012 A 
ATOM     10  C   UNL d   1      32.202  15.466 -24.523  0.00  0.00     0.001 C 
BRANCH   6  11
ATOM     11  C   UNL d   1      32.752  18.690 -24.119  0.00  0.00     0.000 C 
ATOM     12  C   UNL d   1      32.866  18.995 -23.361  0.00  0.00     0.000 C 
ATOM     13  C   UNL d   1      32.773  19.192 -24.774  0.00  0.00     0.000 C 
ENDBRANCH   6  11
ENDBRANCH   1   4
BRANCH   1  14
ATOM     14  N   UNL d   1      30.195  16.160 -24.046  0.00  0.00    -0.155 NA
BRANCH  14  15
ATOM     15  C   UNL d   1      29.540  16.642 -24.179  0.00  0.00     0.131 C 
BRANCH  15  16
ATOM     16  C   UNL d   1      28.793  16.401 -23.926  0.00  0.00     0.101 A 
ATOM     17  N   UNL d   1      28.471  15.694 -24.203  0.00  0.00    -0.242 NA
ATOM     18  C   UNL d   1      27.723  15.454 -23.951  0.00  0.00     0.099 A 
ATOM     19  C   UNL d   1      27.297  15.920 -23.421  0.00  0.00     0.021 A 
ATOM     20  C   UNL d   1      27.618  16.631 -23.140  0.00  0.00     0.003 A 
ATOM     21  C   UNL d   1      28.366  16.872 -23.393  0.00  0.00     0.021 A 
ENDBRANCH  15  16
ENDBRANCH  14  15
ENDBRANCH   1  14
TORSDOF 5
ENDMDL
MODEL 2
REMARK VINA RESULT:      -2.1      1.840      4.317
REMARK  5 active torsions:
REMARK  status: ('A' for Active; 'I' for Inactive)
REMARK    1  A    between atoms: C_2  and  S_1 
REMARK    2  A    between atoms: N_4  and  S_1 
REMARK    3  A    between atoms: C_10  and  N_4 
REMARK    4  A    between atoms: C_14  and  C_5 
REMARK    5  A    between atoms: C_13  and  C_10 
ROOT
ATOM      1  S   UNL d   1      32.165  17.800 -23.909  0.00  0.00     0.285 S 
ATOM      2  O   UNL d   1      31.663  18.184 -24.424  0.00  0.00    -0.198 OA
ATOM      3  O   UNL d   1      32.675  17.410 -23.385  0.00  0.00    -0.198 OA
ENDROOT
BRANCH   1   4
ATOM      4  C   UNL d   1      31.812  17.080 -24.101  0.00  0.00     0.105 A 
ATOM      5  C   UNL d   1      31.134  16.833 -23.703  0.00  0.00     0.013 A 
ATOM      6  C   UNL d   1      30.781  16.113 -23.895  0.00  0.00     0.001 A 
ATOM      7  C   UNL d   1      31.106  15.639 -24.487  0.00  0.00     0.000 A 
ATOM      8  C   UNL d   1      31.778  15.888 -24.879  0.00  0.00     0.001 A 
ATOM      9  C   UNL d   1      32.131  16.607 -24.687  0.00  0.00     0.012 A 
ATOM     10  C   UNL d   1      32.809  16.854 -25.086  0.00  0.00     0.001 C 
BRANCH   6  11
ATOM     11  C   UNL d   1      30.099  15.867 -23.493  0.00  0.00     0.000 C 
ATOM     12  C   UNL d   1      29.354  16.036 -23.805  0.00  0.00     0.000 C 
ATOM     13  C   UNL d   1      30.165  15.453 -22.782  0.00  0.00     0.000 C 
ENDBRANCH   6  11
ENDBRANCH   1   4
BRANCH   1  14
ATOM     14  N   UNL d   1      32.518  18.521 -23.716  0.00  0.00    -0.155 NA
BRANCH  14  15
ATOM     15  C   UNL d   1      32.867  18.624 -22.977  0.00  0.00     0.131 C 
BRANCH  15  16
ATOM     16  C   UNL d   1      32.967  19.383 -22.670  0.00  0.00     0.101 A 
ATOM     17  N   UNL d   1      32.893  19.514 -21.859  0.00  0.00    -0.242 NA
ATOM     18  C   UNL d   1      32.993  20.273 -21.552  0.00  0.00     0.099 A 
ATOM     19  C   UNL d   1      33.167  20.902 -22.057  0.00  0.00     0.021 A 
ATOM     20  C   UNL d   1      33.241  20.774 -22.872  0.00  0.00     0.003 A 
ATOM     21  C   UNL d   1      33.141  20.014 -23.179  0.00  0.00     0.021 A 
ENDBRANCH  15  16
ENDBRANCH  14  15
ENDBRANCH   1  14
TORSDOF 5
ENDMDL
MODEL 3
REMARK VINA RESULT:      -2.0      2.328      4.540
REMARK  5 active torsions:
REMARK  status: ('A' for Active; 'I' for Inactive)
REMARK    1  A    between atoms: C_2  and  S_1 
REMARK    2  A    between atoms: N_4  and  S_1 
REMARK    3  A    between atoms: C_10  and  N_4 
REMARK    4  A    between atoms: C_14  and  C_5 
REMARK    5  A    between atoms: C_13  and  C_10 
ROOT
ATOM      1  S   UNL d   1      32.588  18.536 -23.655  0.00  0.00     0.285 S 
ATOM      2  O   UNL d   1      32.911  18.101 -23.046  0.00  0.00    -0.198 OA
ATOM      3  O   UNL d   1      32.259  18.979 -24.274  0.00  0.00    -0.198 OA
ENDROOT
BRANCH   1   4
ATOM      4  C   UNL d   1      32.337  17.840 -24.019  0.00  0.00     0.105 A 
ATOM      5  C   UNL d   1      31.756  17.374 -23.664  0.00  0.00     0.013 A 
ATOM      6  C   UNL d   1      31.506  16.678 -24.028  0.00  0.00     0.001 A 
ATOM      7  C   UNL d   1      31.835  16.448 -24.748  0.00  0.00     0.000 A 
ATOM      8  C   UNL d   1      32.409  16.912 -25.097  0.00  0.00     0.001 A 
ATOM      9  C   UNL d   1      32.660  17.608 -24.733  0.00  0.00     0.012 A 
ATOM     10  C   UNL d   1      33.240  18.074 -25.088  0.00  0.00     0.001 C 
BRANCH   6  11
ATOM     11  C   UNL d   1      30.922  16.211 -23.669  0.00  0.00     0.000 C 
ATOM     12  C   UNL d   1      30.131  16.304 -23.884  0.00  0.00     0.000 C 
ATOM     13  C   UNL d   1      31.132  15.654 -23.096  0.00  0.00     0.000 C 
ENDBRANCH   6  11
ENDBRANCH   1   4
BRANCH   1  14
ATOM     14  N   UNL d   1      32.839  19.233 -23.290  0.00  0.00    -0.155 NA
BRANCH  14  15
ATOM     15  C   UNL d   1      32.929  19.259 -22.471  0.00  0.00     0.131 C 
BRANCH  15  16
ATOM     16  C   UNL d   1      33.033  19.984 -22.092  0.00  0.00     0.101 A 
ATOM     17  N   UNL d   1      33.133  20.672 -22.535  0.00  0.00    -0.242 NA
ATOM     18  C   UNL d   1      33.237  21.397 -22.155  0.00  0.00     0.099 A 
ATOM     19  C   UNL d   1      33.241  21.434 -21.332  0.00  0.00     0.021 A 
ATOM     20  C   UNL d   1      33.141  20.745 -20.883  0.00  0.00     0.003 A 
ATOM     21  C   UNL d   1      33.037  20.020 -21.263  0.00  0.00     0.021 A 
ENDBRANCH  15  16
ENDBRANCH  14  15
ENDBRANCH   1  14
TORSDOF 5
ENDMDL
MODEL 4
REMARK VINA RESULT:      -0.5      3.530      5.292
REMARK  5 active torsions:
REMARK  status: ('A' for Active; 'I' for Inactive)
REMARK    1  A    between atoms: C_2  and  S_1 
REMARK    2  A    between atoms: N_4  and  S_1 
REMARK    3  A    between atoms: C_10  and  N_4 
REMARK    4  A    between atoms: C_14  and  C_5 
REMARK    5  A    between atoms: C_13  and  C_10 
ROOT
ATOM      1  S   UNL d   1      33.040  20.288 -22.016  0.00  0.00     0.285 S 
ATOM      2  O   UNL d   1      33.199  20.826 -22.607  0.00  0.00    -0.198 OA
ATOM      3  O   UNL d   1      32.878  19.741 -21.414  0.00  0.00    -0.198 OA
ENDROOT
BRANCH   1   4
ATOM      4  C   UNL d   1      32.935  20.908 -21.481  0.00  0.00     0.105 A 
ATOM      5  C   UNL d   1      32.729  21.658 -21.754  0.00  0.00     0.013 A 
ATOM      6  C   UNL d   1      32.624  22.277 -21.220  0.00  0.00     0.001 A 
ATOM      7  C   UNL d   1      32.726  22.147 -20.412  0.00  0.00     0.000 A 
ATOM      8  C   UNL d   1      32.930  21.402 -20.146  0.00  0.00     0.001 A 
ATOM      9  C   UNL d   1      33.035  20.783 -20.680  0.00  0.00     0.012 A 
ATOM     10  C   UNL d   1      33.241  20.032 -20.407  0.00  0.00     0.001 C 
BRANCH   6  11
ATOM     11  C   UNL d   1      32.417  23.031 -21.496  0.00  0.00     0.000 C 
ATOM     12  C   UNL d   1      32.940  23.451 -21.975  0.00  0.00     0.000 C 
ATOM     13  C   UNL d   1      31.688  23.360 -21.293  0.00  0.00     0.000 C 
ENDBRANCH   6  11
ENDBRANCH   1   4
BRANCH   1  14
ATOM     14  N   UNL d   1      33.144  19.669 -22.551  0.00  0.00    -0.155 NA
BRANCH  14  15
ATOM     15  C   UNL d   1      32.597  19.550 -23.155  0.00  0.00     0.131 C 
BRANCH  15  16
ATOM     16  C   UNL d   1      32.623  18.858 -23.604  0.00  0.00     0.101 A 
ATOM     17  N   UNL d   1      33.213  18.756 -24.171  0.00  0.00    -0.242 NA
ATOM     18  C   UNL d   1      33.239  18.064 -24.621  0.00  0.00     0.099 A 
ATOM     19  C   UNL d   1      32.674  17.475 -24.503  0.00  0.00     0.021 A 
ATOM     20  C   UNL d   1      32.080  17.575 -23.934  0.00  0.00     0.003 A 
ATOM     21  C   UNL d   1      32.054  18.267 -23.485  0.00  0.00     0.021 A 
ENDBRANCH  15  16
ENDBRANCH  14  15
ENDBRANCH   1  14
TORSDOF 5
ENDMDL
MODEL 5
REMARK VINA RESULT:      -0.4      3.515      5.460
REMARK  5 active torsions:
REMARK  status: ('A' for Active; 'I' for Inactive)
REMARK    1  A    between atoms: C_2  and  S_1 
REMARK    2  A    between atoms: N_4  and  S_1 
REMARK    3  A    between atoms: C_10  and  N_4 
REMARK    4  A    between atoms: C_14  and  C_5 
REMARK    5  A    between atoms: C_13  and  C_10 
ROOT
ATOM      1  S   UNL d   1      33.061  20.311 -22.800  0.00  0.00     0.285 S 
ATOM      2  O   UNL d   1      33.048  20.849 -23.412  0.00  0.00    -0.198 OA
ATOM      3  O   UNL d   1      33.073  19.764 -22.177  0.00  0.00    -0.198 OA
ENDROOT
BRANCH   1   4
ATOM      4  C   UNL d   1      33.015  19.692 -23.343  0.00  0.00     0.105 A 
ATOM      5  C   UNL d   1      32.878  18.922 -23.081  0.00  0.00     0.013 A 
ATOM      6  C   UNL d   1      32.832  18.303 -23.623  0.00  0.00     0.001 A 
ATOM      7  C   UNL d   1      32.922  18.453 -24.429  0.00  0.00     0.000 A 
ATOM      8  C   UNL d   1      33.058  19.217 -24.685  0.00  0.00     0.001 A 
ATOM      9  C   UNL d   1      33.104  19.836 -24.142  0.00  0.00     0.012 A 
ATOM     10  C   UNL d   1      33.241  20.605 -24.405  0.00  0.00     0.001 C 
BRANCH   6  11
ATOM     11  C   UNL d   1      32.694  17.530 -23.357  0.00  0.00     0.000 C 
ATOM     12  C   UNL d   1      33.240  17.163 -22.859  0.00  0.00     0.000 C 
ATOM     13  C   UNL d   1      32.012  17.127 -23.590  0.00  0.00     0.000 C 
ENDBRANCH   6  11
ENDBRANCH   1   4
BRANCH   1  14
ATOM     14  N   UNL d   1      33.107  20.930 -22.257  0.00  0.00    -0.155 NA
BRANCH  14  15
ATOM     15  C   UNL d   1      32.511  21.032 -21.696  0.00  0.00     0.131 C 
BRANCH  15  16
ATOM     16  C   UNL d   1      32.531  21.680 -21.186  0.00  0.00     0.101 A 
ATOM     17  N   UNL d   1      32.120  22.369 -21.377  0.00  0.00    -0.242 NA
ATOM     18  C   UNL d   1      32.141  23.017 -20.866  0.00  0.00     0.099 A 
ATOM     19  C   UNL d   1      32.572  22.975 -20.165  0.00  0.00     0.021 A 
ATOM     20  C   UNL d   1      32.986  22.284 -19.970  0.00  0.00     0.003 A 
ATOM     21  C   UNL d   1      32.965  21.636 -20.481  0.00  0.00     0.021 A 
ENDBRANCH  15  16
ENDBRANCH  14  15
ENDBRANCH   1  14
TORSDOF 5
ENDMDL
MODEL 6
REMARK VINA RESULT:      -0.1      5.702      7.511
REMARK  5 active torsions:
REMARK  status: ('A' for Active; 'I' for Inactive)
REMARK    1  A    between atoms: C_2  and  S_1 
REMARK    2  A    between atoms: N_4  and  S_1 
REMARK    3  A    between atoms: C_10  and  N_4 
REMARK    4  A    between atoms: C_14  and  C_5 
REMARK    5  A    between atoms: C_13  and  C_10 
ROOT
ATOM      1  S   UNL d   1      32.557  22.419 -20.559  0.00  0.00     0.285 S 
ATOM      2  O   UNL d   1      33.241  22.109 -20.241  0.00  0.00    -0.198 OA
ATOM      3  O   UNL d   1      31.862  22.734 -20.882  0.00  0.00    -0.198 OA
ENDROOT
BRANCH   1   4
ATOM      4  C   UNL d   1      32.679  21.981 -21.247  0.00  0.00     0.105 A 
ATOM      5  C   UNL d   1      32.771  21.162 -21.205  0.00  0.00     0.013 A 
ATOM      6  C   UNL d   1      32.893  20.725 -21.892  0.00  0.00     0.001 A 
ATOM      7  C   UNL d   1      32.922  21.105 -22.624  0.00  0.00     0.000 A 
ATOM      8  C   UNL d   1      32.830  21.916 -22.661  0.00  0.00     0.001 A 
ATOM      9  C   UNL d   1      32.709  22.353 -21.974  0.00  0.00     0.012 A 
ATOM     10  C   UNL d   1      32.616  23.172 -22.016  0.00  0.00     0.001 C 
BRANCH   6  11
ATOM     11  C   UNL d   1      32.985  19.902 -21.847  0.00  0.00     0.000 C 
ATOM     12  C   UNL d   1      32.936  19.522 -21.116  0.00  0.00     0.000 C 
ATOM     13  C   UNL d   1      33.127  19.463 -22.532  0.00  0.00     0.000 C 
ENDBRANCH   6  11
ENDBRANCH   1   4
BRANCH   1  14
ATOM     14  N   UNL d   1      32.436  22.857 -19.870  0.00  0.00    -0.155 NA
BRANCH  14  15
ATOM     15  C   UNL d   1      32.881  22.696 -19.195  0.00  0.00     0.131 C 
BRANCH  15  16
ATOM     16  C   UNL d   1      32.661  23.020 -18.469  0.00  0.00     0.101 A 
ATOM     17  N   UNL d   1      33.195  23.027 -17.841  0.00  0.00    -0.242 NA
ATOM     18  C   UNL d   1      32.975  23.351 -17.115  0.00  0.00     0.099 A 
ATOM     19  C   UNL d   1      32.220  23.667 -17.017  0.00  0.00     0.021 A 
ATOM     20  C   UNL d   1      31.681  23.662 -17.646  0.00  0.00     0.003 A 
ATOM     21  C   UNL d   1      31.901  23.338 -18.372  0.00  0.00     0.021 A 
ENDBRANCH  15  16
ENDBRANCH  14  15
ENDBRANCH   1  14
TORSDOF 5
ENDMDL
MODEL 7
REMARK VINA RESULT:      -0.0      3.680      5.463
REMARK  5 active torsions:
REMARK  status: ('A' for Active; 'I' for Inactive)
REMARK    1  A    between atoms: C_2  and  S_1 
REMARK    2  A    between atoms: N_4  and  S_1 
REMARK    3  A    between atoms: C_10  and  N_4 
REMARK    4  A    between atoms: C_14  and  C_5 
REMARK    5  A    between atoms: C_13  and  C_10 
ROOT
ATOM      1  S   UNL d   1      33.063  20.774 -22.505  0.00  0.00     0.285 S 
ATOM      2  O   UNL d   1      33.240  20.498 -21.759  0.00  0.00    -0.198 OA
ATOM      3  O   UNL d   1      32.882  21.055 -23.263  0.00  0.00    -0.198 OA
ENDROOT
BRANCH   1   4
ATOM      4  C   UNL d   1      32.977  21.537 -22.202  0.00  0.00     0.105 A 
ATOM      5  C   UNL d   1      32.802  21.647 -21.404  0.00  0.00     0.013 A 
ATOM      6  C   UNL d   1      32.717  22.409 -21.102  0.00  0.00     0.001 A 
ATOM      7  C   UNL d   1      32.807  23.062 -21.597  0.00  0.00     0.000 A 
ATOM      8  C   UNL d   1      32.980  22.948 -22.388  0.00  0.00     0.001 A 
ATOM      9  C   UNL d   1      33.066  22.186 -22.690  0.00  0.00     0.012 A 
ATOM     10  C   UNL d   1      33.241  22.076 -23.488  0.00  0.00     0.001 C 
BRANCH   6  11
ATOM     11  C   UNL d   1      32.541  22.518 -20.299  0.00  0.00     0.000 C 
ATOM     12  C   UNL d   1      31.779  22.365 -20.021  0.00  0.00     0.000 C 
ATOM     13  C   UNL d   1      33.126  22.778 -19.778  0.00  0.00     0.000 C 
ENDBRANCH   6  11
ENDBRANCH   1   4
BRANCH   1  14
ATOM     14  N   UNL d   1      33.148  20.011 -22.807  0.00  0.00    -0.155 NA
BRANCH  14  15
ATOM     15  C   UNL d   1      32.654  19.406 -22.544  0.00  0.00     0.131 C 
BRANCH  15  16
ATOM     16  C   UNL d   1      32.696  18.659 -22.891  0.00  0.00     0.101 A 
ATOM     17  N   UNL d   1      33.124  18.056 -22.524  0.00  0.00    -0.242 NA
ATOM     18  C   UNL d   1      33.166  17.309 -22.871  0.00  0.00     0.099 A 
ATOM     19  C   UNL d   1      32.781  17.164 -23.586  0.00  0.00     0.021 A 
ATOM     20  C   UNL d   1      32.351  17.768 -23.957  0.00  0.00     0.003 A 
ATOM     21  C   UNL d   1      32.309  18.515 -23.610  0.00  0.00     0.021 A 
ENDBRANCH  15  16
ENDBRANCH  14  15
ENDBRANCH   1  14
TORSDOF 5
ENDMDL
