MODEL 1
REMARK VINA RESULT:      11.5      0.000      0.000
REMARK  4 active torsions:
REMARK  status: ('A' for Active; 'I' for Inactive)
REMARK    1  A    between atoms: C_3  and  C_1 
REMARK    2  A    between atoms: C_8  and  C_3 
REMARK    3  A    between atoms: O_6  and  C_8 
REMARK    4  A    between atoms: C_7  and  O_6 
ROOT
ATOM      1  C   UNL d   1      45.414 -15.911  44.582  0.00  0.00     0.223 C 
ATOM      2  O   UNL d   1      44.741 -16.215  44.954  0.00  0.00    -0.284 OA
ENDROOT
BRANCH   1   3
ATOM      3  C   UNL d   1      45.587 -15.106  44.635  0.00  0.00     0.080 A 
ATOM      4  C   UNL d   1      44.996 -14.545  44.492  0.00  0.00     0.202 A 
ATOM      5  C   UNL d   1      45.168 -13.740  44.545  0.00  0.00     0.084 A 
ATOM      6  O   UNL d   1      44.233 -14.790  44.297  0.00  0.00    -0.286 OA
ATOM      7  C   UNL d   1      45.937 -13.501  44.742  0.00  0.00     0.199 A 
ATOM      8  C   UNL d   1      46.522 -14.056  44.883  0.00  0.00     0.042 A 
ATOM      9  O   UNL d   1      46.112 -12.681  44.796  0.00  0.00    -0.286 OA
ATOM     10  C   UNL d   1      46.350 -14.861  44.830  0.00  0.00     0.010 A 
ENDBRANCH   1   3
BRANCH   1  11
ATOM     11  C   UNL d   1      45.915 -16.419  44.155  0.00  0.00     0.165 C 
BRANCH  11  12
ATOM     12  O   UNL d   1      46.044 -17.192  44.425  0.00  0.00    -0.301 OA
BRANCH  12  13
ATOM     13  C   UNL d   1      46.202 -17.789  43.873  0.00  0.00     0.106 A 
ATOM     14  C   UNL d   1      46.336 -18.561  44.124  0.00  0.00     0.057 A 
ATOM     15 BR   UNL d   1      46.312 -18.732  44.931  0.00  0.00    -0.047 Br
ATOM     16  C   UNL d   1      46.493 -19.155  43.575  0.00  0.00     0.009 A 
ATOM     17  C   UNL d   1      46.515 -18.976  42.768  0.00  0.00     0.001 A 
ATOM     18  C   UNL d   1      46.379 -18.194  42.511  0.00  0.00     0.002 A 
ATOM     19  C   UNL d   1      46.223 -17.606  43.067  0.00  0.00     0.025 A 
ENDBRANCH  12  13
ENDBRANCH  11  12
ENDBRANCH   1  11
TORSDOF 4
ENDMDL
MODEL 2
REMARK VINA RESULT:      12.4      1.426      4.366
REMARK  4 active torsions:
REMARK  status: ('A' for Active; 'I' for Inactive)
REMARK    1  A    between atoms: C_3  and  C_1 
REMARK    2  A    between atoms: C_8  and  C_3 
REMARK    3  A    between atoms: O_6  and  C_8 
REMARK    4  A    between atoms: C_7  and  O_6 
ROOT
ATOM      1  C   UNL d   1      46.331 -17.634  44.165  0.00  0.00     0.223 C 
ATOM      2  O   UNL d   1      46.384 -17.881  44.952  0.00  0.00    -0.284 OA
ENDROOT
BRANCH   1   3
ATOM      3  C   UNL d   1      46.410 -18.182  43.554  0.00  0.00     0.080 A 
ATOM      4  C   UNL d   1      46.529 -18.981  43.727  0.00  0.00     0.202 A 
ATOM      5  C   UNL d   1      46.608 -19.529  43.116  0.00  0.00     0.084 A 
ATOM      6  O   UNL d   1      46.570 -19.232  44.512  0.00  0.00    -0.286 OA
ATOM      7  C   UNL d   1      46.567 -19.271  42.330  0.00  0.00     0.199 A 
ATOM      8  C   UNL d   1      46.448 -18.479  42.158  0.00  0.00     0.042 A 
ATOM      9  O   UNL d   1      46.647 -19.829  41.707  0.00  0.00    -0.286 OA
ATOM     10  C   UNL d   1      46.369 -17.931  42.769  0.00  0.00     0.010 A 
ENDBRANCH   1   3
BRANCH   1  11
ATOM     11  C   UNL d   1      46.198 -16.831  43.993  0.00  0.00     0.165 C 
BRANCH  11  12
ATOM     12  O   UNL d   1      45.621 -16.410  44.414  0.00  0.00    -0.301 OA
BRANCH  12  13
ATOM     13  C   UNL d   1      45.674 -15.584  44.451  0.00  0.00     0.106 A 
ATOM     14  C   UNL d   1      45.037 -15.139  44.721  0.00  0.00     0.057 A 
ATOM     15 BR   UNL d   1      44.346 -15.526  44.954  0.00  0.00    -0.047 Br
ATOM     16  C   UNL d   1      45.089 -14.318  44.757  0.00  0.00     0.009 A 
ATOM     17  C   UNL d   1      45.785 -13.937  44.522  0.00  0.00     0.001 A 
ATOM     18  C   UNL d   1      46.432 -14.386  44.248  0.00  0.00     0.002 A 
ATOM     19  C   UNL d   1      46.371 -15.207  44.215  0.00  0.00     0.025 A 
ENDBRANCH  12  13
ENDBRANCH  11  12
ENDBRANCH   1  11
TORSDOF 4
ENDMDL
