MODEL 1
REMARK VINA RESULT:     -10.0      0.000      0.000
REMARK  2 active torsions:
REMARK  status: ('A' for Active; 'I' for Inactive)
REMARK    1  A    between atoms: C_7  and  C_2 
REMARK    2  A    between atoms: C_5  and  C_7 
ROOT
ATOM      1  C   UNL d   1      53.458  32.205  53.594  0.00  0.00     0.021 A 
ATOM      2  N   UNL d   1      52.658  31.926  52.576  0.00  0.00    -0.244 NA
ATOM      3  C   UNL d   1      53.026  32.538  52.982  0.00  0.00     0.099 A 
ATOM      4  C   UNL d   1      53.359  31.393  53.567  0.00  0.00     0.019 A 
ATOM      5  C   UNL d   1      52.863  31.220  52.937  0.00  0.00     0.081 A 
ATOM      6  C   UNL d   1      53.658  30.781  54.040  0.00  0.00     0.002 A 
ATOM      7  C   UNL d   1      52.661  30.434  52.772  0.00  0.00     0.019 A 
ATOM      8  C   UNL d   1      53.461  29.997  53.881  0.00  0.00     0.000 A 
ATOM      9  C   UNL d   1      52.961  29.822  53.245  0.00  0.00     0.002 A 
ENDROOT
BRANCH   1  10
ATOM     10  C   UNL d   1      53.916  32.627  54.143  0.00  0.00     0.011 C 
BRANCH  10  11
ATOM     11  C   UNL d   1      53.717  33.405  54.330  0.00  0.00     0.062 A 
ATOM     12  C   UNL d   1      54.204  33.841  54.834  0.00  0.00     0.145 A 
ATOM     13  N   UNL d   1      53.866  34.590  54.917  0.00  0.00    -0.191 NA
ATOM     14  S   UNL d   1      54.908  33.574  55.194  0.00  0.00    -0.057 SA
ATOM     15  C   UNL d   1      53.186  34.620  54.476  0.00  0.00     0.311 A 
ATOM     16  S   UNL d   1      53.089  33.887  54.109  0.00  0.00    -0.023 SA
ATOM     17  O   UNL d   1      52.682  35.281  54.411  0.00  0.00    -0.258 OA
ENDBRANCH  10  11
ENDBRANCH   1  10
TORSDOF 2
ENDMDL
MODEL 2
REMARK VINA RESULT:      -9.4      1.154      1.765
REMARK  2 active torsions:
REMARK  status: ('A' for Active; 'I' for Inactive)
REMARK    1  A    between atoms: C_7  and  C_2 
REMARK    2  A    between atoms: C_5  and  C_7 
ROOT
ATOM      1  C   UNL d   1      53.166  32.555  53.325  0.00  0.00     0.021 A 
ATOM      2  N   UNL d   1      54.255  32.023  53.858  0.00  0.00    -0.244 NA
ATOM      3  C   UNL d   1      53.882  32.734  53.683  0.00  0.00     0.099 A 
ATOM      4  C   UNL d   1      53.096  31.741  53.279  0.00  0.00     0.019 A 
ATOM      5  C   UNL d   1      53.771  31.411  53.610  0.00  0.00     0.081 A 
ATOM      6  C   UNL d   1      52.500  31.251  52.976  0.00  0.00     0.002 A 
ATOM      7  C   UNL d   1      53.857  30.588  53.641  0.00  0.00     0.019 A 
ATOM      8  C   UNL d   1      52.580  30.431  53.005  0.00  0.00     0.000 A 
ATOM      9  C   UNL d   1      53.260  30.097  53.338  0.00  0.00     0.002 A 
ENDROOT
BRANCH   1  10
ATOM     10  C   UNL d   1      52.612  33.112  53.058  0.00  0.00     0.011 C 
BRANCH  10  11
ATOM     11  C   UNL d   1      52.606  33.872  53.379  0.00  0.00     0.062 A 
ATOM     12  C   UNL d   1      52.030  34.412  53.141  0.00  0.00     0.145 A 
ATOM     13  N   UNL d   1      52.164  35.115  53.553  0.00  0.00    -0.191 NA
ATOM     14  S   UNL d   1      51.423  34.273  52.584  0.00  0.00    -0.057 SA
ATOM     15  C   UNL d   1      52.807  35.015  54.037  0.00  0.00     0.311 A 
ATOM     16  S   UNL d   1      53.085  34.244  53.933  0.00  0.00    -0.023 SA
ATOM     17  O   UNL d   1      53.123  35.594  54.545  0.00  0.00    -0.258 OA
ENDBRANCH  10  11
ENDBRANCH   1  10
TORSDOF 2
ENDMDL
MODEL 3
REMARK VINA RESULT:      -8.3      2.017      2.921
REMARK  2 active torsions:
REMARK  status: ('A' for Active; 'I' for Inactive)
REMARK    1  A    between atoms: C_7  and  C_2 
REMARK    2  A    between atoms: C_5  and  C_7 
ROOT
ATOM      1  C   UNL d   1      52.535  33.734  53.503  0.00  0.00     0.021 A 
ATOM      2  N   UNL d   1      52.346  34.911  52.926  0.00  0.00    -0.244 NA
ATOM      3  C   UNL d   1      52.908  34.430  53.284  0.00  0.00     0.099 A 
ATOM      4  C   UNL d   1      51.748  33.782  53.283  0.00  0.00     0.019 A 
ATOM      5  C   UNL d   1      51.630  34.512  52.925  0.00  0.00     0.081 A 
ATOM      6  C   UNL d   1      51.116  33.252  53.362  0.00  0.00     0.002 A 
ATOM      7  C   UNL d   1      50.881  34.718  52.643  0.00  0.00     0.019 A 
ATOM      8  C   UNL d   1      50.366  33.452  53.083  0.00  0.00     0.000 A 
ATOM      9  C   UNL d   1      50.247  34.187  52.722  0.00  0.00     0.002 A 
ENDROOT
BRANCH   1  10
ATOM     10  C   UNL d   1      52.901  33.093  53.884  0.00  0.00     0.011 C 
BRANCH  10  11
ATOM     11  C   UNL d   1      53.602  33.211  54.303  0.00  0.00     0.062 A 
ATOM     12  C   UNL d   1      54.153  32.599  54.357  0.00  0.00     0.145 A 
ATOM     13  N   UNL d   1      54.789  32.878  54.804  0.00  0.00    -0.191 NA
ATOM     14  S   UNL d   1      54.081  31.838  54.021  0.00  0.00    -0.057 SA
ATOM     15  C   UNL d   1      54.637  33.644  55.023  0.00  0.00     0.311 A 
ATOM     16  S   UNL d   1      53.901  33.856  54.714  0.00  0.00    -0.023 SA
ATOM     17  O   UNL d   1      55.143  34.124  55.480  0.00  0.00    -0.258 OA
ENDBRANCH  10  11
ENDBRANCH   1  10
TORSDOF 2
ENDMDL
MODEL 4
REMARK VINA RESULT:      -7.7      2.203      3.793
REMARK  2 active torsions:
REMARK  status: ('A' for Active; 'I' for Inactive)
REMARK    1  A    between atoms: C_7  and  C_2 
REMARK    2  A    between atoms: C_5  and  C_7 
ROOT
ATOM      1  C   UNL d   1      53.552  32.169  53.944  0.00  0.00     0.021 A 
ATOM      2  N   UNL d   1      54.132  32.795  54.958  0.00  0.00    -0.244 NA
ATOM      3  C   UNL d   1      54.060  32.069  54.580  0.00  0.00     0.099 A 
ATOM      4  C   UNL d   1      53.311  32.950  53.928  0.00  0.00     0.019 A 
ATOM      5  C   UNL d   1      53.670  33.339  54.556  0.00  0.00     0.081 A 
ATOM      6  C   UNL d   1      52.806  33.365  53.417  0.00  0.00     0.002 A 
ATOM      7  C   UNL d   1      53.528  34.145  54.680  0.00  0.00     0.019 A 
ATOM      8  C   UNL d   1      52.660  34.168  53.536  0.00  0.00     0.000 A 
ATOM      9  C   UNL d   1      53.022  34.560  54.169  0.00  0.00     0.002 A 
ENDROOT
BRANCH   1  10
ATOM     10  C   UNL d   1      53.327  31.573  53.413  0.00  0.00     0.011 C 
BRANCH  10  11
ATOM     11  C   UNL d   1      53.247  30.795  53.677  0.00  0.00     0.062 A 
ATOM     12  C   UNL d   1      53.052  30.199  53.142  0.00  0.00     0.145 A 
ATOM     13  N   UNL d   1      53.013  29.491  53.564  0.00  0.00    -0.191 NA
ATOM     14  S   UNL d   1      52.919  30.295  52.323  0.00  0.00    -0.057 SA
ATOM     15  C   UNL d   1      53.179  29.642  54.343  0.00  0.00     0.311 A 
ATOM     16  S   UNL d   1      53.326  30.450  54.419  0.00  0.00    -0.023 SA
ATOM     17  O   UNL d   1      53.197  29.073  54.952  0.00  0.00    -0.258 OA
ENDBRANCH  10  11
ENDBRANCH   1  10
TORSDOF 2
ENDMDL
MODEL 5
REMARK VINA RESULT:      -7.7      1.974      3.614
REMARK  2 active torsions:
REMARK  status: ('A' for Active; 'I' for Inactive)
REMARK    1  A    between atoms: C_7  and  C_2 
REMARK    2  A    between atoms: C_5  and  C_7 
ROOT
ATOM      1  C   UNL d   1      53.981  32.820  53.767  0.00  0.00     0.021 A 
ATOM      2  N   UNL d   1      55.278  32.987  53.559  0.00  0.00    -0.244 NA
ATOM      3  C   UNL d   1      54.590  32.671  53.239  0.00  0.00     0.099 A 
ATOM      4  C   UNL d   1      54.288  33.225  54.408  0.00  0.00     0.019 A 
ATOM      5  C   UNL d   1      55.092  33.329  54.280  0.00  0.00     0.081 A 
ATOM      6  C   UNL d   1      53.937  33.516  55.101  0.00  0.00     0.002 A 
ATOM      7  C   UNL d   1      55.554  33.724  54.842  0.00  0.00     0.019 A 
ATOM      8  C   UNL d   1      54.392  33.910  55.665  0.00  0.00     0.000 A 
ATOM      9  C   UNL d   1      55.203  34.015  55.536  0.00  0.00     0.002 A 
ENDROOT
BRANCH   1  10
ATOM     10  C   UNL d   1      53.189  32.595  53.660  0.00  0.00     0.011 C 
BRANCH  10  11
ATOM     11  C   UNL d   1      53.011  31.842  53.376  0.00  0.00     0.062 A 
ATOM     12  C   UNL d   1      52.312  31.718  52.956  0.00  0.00     0.145 A 
ATOM     13  N   UNL d   1      52.288  30.919  52.746  0.00  0.00    -0.191 NA
ATOM     14  S   UNL d   1      51.735  32.294  52.777  0.00  0.00    -0.057 SA
ATOM     15  C   UNL d   1      52.955  30.556  53.028  0.00  0.00     0.311 A 
ATOM     16  S   UNL d   1      53.408  31.123  53.420  0.00  0.00    -0.023 SA
ATOM     17  O   UNL d   1      53.142  29.749  52.932  0.00  0.00    -0.258 OA
ENDBRANCH  10  11
ENDBRANCH   1  10
TORSDOF 2
ENDMDL
MODEL 6
REMARK VINA RESULT:      -7.5      2.142      3.170
REMARK  2 active torsions:
REMARK  status: ('A' for Active; 'I' for Inactive)
REMARK    1  A    between atoms: C_7  and  C_2 
REMARK    2  A    between atoms: C_5  and  C_7 
ROOT
ATOM      1  C   UNL d   1      52.856  33.315  53.723  0.00  0.00     0.021 A 
ATOM      2  N   UNL d   1      53.809  32.473  53.353  0.00  0.00    -0.244 NA
ATOM      3  C   UNL d   1      53.038  32.711  53.199  0.00  0.00     0.099 A 
ATOM      4  C   UNL d   1      53.509  33.451  54.197  0.00  0.00     0.019 A 
ATOM      5  C   UNL d   1      54.100  32.929  53.968  0.00  0.00     0.081 A 
ATOM      6  C   UNL d   1      53.645  33.988  54.814  0.00  0.00     0.002 A 
ATOM      7  C   UNL d   1      54.832  32.938  54.354  0.00  0.00     0.019 A 
ATOM      8  C   UNL d   1      54.372  34.001  55.202  0.00  0.00     0.000 A 
ATOM      9  C   UNL d   1      54.968  33.476  54.972  0.00  0.00     0.002 A 
ENDROOT
BRANCH   1  10
ATOM     10  C   UNL d   1      52.130  33.716  53.758  0.00  0.00     0.011 C 
BRANCH  10  11
ATOM     11  C   UNL d   1      51.730  33.903  53.062  0.00  0.00     0.062 A 
ATOM     12  C   UNL d   1      50.912  34.006  53.075  0.00  0.00     0.145 A 
ATOM     13  N   UNL d   1      50.672  34.186  52.306  0.00  0.00    -0.191 NA
ATOM     14  S   UNL d   1      50.417  33.940  53.745  0.00  0.00    -0.057 SA
ATOM     15  C   UNL d   1      51.325  34.196  51.825  0.00  0.00     0.311 A 
ATOM     16  S   UNL d   1      51.985  34.020  52.289  0.00  0.00    -0.023 SA
ATOM     17  O   UNL d   1      51.320  34.355  51.007  0.00  0.00    -0.258 OA
ENDBRANCH  10  11
ENDBRANCH   1  10
TORSDOF 2
ENDMDL
MODEL 7
REMARK VINA RESULT:      -7.3      2.380      3.285
REMARK  2 active torsions:
REMARK  status: ('A' for Active; 'I' for Inactive)
REMARK    1  A    between atoms: C_7  and  C_2 
REMARK    2  A    between atoms: C_5  and  C_7 
ROOT
ATOM      1  C   UNL d   1      52.120  33.987  53.043  0.00  0.00     0.021 A 
ATOM      2  N   UNL d   1      51.926  34.056  51.735  0.00  0.00    -0.244 NA
ATOM      3  C   UNL d   1      52.492  33.920  52.315  0.00  0.00     0.099 A 
ATOM      4  C   UNL d   1      51.332  34.164  52.915  0.00  0.00     0.019 A 
ATOM      5  C   UNL d   1      51.211  34.207  52.105  0.00  0.00     0.081 A 
ATOM      6  C   UNL d   1      50.700  34.293  53.437  0.00  0.00     0.002 A 
ATOM      7  C   UNL d   1      50.459  34.380  51.807  0.00  0.00     0.019 A 
ATOM      8  C   UNL d   1      49.948  34.466  53.146  0.00  0.00     0.000 A 
ATOM      9  C   UNL d   1      49.826  34.509  52.329  0.00  0.00     0.002 A 
ENDROOT
BRANCH   1  10
ATOM     10  C   UNL d   1      52.490  33.890  53.780  0.00  0.00     0.011 C 
BRANCH  10  11
ATOM     11  C   UNL d   1      53.036  33.282  53.889  0.00  0.00     0.062 A 
ATOM     12  C   UNL d   1      53.622  33.356  54.465  0.00  0.00     0.145 A 
ATOM     13  N   UNL d   1      54.079  32.669  54.443  0.00  0.00    -0.191 NA
ATOM     14  S   UNL d   1      53.733  34.008  54.976  0.00  0.00    -0.057 SA
ATOM     15  C   UNL d   1      53.785  32.179  53.868  0.00  0.00     0.311 A 
ATOM     16  S   UNL d   1      53.137  32.554  53.521  0.00  0.00    -0.023 SA
ATOM     17  O   UNL d   1      54.091  31.429  53.671  0.00  0.00    -0.258 OA
ENDBRANCH  10  11
ENDBRANCH   1  10
TORSDOF 2
ENDMDL
