MODEL 1
REMARK VINA RESULT:      -8.4      0.000      0.000
REMARK  2 active torsions:
REMARK  status: ('A' for Active; 'I' for Inactive)
REMARK    1  A    between atoms: N_3  and  C_1 
REMARK       I    between atoms: C_6  and  N_3 
REMARK    2  A    between atoms: C_8  and  C_6 
ROOT
ATOM      1  N   UNL d   1     -48.631  11.612  23.698  0.00  0.00    -0.183 NA
ATOM      2  C   UNL d   1     -49.392  11.602  23.328  0.00  0.00     0.281 C 
ATOM      3  O   UNL d   1     -49.967  11.080  23.592  0.00  0.00    -0.265 OA
ENDROOT
BRANCH   1   4
ATOM      4  C   UNL d   1     -48.058  12.132  23.435  0.00  0.00     0.197 A 
ATOM      5  N   UNL d   1     -47.979  12.913  23.657  0.00  0.00    -0.221 NA
ATOM      6  C   UNL d   1     -47.341  13.227  23.268  0.00  0.00     0.090 A 
ATOM      7  C   UNL d   1     -47.001  13.978  23.273  0.00  0.00     0.020 A 
ATOM      8  C   UNL d   1     -47.018  12.631  22.795  0.00  0.00     0.050 A 
ATOM      9  C   UNL d   1     -46.338  14.137  22.807  0.00  0.00     0.002 A 
ATOM     10  C   UNL d   1     -46.014  13.541  22.334  0.00  0.00     0.001 A 
ATOM     11  C   UNL d   1     -46.357  12.792  22.332  0.00  0.00     0.008 A 
ATOM     12  S   UNL d   1     -47.463  11.962  22.903  0.00  0.00    -0.047 SA
ENDBRANCH   1   4
BRANCH   2  13
ATOM     13  C   UNL d   1     -49.546  12.107  22.715  0.00  0.00     0.058 A 
ATOM     14  C   UNL d   1     -49.961  12.806  22.856  0.00  0.00     0.005 A 
ATOM     15  C   UNL d   1     -50.124  13.327  22.238  0.00  0.00     0.000 A 
ATOM     16  C   UNL d   1     -50.532  14.015  22.375  0.00  0.00     0.000 C 
ATOM     17  C   UNL d   1     -49.869  13.147  21.471  0.00  0.00     0.000 A 
ATOM     18  C   UNL d   1     -49.449  12.436  21.338  0.00  0.00     0.000 A 
ATOM     19  C   UNL d   1     -49.291  11.927  21.948  0.00  0.00     0.005 A 
ENDBRANCH   2  13
TORSDOF 2
ENDMDL
MODEL 2
REMARK VINA RESULT:      -8.4      1.401      2.029
REMARK  2 active torsions:
REMARK  status: ('A' for Active; 'I' for Inactive)
REMARK    1  A    between atoms: N_3  and  C_1 
REMARK       I    between atoms: C_6  and  N_3 
REMARK    2  A    between atoms: C_8  and  C_6 
ROOT
ATOM      1  N   UNL d   1     -49.520  12.628  21.389  0.00  0.00    -0.183 NA
ATOM      2  C   UNL d   1     -50.157  13.143  21.600  0.00  0.00     0.281 C 
ATOM      3  O   UNL d   1     -50.806  13.215  21.103  0.00  0.00    -0.265 OA
ENDROOT
BRANCH   1   4
ATOM      4  C   UNL d   1     -48.873  12.557  21.883  0.00  0.00     0.197 A 
ATOM      5  N   UNL d   1     -48.206  13.027  21.873  0.00  0.00    -0.221 NA
ATOM      6  C   UNL d   1     -47.702  12.769  22.453  0.00  0.00     0.090 A 
ATOM      7  C   UNL d   1     -46.958  13.026  22.698  0.00  0.00     0.020 A 
ATOM      8  C   UNL d   1     -48.062  12.127  22.831  0.00  0.00     0.050 A 
ATOM      9  C   UNL d   1     -46.570  12.645  23.320  0.00  0.00     0.002 A 
ATOM     10  C   UNL d   1     -46.930  12.003  23.697  0.00  0.00     0.001 A 
ATOM     11  C   UNL d   1     -47.673  11.749  23.450  0.00  0.00     0.008 A 
ATOM     12  S   UNL d   1     -48.780  12.003  22.476  0.00  0.00    -0.047 SA
ENDBRANCH   1   4
BRANCH   2  13
ATOM     13  C   UNL d   1     -50.121  13.562  22.291  0.00  0.00     0.058 A 
ATOM     14  C   UNL d   1     -49.860  14.345  22.282  0.00  0.00     0.005 A 
ATOM     15  C   UNL d   1     -49.821  14.779  22.982  0.00  0.00     0.000 A 
ATOM     16  C   UNL d   1     -49.564  15.549  22.975  0.00  0.00     0.000 C 
ATOM     17  C   UNL d   1     -50.045  14.428  23.698  0.00  0.00     0.000 A 
ATOM     18  C   UNL d   1     -50.308  13.635  23.696  0.00  0.00     0.000 A 
ATOM     19  C   UNL d   1     -50.345  13.211  23.007  0.00  0.00     0.005 A 
ENDBRANCH   2  13
TORSDOF 2
ENDMDL
MODEL 3
REMARK VINA RESULT:      -8.3      1.463      1.985
REMARK  2 active torsions:
REMARK  status: ('A' for Active; 'I' for Inactive)
REMARK    1  A    between atoms: N_3  and  C_1 
REMARK       I    between atoms: C_6  and  N_3 
REMARK    2  A    between atoms: C_8  and  C_6 
ROOT
ATOM      1  N   UNL d   1     -48.807  14.981  22.845  0.00  0.00    -0.183 NA
ATOM      2  C   UNL d   1     -49.555  14.766  22.513  0.00  0.00     0.281 C 
ATOM      3  O   UNL d   1     -50.158  15.320  22.473  0.00  0.00    -0.265 OA
ENDROOT
BRANCH   1   4
ATOM      4  C   UNL d   1     -48.206  14.429  22.885  0.00  0.00     0.197 A 
ATOM      5  N   UNL d   1     -48.107  13.869  23.470  0.00  0.00    -0.221 NA
ATOM      6  C   UNL d   1     -47.444  13.435  23.299  0.00  0.00     0.090 A 
ATOM      7  C   UNL d   1     -47.077  12.805  23.684  0.00  0.00     0.020 A 
ATOM      8  C   UNL d   1     -47.126  13.729  22.595  0.00  0.00     0.050 A 
ATOM      9  C   UNL d   1     -46.392  12.467  23.370  0.00  0.00     0.002 A 
ATOM     10  C   UNL d   1     -46.074  12.762  22.666  0.00  0.00     0.001 A 
ATOM     11  C   UNL d   1     -46.443  13.391  22.284  0.00  0.00     0.008 A 
ATOM     12  S   UNL d   1     -47.598  14.339  22.347  0.00  0.00    -0.047 SA
ENDBRANCH   1   4
BRANCH   2  13
ATOM     13  C   UNL d   1     -49.671  14.014  22.239  0.00  0.00     0.058 A 
ATOM     14  C   UNL d   1     -50.056  13.460  22.714  0.00  0.00     0.005 A 
ATOM     15  C   UNL d   1     -50.178  12.690  22.442  0.00  0.00     0.000 A 
ATOM     16  C   UNL d   1     -50.557  12.144  22.908  0.00  0.00     0.000 C 
ATOM     17  C   UNL d   1     -49.912  12.473  21.689  0.00  0.00     0.000 A 
ATOM     18  C   UNL d   1     -49.522  13.042  21.216  0.00  0.00     0.000 A 
ATOM     19  C   UNL d   1     -49.405  13.796  21.486  0.00  0.00     0.005 A 
ENDBRANCH   2  13
TORSDOF 2
ENDMDL
MODEL 4
REMARK VINA RESULT:      -8.1      1.748      3.201
REMARK  2 active torsions:
REMARK  status: ('A' for Active; 'I' for Inactive)
REMARK    1  A    between atoms: N_3  and  C_1 
REMARK       I    between atoms: C_6  and  N_3 
REMARK    2  A    between atoms: C_8  and  C_6 
ROOT
ATOM      1  N   UNL d   1     -49.151  13.339  21.124  0.00  0.00    -0.183 NA
ATOM      2  C   UNL d   1     -48.615  12.713  21.315  0.00  0.00     0.281 C 
ATOM      3  O   UNL d   1     -48.352  12.207  20.726  0.00  0.00    -0.265 OA
ENDROOT
BRANCH   1   4
ATOM      4  C   UNL d   1     -49.413  13.844  21.710  0.00  0.00     0.197 A 
ATOM      5  N   UNL d   1     -49.041  14.525  21.960  0.00  0.00    -0.221 NA
ATOM      6  C   UNL d   1     -49.485  14.859  22.550  0.00  0.00     0.090 A 
ATOM      7  C   UNL d   1     -49.386  15.540  23.003  0.00  0.00     0.020 A 
ATOM      8  C   UNL d   1     -50.145  14.376  22.670  0.00  0.00     0.050 A 
ATOM      9  C   UNL d   1     -49.943  15.743  23.577  0.00  0.00     0.002 A 
ATOM     10  C   UNL d   1     -50.604  15.260  23.698  0.00  0.00     0.001 A 
ATOM     11  C   UNL d   1     -50.700  14.580  23.243  0.00  0.00     0.008 A 
ATOM     12  S   UNL d   1     -50.095  13.756  22.152  0.00  0.00    -0.047 SA
ENDBRANCH   1   4
BRANCH   2  13
ATOM     13  C   UNL d   1     -48.364  12.620  22.078  0.00  0.00     0.058 A 
ATOM     14  C   UNL d   1     -47.637  12.932  22.312  0.00  0.00     0.005 A 
ATOM     15  C   UNL d   1     -47.374  12.841  23.089  0.00  0.00     0.000 A 
ATOM     16  C   UNL d   1     -46.659  13.148  23.320  0.00  0.00     0.000 C 
ATOM     17  C   UNL d   1     -47.842  12.434  23.637  0.00  0.00     0.000 A 
ATOM     18  C   UNL d   1     -48.577  12.122  23.390  0.00  0.00     0.000 A 
ATOM     19  C   UNL d   1     -48.833  12.213  22.627  0.00  0.00     0.005 A 
ENDBRANCH   2  13
TORSDOF 2
ENDMDL
MODEL 5
REMARK VINA RESULT:      -7.9      1.155      2.911
REMARK  2 active torsions:
REMARK  status: ('A' for Active; 'I' for Inactive)
REMARK    1  A    between atoms: N_3  and  C_1 
REMARK       I    between atoms: C_6  and  N_3 
REMARK    2  A    between atoms: C_8  and  C_6 
ROOT
ATOM      1  N   UNL d   1     -49.227  11.521  23.389  0.00  0.00    -0.183 NA
ATOM      2  C   UNL d   1     -48.410  11.445  23.179  0.00  0.00     0.281 C 
ATOM      3  O   UNL d   1     -48.009  10.750  23.347  0.00  0.00    -0.265 OA
ENDROOT
BRANCH   1   4
ATOM      4  C   UNL d   1     -49.626  12.214  23.221  0.00  0.00     0.197 A 
ATOM      5  N   UNL d   1     -49.663  12.876  23.698  0.00  0.00    -0.221 NA
ATOM      6  C   UNL d   1     -50.115  13.435  23.325  0.00  0.00     0.090 A 
ATOM      7  C   UNL d   1     -50.340  14.200  23.538  0.00  0.00     0.020 A 
ATOM      8  C   UNL d   1     -50.364  13.117  22.604  0.00  0.00     0.050 A 
ATOM      9  C   UNL d   1     -50.815  14.649  23.033  0.00  0.00     0.002 A 
ATOM     10  C   UNL d   1     -51.064  14.331  22.311  0.00  0.00     0.001 A 
ATOM     11  C   UNL d   1     -50.837  13.567  22.103  0.00  0.00     0.008 A 
ATOM     12  S   UNL d   1     -50.061  12.368  22.547  0.00  0.00    -0.047 SA
ENDBRANCH   1   4
BRANCH   2  13
ATOM     13  C   UNL d   1     -48.031  12.060  22.815  0.00  0.00     0.058 A 
ATOM     14  C   UNL d   1     -47.539  12.555  23.255  0.00  0.00     0.005 A 
ATOM     15  C   UNL d   1     -47.148  13.184  22.891  0.00  0.00     0.000 A 
ATOM     16  C   UNL d   1     -46.663  13.672  23.322  0.00  0.00     0.000 C 
ATOM     17  C   UNL d   1     -47.251  13.320  22.081  0.00  0.00     0.000 A 
ATOM     18  C   UNL d   1     -47.752  12.812  21.645  0.00  0.00     0.000 A 
ATOM     19  C   UNL d   1     -48.134  12.195  22.005  0.00  0.00     0.005 A 
ENDBRANCH   2  13
TORSDOF 2
ENDMDL
