MODEL 1
REMARK VINA RESULT:      17.5      0.000      0.000
REMARK  6 active torsions:
REMARK  status: ('A' for Active; 'I' for Inactive)
REMARK    1  A    between atoms: C_6  and  N_2 
REMARK    2  A    between atoms: C_7  and  C_3 
REMARK    3  A    between atoms: C_10  and  C_6 
REMARK    4  A    between atoms: C_15  and  C_7 
REMARK    5  A    between atoms: O_8  and  C_10 
REMARK    6  A    between atoms: C_9  and  O_8 
ROOT
ATOM      1  N   UNL d   1      46.295 -19.786  42.148  0.00  0.00    -0.227 NA
ATOM      2  N   UNL d   1      46.467 -18.711  42.925  0.00  0.00    -0.287 N 
ATOM      3  C   UNL d   1      46.373 -19.543  42.945  0.00  0.00     0.148 A 
ATOM      4  C   UNL d   1      46.448 -18.461  42.145  0.00  0.00     0.083 A 
ATOM      5  C   UNL d   1      46.337 -19.154  41.644  0.00  0.00     0.099 A 
ATOM      6  C   UNL d   1      46.513 -17.717  41.821  0.00  0.00     0.019 A 
ATOM      7  C   UNL d   1      46.303 -19.004  40.824  0.00  0.00     0.021 A 
ATOM      8  C   UNL d   1      46.471 -17.649  41.015  0.00  0.00     0.002 A 
ATOM      9  C   UNL d   1      46.367 -18.298  40.546  0.00  0.00     0.002 A 
ENDROOT
BRANCH   2  10
ATOM     10  C   UNL d   1      46.550 -18.377  43.646  0.00  0.00     0.108 C 
BRANCH  10  11
ATOM     11  C   UNL d   1      46.419 -17.580  43.779  0.00  0.00     0.142 C 
BRANCH  11  12
ATOM     12  O   UNL d   1      46.084 -17.291  44.466  0.00  0.00    -0.304 OA
BRANCH  12  13
ATOM     13  C   UNL d   1      45.809 -16.518  44.546  0.00  0.00     0.100 A 
ATOM     14  C   UNL d   1      45.022 -16.326  44.699  0.00  0.00     0.025 A 
ATOM     15  C   UNL d   1      44.748 -15.555  44.779  0.00  0.00     0.002 A 
ATOM     16  C   UNL d   1      45.296 -14.932  44.700  0.00  0.00     0.000 A 
ATOM     17  C   UNL d   1      46.101 -15.100  44.544  0.00  0.00     0.002 A 
ATOM     18  C   UNL d   1      46.357 -15.896  44.467  0.00  0.00     0.025 A 
ENDBRANCH  12  13
ENDBRANCH  11  12
ENDBRANCH  10  11
ENDBRANCH   2  10
BRANCH   3  19
ATOM     19  C   UNL d   1      46.414 -19.615  43.748  0.00  0.00     0.037 C 
BRANCH  19  20
ATOM     20  C   UNL d   1      45.957 -20.200  44.134  0.00  0.00     0.003 C 
ATOM     21  C   UNL d   1      46.036 -20.329  44.955  0.00  0.00     0.000 C 
ENDBRANCH  19  20
ENDBRANCH   3  19
TORSDOF 6
ENDMDL
MODEL 2
REMARK VINA RESULT:      18.8      0.736      2.359
REMARK  6 active torsions:
REMARK  status: ('A' for Active; 'I' for Inactive)
REMARK    1  A    between atoms: C_6  and  N_2 
REMARK    2  A    between atoms: C_7  and  C_3 
REMARK    3  A    between atoms: C_10  and  C_6 
REMARK    4  A    between atoms: C_15  and  C_7 
REMARK    5  A    between atoms: O_8  and  C_10 
REMARK    6  A    between atoms: C_9  and  O_8 
ROOT
ATOM      1  N   UNL d   1      46.278 -19.550  42.108  0.00  0.00    -0.227 NA
ATOM      2  N   UNL d   1      46.415 -18.342  42.666  0.00  0.00    -0.287 N 
ATOM      3  C   UNL d   1      46.297 -18.731  41.934  0.00  0.00     0.148 A 
ATOM      4  C   UNL d   1      46.465 -18.905  43.260  0.00  0.00     0.083 A 
ATOM      5  C   UNL d   1      46.377 -19.683  42.900  0.00  0.00     0.099 A 
ATOM      6  C   UNL d   1      46.576 -18.824  44.062  0.00  0.00     0.019 A 
ATOM      7  C   UNL d   1      46.413 -20.329  43.426  0.00  0.00     0.021 A 
ATOM      8  C   UNL d   1      46.601 -19.498  44.511  0.00  0.00     0.002 A 
ATOM      9  C   UNL d   1      46.518 -20.228  44.174  0.00  0.00     0.002 A 
ENDROOT
BRANCH   2  10
ATOM     10  C   UNL d   1      46.449 -17.546  42.608  0.00  0.00     0.108 C 
BRANCH  10  11
ATOM     11  C   UNL d   1      46.004 -17.051  43.084  0.00  0.00     0.142 C 
BRANCH  11  12
ATOM     12  O   UNL d   1      46.139 -16.248  43.143  0.00  0.00    -0.304 OA
BRANCH  12  13
ATOM     13  C   UNL d   1      45.805 -15.774  43.730  0.00  0.00     0.100 A 
ATOM     14  C   UNL d   1      45.378 -16.070  44.369  0.00  0.00     0.025 A 
ATOM     15  C   UNL d   1      45.045 -15.596  44.954  0.00  0.00     0.002 A 
ATOM     16  C   UNL d   1      45.145 -14.771  44.896  0.00  0.00     0.000 A 
ATOM     17  C   UNL d   1      45.575 -14.445  44.256  0.00  0.00     0.002 A 
ATOM     18  C   UNL d   1      45.906 -14.949  43.672  0.00  0.00     0.025 A 
ENDBRANCH  12  13
ENDBRANCH  11  12
ENDBRANCH  10  11
ENDBRANCH   2  10
BRANCH   3  19
ATOM     19  C   UNL d   1      46.272 -18.062  41.483  0.00  0.00     0.037 C 
BRANCH  19  20
ATOM     20  C   UNL d   1      46.135 -18.124  40.659  0.00  0.00     0.003 C 
ATOM     21  C   UNL d   1      45.827 -17.478  40.230  0.00  0.00     0.000 C 
ENDBRANCH  19  20
ENDBRANCH   3  19
TORSDOF 6
ENDMDL
