MODEL 1
REMARK VINA RESULT:      18.7      0.000      0.000
REMARK  2 active torsions:
REMARK  status: ('A' for Active; 'I' for Inactive)
REMARK    1  A    between atoms: C_7  and  C_1 
REMARK    2  A    between atoms: C_8  and  C_7 
ROOT
ATOM      1  C   UNL d   1      58.238  49.678  50.243  0.00  0.00     0.033 A 
ATOM      2  C   UNL d   1      59.566  49.700  50.192  0.00  0.00     0.100 A 
ATOM      3  C   UNL d   1      58.922  49.682  50.703  0.00  0.00     0.025 A 
ATOM      4  O   UNL d   1      59.281  49.707  49.417  0.00  0.00    -0.305 OA
ATOM      5  C   UNL d   1      58.458  49.693  49.453  0.00  0.00     0.123 A 
ATOM      6  C   UNL d   1      59.044  49.672  51.512  0.00  0.00     0.002 A 
ATOM      7  C   UNL d   1      60.342  49.707  50.487  0.00  0.00     0.025 A 
ATOM      8  C   UNL d   1      59.812  49.679  51.818  0.00  0.00     0.000 A 
ATOM      9  C   UNL d   1      60.463  49.697  51.304  0.00  0.00     0.002 A 
ATOM     10  C   UNL d   1      58.393  49.654  52.030  0.00  0.00     0.000 C 
ATOM     11  C   UNL d   1      61.230  49.704  51.609  0.00  0.00     0.000 C 
ENDROOT
BRANCH   1  12
ATOM     12  C   UNL d   1      57.467  49.662  50.533  0.00  0.00     0.072 C 
BRANCH  12  13
ATOM     13  C   UNL d   1      56.827  49.664  50.007  0.00  0.00     0.211 C 
ATOM     14  O   UNL d   1      56.049  49.651  50.300  0.00  0.00    -0.644 OA
ATOM     15  O   UNL d   1      56.961  49.679  49.194  0.00  0.00    -0.644 OA
ENDBRANCH  12  13
ENDBRANCH   1  12
TORSDOF 2
ENDMDL
MODEL 2
REMARK VINA RESULT:      21.6      1.481      3.071
REMARK  2 active torsions:
REMARK  status: ('A' for Active; 'I' for Inactive)
REMARK    1  A    between atoms: C_7  and  C_1 
REMARK    2  A    between atoms: C_8  and  C_7 
ROOT
ATOM      1  C   UNL d   1      60.084  49.657  51.019  0.00  0.00     0.033 A 
ATOM      2  C   UNL d   1      59.424  49.668  49.865  0.00  0.00     0.100 A 
ATOM      3  C   UNL d   1      59.331  49.669  50.683  0.00  0.00     0.025 A 
ATOM      4  O   UNL d   1      60.232  49.657  49.697  0.00  0.00    -0.305 OA
ATOM      5  C   UNL d   1      60.636  49.649  50.414  0.00  0.00     0.123 A 
ATOM      6  C   UNL d   1      58.580  49.680  51.007  0.00  0.00     0.002 A 
ATOM      7  C   UNL d   1      58.762  49.679  49.363  0.00  0.00     0.025 A 
ATOM      8  C   UNL d   1      57.914  49.690  50.517  0.00  0.00     0.000 A 
ATOM      9  C   UNL d   1      58.006  49.690  49.693  0.00  0.00     0.002 A 
ATOM     10  C   UNL d   1      58.485  49.680  51.833  0.00  0.00     0.000 C 
ATOM     11  C   UNL d   1      57.340  49.701  49.204  0.00  0.00     0.000 C 
ENDROOT
BRANCH   1  12
ATOM     12  C   UNL d   1      60.246  49.653  51.827  0.00  0.00     0.072 C 
BRANCH  12  13
ATOM     13  C   UNL d   1      60.967  49.356  52.104  0.00  0.00     0.211 C 
ATOM     14  O   UNL d   1      61.335  49.704  52.762  0.00  0.00    -0.644 OA
ATOM     15  O   UNL d   1      61.320  48.713  51.725  0.00  0.00    -0.644 OA
ENDBRANCH  12  13
ENDBRANCH   1  12
TORSDOF 2
ENDMDL
