MODEL 1
REMARK VINA RESULT:      71.8      0.000      0.000
REMARK  4 active torsions:
REMARK  status: ('A' for Active; 'I' for Inactive)
REMARK    1  A    between atoms: N_5  and  C_1 
REMARK    2  A    between atoms: N_8  and  C_3 
REMARK    3  A    between atoms: C_13  and  N_8 
REMARK    4  A    between atoms: C_12  and  C_13 
ROOT
ATOM      1  C   UNL d   1     -58.447 -98.847 -44.450  0.00  0.00     0.200 A 
ATOM      2  C   UNL d   1     -57.903 -98.893 -43.833  0.00  0.00     0.288 A 
ATOM      3  C   UNL d   1     -58.189 -98.805 -45.241  0.00  0.00     0.109 A 
ATOM      4  N   UNL d   1     -57.090 -98.898 -44.004  0.00  0.00    -0.270 N 
ATOM      5  C   UNL d   1     -57.374 -98.810 -45.403  0.00  0.00     0.036 A 
ATOM      6  C   UNL d   1     -56.827 -98.857 -44.785  0.00  0.00     0.069 A 
ATOM      7  O   UNL d   1     -58.166 -98.935 -43.053  0.00  0.00    -0.265 OA
ATOM      8  C   UNL d   1     -56.546 -98.945 -43.388  0.00  0.00     0.102 C 
ATOM      9  C   UNL d   1     -57.111 -98.769 -46.184  0.00  0.00     0.003 A 
ATOM     10  C   UNL d   1     -56.020 -98.862 -44.950  0.00  0.00     0.018 A 
ATOM     11  C   UNL d   1     -56.301 -98.774 -46.347  0.00  0.00     0.000 A 
ATOM     12  C   UNL d   1     -55.757 -98.821 -45.730  0.00  0.00     0.002 A 
ENDROOT
BRANCH   3  13
ATOM     13  N   UNL d   1     -58.732 -98.758 -45.858  0.00  0.00    -0.242 NA
BRANCH  13  14
ATOM     14  C   UNL d   1     -58.962 -99.441 -46.259  0.00  0.00     0.100 C 
BRANCH  14  15
ATOM     15  C   UNL d   1     -59.141 -99.406 -47.062  0.00  0.00     0.030 A 
ATOM     16  C   UNL d   1     -59.633 -99.979 -47.393  0.00  0.00     0.059 A 
ATOM     17 CL   UNL d   1     -59.947-100.583 -46.929  0.00  0.00    -0.082 Cl
ATOM     18  C   UNL d   1     -59.812 -99.946 -48.196  0.00  0.00     0.011 A 
ATOM     19  C   UNL d   1     -59.498 -99.339 -48.668  0.00  0.00     0.001 A 
ATOM     20  C   UNL d   1     -59.006 -98.769 -48.330  0.00  0.00     0.000 A 
ATOM     21  C   UNL d   1     -58.828 -98.804 -47.526  0.00  0.00     0.002 A 
ENDBRANCH  14  15
ENDBRANCH  13  14
ENDBRANCH   3  13
BRANCH   1  22
ATOM     22  N   UNL d   1     -59.261 -98.841 -44.287  0.00  0.00    -0.107 N 
ATOM     23  O   UNL d   1     -59.523 -98.868 -43.507  0.00  0.00    -0.531 OA
ATOM     24  O   UNL d   1     -59.809 -98.808 -44.906  0.00  0.00    -0.531 OA
ENDBRANCH   1  22
TORSDOF 4
ENDMDL
MODEL 2
REMARK VINA RESULT:      72.7      1.522      3.578
REMARK  4 active torsions:
REMARK  status: ('A' for Active; 'I' for Inactive)
REMARK    1  A    between atoms: N_5  and  C_1 
REMARK    2  A    between atoms: N_8  and  C_3 
REMARK    3  A    between atoms: C_13  and  N_8 
REMARK    4  A    between atoms: C_12  and  C_13 
ROOT
ATOM      1  C   UNL d   1     -58.439 -99.107 -44.423  0.00  0.00     0.200 A 
ATOM      2  C   UNL d   1     -59.177 -99.082 -44.789  0.00  0.00     0.288 A 
ATOM      3  C   UNL d   1     -57.740 -99.040 -44.871  0.00  0.00     0.109 A 
ATOM      4  N   UNL d   1     -59.220 -98.987 -45.613  0.00  0.00    -0.270 N 
ATOM      5  C   UNL d   1     -57.793 -98.946 -45.695  0.00  0.00     0.036 A 
ATOM      6  C   UNL d   1     -58.533 -98.920 -46.063  0.00  0.00     0.069 A 
ATOM      7  O   UNL d   1     -59.864 -99.149 -44.339  0.00  0.00    -0.265 OA
ATOM      8  C   UNL d   1     -59.957 -98.961 -45.980  0.00  0.00     0.102 C 
ATOM      9  C   UNL d   1     -57.105 -98.878 -46.145  0.00  0.00     0.003 A 
ATOM     10  C   UNL d   1     -58.581 -98.826 -46.881  0.00  0.00     0.018 A 
ATOM     11  C   UNL d   1     -57.157 -98.785 -46.964  0.00  0.00     0.000 A 
ATOM     12  C   UNL d   1     -57.893 -98.759 -47.331  0.00  0.00     0.002 A 
ENDROOT
BRANCH   3  13
ATOM     13  N   UNL d   1     -57.003 -99.066 -44.505  0.00  0.00    -0.242 NA
BRANCH  13  14
ATOM     14  C   UNL d   1     -56.370 -99.442 -44.876  0.00  0.00     0.100 C 
BRANCH  14  15
ATOM     15  C   UNL d   1     -55.847 -99.901 -44.435  0.00  0.00     0.030 A 
ATOM     16  C   UNL d   1     -55.235-100.300 -44.818  0.00  0.00     0.059 A 
ATOM     17 CL   UNL d   1     -55.142-100.242 -45.635  0.00  0.00    -0.082 Cl
ATOM     18  C   UNL d   1     -54.712-100.759 -44.379  0.00  0.00     0.011 A 
ATOM     19  C   UNL d   1     -54.802-100.820 -43.555  0.00  0.00     0.001 A 
ATOM     20  C   UNL d   1     -55.417-100.418 -43.179  0.00  0.00     0.000 A 
ATOM     21  C   UNL d   1     -55.940 -99.959 -43.620  0.00  0.00     0.002 A 
ENDBRANCH  14  15
ENDBRANCH  13  14
ENDBRANCH   3  13
BRANCH   1  22
ATOM     22  N   UNL d   1     -58.386 -99.201 -43.600  0.00  0.00    -0.107 N 
ATOM     23  O   UNL d   1     -58.883 -99.735 -43.215  0.00  0.00    -0.531 OA
ATOM     24  O   UNL d   1     -57.837 -98.761 -43.164  0.00  0.00    -0.531 OA
ENDBRANCH   1  22
TORSDOF 4
ENDMDL
MODEL 3
REMARK VINA RESULT:      72.8      3.524      5.599
REMARK  4 active torsions:
REMARK  status: ('A' for Active; 'I' for Inactive)
REMARK    1  A    between atoms: N_5  and  C_1 
REMARK    2  A    between atoms: N_8  and  C_3 
REMARK    3  A    between atoms: C_13  and  N_8 
REMARK    4  A    between atoms: C_12  and  C_13 
ROOT
ATOM      1  C   UNL d   1     -55.613-100.008 -43.926  0.00  0.00     0.200 A 
ATOM      2  C   UNL d   1     -55.558 -99.716 -44.694  0.00  0.00     0.288 A 
ATOM      3  C   UNL d   1     -55.430-100.804 -43.760  0.00  0.00     0.109 A 
ATOM      4  N   UNL d   1     -55.317-100.222 -45.307  0.00  0.00    -0.270 N 
ATOM      5  C   UNL d   1     -55.190-101.303 -44.380  0.00  0.00     0.036 A 
ATOM      6  C   UNL d   1     -55.135-101.011 -45.151  0.00  0.00     0.069 A 
ATOM      7  O   UNL d   1     -55.740 -98.928 -44.850  0.00  0.00    -0.265 OA
ATOM      8  C   UNL d   1     -55.262 -99.931 -46.076  0.00  0.00     0.102 C 
ATOM      9  C   UNL d   1     -55.008-102.092 -44.223  0.00  0.00     0.003 A 
ATOM     10  C   UNL d   1     -54.897-101.509 -45.763  0.00  0.00     0.018 A 
ATOM     11  C   UNL d   1     -54.769-102.589 -44.838  0.00  0.00     0.000 A 
ATOM     12  C   UNL d   1     -54.714-102.298 -45.607  0.00  0.00     0.002 A 
ENDROOT
BRANCH   3  13
ATOM     13  N   UNL d   1     -55.485-101.096 -42.993  0.00  0.00    -0.242 NA
BRANCH  13  14
ATOM     14  C   UNL d   1     -54.821-101.104 -42.504  0.00  0.00     0.100 C 
BRANCH  14  15
ATOM     15  C   UNL d   1     -54.814-101.568 -41.824  0.00  0.00     0.030 A 
ATOM     16  C   UNL d   1     -54.760-101.206 -41.085  0.00  0.00     0.059 A 
ATOM     17 CL   UNL d   1     -54.712-100.386 -41.022  0.00  0.00    -0.082 Cl
ATOM     18  C   UNL d   1     -54.753-101.670 -40.405  0.00  0.00     0.011 A 
ATOM     19  C   UNL d   1     -54.801-102.497 -40.465  0.00  0.00     0.001 A 
ATOM     20  C   UNL d   1     -54.855-102.852 -41.207  0.00  0.00     0.000 A 
ATOM     21  C   UNL d   1     -54.862-102.387 -41.887  0.00  0.00     0.002 A 
ENDBRANCH  14  15
ENDBRANCH  13  14
ENDBRANCH   3  13
BRANCH   1  22
ATOM     22  N   UNL d   1     -55.853 -99.509 -43.307  0.00  0.00    -0.107 N 
ATOM     23  O   UNL d   1     -56.639 -99.511 -43.060  0.00  0.00    -0.531 OA
ATOM     24  O   UNL d   1     -55.305 -99.011 -42.938  0.00  0.00    -0.531 OA
ENDBRANCH   1  22
TORSDOF 4
ENDMDL
MODEL 4
REMARK VINA RESULT:      74.2      4.174      5.757
REMARK  4 active torsions:
REMARK  status: ('A' for Active; 'I' for Inactive)
REMARK    1  A    between atoms: N_5  and  C_1 
REMARK    2  A    between atoms: N_8  and  C_3 
REMARK    3  A    between atoms: C_13  and  N_8 
REMARK    4  A    between atoms: C_12  and  C_13 
ROOT
ATOM      1  C   UNL d   1     -55.066-101.528 -44.414  0.00  0.00     0.200 A 
ATOM      2  C   UNL d   1     -54.970-101.037 -45.069  0.00  0.00     0.288 A 
ATOM      3  C   UNL d   1     -55.053-101.213 -43.643  0.00  0.00     0.109 A 
ATOM      4  N   UNL d   1     -54.861-100.222 -44.957  0.00  0.00    -0.270 N 
ATOM      5  C   UNL d   1     -54.943-100.396 -43.540  0.00  0.00     0.036 A 
ATOM      6  C   UNL d   1     -54.847 -99.903 -44.196  0.00  0.00     0.069 A 
ATOM      7  O   UNL d   1     -54.984-101.356 -45.829  0.00  0.00    -0.265 OA
ATOM      8  C   UNL d   1     -54.765 -99.731 -45.611  0.00  0.00     0.102 C 
ATOM      9  C   UNL d   1     -54.929-100.077 -42.779  0.00  0.00     0.003 A 
ATOM     10  C   UNL d   1     -54.738 -99.093 -44.090  0.00  0.00     0.018 A 
ATOM     11  C   UNL d   1     -54.820 -99.265 -42.674  0.00  0.00     0.000 A 
ATOM     12  C   UNL d   1     -54.724 -98.774 -43.329  0.00  0.00     0.002 A 
ENDROOT
BRANCH   3  13
ATOM     13  N   UNL d   1     -55.149-101.703 -42.988  0.00  0.00    -0.242 NA
BRANCH  13  14
ATOM     14  C   UNL d   1     -54.908-101.447 -42.242  0.00  0.00     0.100 C 
BRANCH  14  15
ATOM     15  C   UNL d   1     -55.182-101.830 -41.567  0.00  0.00     0.030 A 
ATOM     16  C   UNL d   1     -55.750-102.425 -41.640  0.00  0.00     0.059 A 
ATOM     17 CL   UNL d   1     -56.044-102.636 -42.380  0.00  0.00    -0.082 Cl
ATOM     18  C   UNL d   1     -56.025-102.809 -40.966  0.00  0.00     0.011 A 
ATOM     19  C   UNL d   1     -55.731-102.599 -40.217  0.00  0.00     0.001 A 
ATOM     20  C   UNL d   1     -55.164-102.003 -40.152  0.00  0.00     0.000 A 
ATOM     21  C   UNL d   1     -54.890-101.620 -40.827  0.00  0.00     0.002 A 
ENDBRANCH  14  15
ENDBRANCH  13  14
ENDBRANCH   3  13
BRANCH   1  22
ATOM     22  N   UNL d   1     -55.176-102.344 -44.518  0.00  0.00    -0.107 N 
ATOM     23  O   UNL d   1     -54.740-102.877 -44.066  0.00  0.00    -0.531 OA
ATOM     24  O   UNL d   1     -55.722-102.623 -45.073  0.00  0.00    -0.531 OA
ENDBRANCH   1  22
TORSDOF 4
ENDMDL
