MODEL 1
REMARK VINA RESULT:      -6.1      0.000      0.000
REMARK  2 active torsions:
REMARK  status: ('A' for Active; 'I' for Inactive)
REMARK    1  A    between atoms: C_6  and  C_3 
REMARK    2  A    between atoms: C_9  and  C_6 
ROOT
ATOM      1  N   UNL d   1     -48.589  13.756  23.008  0.00  0.00    -0.225 NA
ATOM      2  N   UNL d   1     -47.877  14.848  22.704  0.00  0.00    -0.225 NA
ATOM      3  C   UNL d   1     -48.636  14.558  22.831  0.00  0.00     0.163 A 
ATOM      4  C   UNL d   1     -47.812  13.549  22.992  0.00  0.00     0.101 A 
ATOM      5  C   UNL d   1     -47.365  14.235  22.801  0.00  0.00     0.101 A 
ATOM      6  C   UNL d   1     -47.431  12.843  23.121  0.00  0.00     0.021 A 
ATOM      7  C   UNL d   1     -46.556  14.185  22.747  0.00  0.00     0.021 A 
ATOM      8  C   UNL d   1     -46.602  12.781  23.068  0.00  0.00     0.002 A 
ATOM      9  C   UNL d   1     -46.155  13.468  22.877  0.00  0.00     0.002 A 
ENDROOT
BRANCH   3  10
ATOM     10  C   UNL d   1     -49.331  15.000  22.787  0.00  0.00     0.039 C 
BRANCH  10  11
ATOM     11  C   UNL d   1     -49.633  15.373  23.452  0.00  0.00     0.003 C 
ATOM     12  C   UNL d   1     -50.356  15.769  23.421  0.00  0.00     0.000 C 
ENDBRANCH  10  11
ENDBRANCH   3  10
TORSDOF 2
ENDMDL
MODEL 2
REMARK VINA RESULT:      -5.9      1.571      2.164
REMARK  2 active torsions:
REMARK  status: ('A' for Active; 'I' for Inactive)
REMARK    1  A    between atoms: C_6  and  C_3 
REMARK    2  A    between atoms: C_9  and  C_6 
ROOT
ATOM      1  N   UNL d   1     -48.628  13.277  22.860  0.00  0.00    -0.225 NA
ATOM      2  N   UNL d   1     -48.048  12.120  23.203  0.00  0.00    -0.225 NA
ATOM      3  C   UNL d   1     -48.765  12.483  23.028  0.00  0.00     0.163 A 
ATOM      4  C   UNL d   1     -47.837  13.407  22.929  0.00  0.00     0.101 A 
ATOM      5  C   UNL d   1     -47.473  12.680  23.144  0.00  0.00     0.101 A 
ATOM      6  C   UNL d   1     -47.381  14.072  22.830  0.00  0.00     0.021 A 
ATOM      7  C   UNL d   1     -46.668  12.650  23.251  0.00  0.00     0.021 A 
ATOM      8  C   UNL d   1     -46.555  14.052  22.938  0.00  0.00     0.002 A 
ATOM      9  C   UNL d   1     -46.191  13.325  23.153  0.00  0.00     0.002 A 
ENDROOT
BRANCH   3  10
ATOM     10  C   UNL d   1     -49.502  12.113  23.023  0.00  0.00     0.039 C 
BRANCH  10  11
ATOM     11  C   UNL d   1     -49.967  12.096  23.698  0.00  0.00     0.003 C 
ATOM     12  C   UNL d   1     -50.736  11.798  23.672  0.00  0.00     0.000 C 
ENDBRANCH  10  11
ENDBRANCH   3  10
TORSDOF 2
ENDMDL
MODEL 3
REMARK VINA RESULT:      -5.8      1.852      3.195
REMARK  2 active torsions:
REMARK  status: ('A' for Active; 'I' for Inactive)
REMARK    1  A    between atoms: C_6  and  C_3 
REMARK    2  A    between atoms: C_9  and  C_6 
ROOT
ATOM      1  N   UNL d   1     -48.345  12.843  22.223  0.00  0.00    -0.225 NA
ATOM      2  N   UNL d   1     -48.029  12.276  23.394  0.00  0.00    -0.225 NA
ATOM      3  C   UNL d   1     -47.732  12.698  22.754  0.00  0.00     0.163 A 
ATOM      4  C   UNL d   1     -49.013  12.516  22.529  0.00  0.00     0.101 A 
ATOM      5  C   UNL d   1     -48.814  12.160  23.264  0.00  0.00     0.101 A 
ATOM      6  C   UNL d   1     -49.779  12.482  22.258  0.00  0.00     0.021 A 
ATOM      7  C   UNL d   1     -49.390  11.785  23.698  0.00  0.00     0.021 A 
ATOM      8  C   UNL d   1     -50.376  12.100  22.695  0.00  0.00     0.002 A 
ATOM      9  C   UNL d   1     -50.178  11.743  23.430  0.00  0.00     0.002 A 
ENDROOT
BRANCH   3  10
ATOM     10  C   UNL d   1     -46.949  12.937  22.658  0.00  0.00     0.039 C 
BRANCH  10  11
ATOM     11  C   UNL d   1     -46.713  13.694  22.867  0.00  0.00     0.003 C 
ATOM     12  C   UNL d   1     -45.947  13.956  22.709  0.00  0.00     0.000 C 
ENDBRANCH  10  11
ENDBRANCH   3  10
TORSDOF 2
ENDMDL
MODEL 4
REMARK VINA RESULT:      -5.8      0.749      2.973
REMARK  2 active torsions:
REMARK  status: ('A' for Active; 'I' for Inactive)
REMARK    1  A    between atoms: C_6  and  C_3 
REMARK    2  A    between atoms: C_9  and  C_6 
ROOT
ATOM      1  N   UNL d   1     -47.937  13.620  23.059  0.00  0.00    -0.225 NA
ATOM      2  N   UNL d   1     -47.589  14.842  22.636  0.00  0.00    -0.225 NA
ATOM      3  C   UNL d   1     -47.302  14.105  22.863  0.00  0.00     0.163 A 
ATOM      4  C   UNL d   1     -48.610  14.048  22.957  0.00  0.00     0.101 A 
ATOM      5  C   UNL d   1     -48.392  14.816  22.691  0.00  0.00     0.101 A 
ATOM      6  C   UNL d   1     -49.396  13.867  23.062  0.00  0.00     0.021 A 
ATOM      7  C   UNL d   1     -48.968  15.369  22.542  0.00  0.00     0.021 A 
ATOM      8  C   UNL d   1     -49.994  14.427  22.912  0.00  0.00     0.002 A 
ATOM      9  C   UNL d   1     -49.775  15.194  22.646  0.00  0.00     0.002 A 
ENDROOT
BRANCH   3  10
ATOM     10  C   UNL d   1     -46.507  13.888  22.889  0.00  0.00     0.039 C 
BRANCH  10  11
ATOM     11  C   UNL d   1     -46.187  13.400  22.312  0.00  0.00     0.003 C 
ATOM     12  C   UNL d   1     -45.373  13.269  22.275  0.00  0.00     0.000 C 
ENDBRANCH  10  11
ENDBRANCH   3  10
TORSDOF 2
ENDMDL
