MODEL 1
REMARK VINA RESULT:      28.6      0.000      0.000
REMARK  4 active torsions:
REMARK  status: ('A' for Active; 'I' for Inactive)
REMARK    1  A    between atoms: C_7  and  C_5 
REMARK    2  A    between atoms: C_8  and  C_7 
REMARK    3  A    between atoms: C_10  and  C_8 
REMARK    4  A    between atoms: O_18  and  C_11 
ROOT
ATOM      1  C   UNL d   1     -58.165 -98.841 -43.539  0.00  0.00     0.303 A 
ATOM      2  N   UNL d   1     -57.328 -98.785 -44.964  0.00  0.00    -0.222 NA
ATOM      3  O   UNL d   1     -57.338 -98.842 -43.534  0.00  0.00    -0.255 OA
ATOM      4  C   UNL d   1     -58.573 -98.812 -44.258  0.00  0.00     0.081 A 
ATOM      5  C   UNL d   1     -56.923 -98.814 -44.242  0.00  0.00     0.186 A 
ATOM      6  C   UNL d   1     -58.157 -98.785 -44.965  0.00  0.00     0.089 A 
ATOM      7  O   UNL d   1     -58.584 -98.869 -42.824  0.00  0.00    -0.259 OA
ATOM      8  C   UNL d   1     -59.393 -98.812 -44.259  0.00  0.00     0.007 A 
ATOM      9  C   UNL d   1     -58.557 -98.756 -45.684  0.00  0.00     0.019 A 
ATOM     10  C   UNL d   1     -59.800 -98.783 -44.977  0.00  0.00     0.000 A 
ATOM     11  C   UNL d   1     -59.385 -98.755 -45.685  0.00  0.00     0.002 A 
ENDROOT
BRANCH   5  12
ATOM     12  C   UNL d   1     -56.076 -98.814 -44.248  0.00  0.00     0.045 C 
BRANCH  12  13
ATOM     13  C   UNL d   1     -55.668 -99.342 -43.763  0.00  0.00     0.004 C 
BRANCH  13  14
ATOM     14  C   UNL d   1     -55.430-100.077 -44.054  0.00  0.00     0.000 A 
ATOM     15  C   UNL d   1     -55.381-100.205 -44.863  0.00  0.00     0.002 A 
ATOM     16  C   UNL d   1     -55.143-100.939 -45.154  0.00  0.00     0.024 A 
ATOM     17  C   UNL d   1     -54.953-101.549 -44.626  0.00  0.00     0.094 A 
ATOM     18  C   UNL d   1     -55.002-101.419 -43.812  0.00  0.00     0.024 A 
ATOM     19  C   UNL d   1     -55.240-100.687 -43.526  0.00  0.00     0.002 A 
BRANCH  17  20
ATOM     20  O   UNL d   1     -54.711-102.294 -44.927  0.00  0.00    -0.328 OA
ATOM     21  C   UNL d   1     -55.267-102.862 -45.136  0.00  0.00     0.181 C 
ENDBRANCH  17  20
ENDBRANCH  13  14
ENDBRANCH  12  13
ENDBRANCH   5  12
TORSDOF 4
ENDMDL
