MODEL 1
REMARK VINA RESULT:      18.7      0.000      0.000
REMARK  5 active torsions:
REMARK  status: ('A' for Active; 'I' for Inactive)
REMARK    1  A    between atoms: N_5  and  C_1 
REMARK    2  A    between atoms: N_6  and  C_1 
REMARK       I    between atoms: C_2  and  N_3 
REMARK    3  A    between atoms: C_4  and  C_2 
REMARK    4  A    between atoms: N_3  and  N_5 
REMARK    5  A    between atoms: C_10  and  N_6 
ROOT
ATOM      1  C   UNL d   1     -56.954 -98.846 -44.934  0.00  0.00     0.272 C 
ATOM      2  N   UNL d   1     -56.355 -98.756 -44.381  0.00  0.00    -0.264 N 
ATOM      3  O   UNL d   1     -56.779 -98.967 -45.723  0.00  0.00    -0.266 OA
ATOM      4  H   UNL d   1     -56.550 -98.633 -43.578  0.00  0.00     0.190 HD
ENDROOT
BRANCH   2   5
ATOM      5  N   UNL d   1     -55.579 -98.785 -44.609  0.00  0.00    -0.274 N 
ATOM      6  H   UNL d   1     -55.276 -98.210 -45.131  0.00  0.00     0.189 HD
BRANCH   5   7
ATOM      7  C   UNL d   1     -55.091 -99.386 -44.321  0.00  0.00     0.187 C 
ATOM      8  S   UNL d   1     -54.838 -99.378 -43.538  0.00  0.00    -0.040 SA
BRANCH   7   9
ATOM      9  N   UNL d   1     -54.862 -99.990 -44.827  0.00  0.00    -0.354 N 
ATOM     10  H   UNL d   1     -54.709 -99.826 -45.613  0.00  0.00     0.162 HD
BRANCH   9  11
ATOM     11  C   UNL d   1     -54.789-100.757 -44.529  0.00  0.00     0.063 C 
ATOM     12  C   UNL d   1     -54.716-101.519 -44.221  0.00  0.00     0.022 C 
ATOM     13  C   UNL d   1     -54.865-101.071 -45.280  0.00  0.00     0.022 C 
ATOM     14  C   UNL d   1     -54.711-100.445 -43.758  0.00  0.00     0.022 C 
ENDBRANCH   9  11
ENDBRANCH   7   9
ENDBRANCH   5   7
ENDBRANCH   2   5
BRANCH   1  15
ATOM     15  C   UNL d   1     -57.743 -98.816 -44.696  0.00  0.00     0.058 A 
ATOM     16  C   UNL d   1     -58.348 -98.804 -45.272  0.00  0.00     0.011 A 
ATOM     17  C   UNL d   1     -59.123 -98.774 -45.031  0.00  0.00     0.035 A 
ATOM     18 BR   UNL d   1     -59.709 -98.763 -45.585  0.00  0.00    -0.049 Br
ATOM     19  C   UNL d   1     -59.316 -98.755 -44.232  0.00  0.00     0.007 A 
ATOM     20  C   UNL d   1     -58.724 -98.766 -43.648  0.00  0.00     0.001 A 
ATOM     21  C   UNL d   1     -57.937 -98.796 -43.897  0.00  0.00     0.005 A 
ENDBRANCH   1  15
TORSDOF 5
ENDMDL
