MODEL 1
REMARK VINA RESULT:       0.4      0.000      0.000
REMARK  5 active torsions:
REMARK  status: ('A' for Active; 'I' for Inactive)
REMARK    1  A    between atoms: O_5  and  C_1 
REMARK    2  A    between atoms: C_10  and  C_2 
REMARK    3  A    between atoms: C_3  and  O_5 
REMARK    4  A    between atoms: C_6  and  C_3 
REMARK    5  A    between atoms: N_11  and  C_10 
ROOT
ATOM      1  C   UNL d   1      57.555  -0.517  31.678  0.00  0.00     0.122 A 
ATOM      2  C   UNL d   1      57.893   0.186  31.946  0.00  0.00     0.043 A 
ATOM      3  C   UNL d   1      56.906  -0.838  32.075  0.00  0.00     0.105 A 
ATOM      4  C   UNL d   1      56.597  -0.458  32.737  0.00  0.00     0.030 A 
ATOM      5  C   UNL d   1      56.940   0.241  32.997  0.00  0.00     0.059 A 
ATOM      6  C   UNL d   1      57.584   0.566  32.609  0.00  0.00     0.015 A 
ATOM      7  N   UNL d   1      56.573  -1.535  31.806  0.00  0.00    -0.242 NA
ATOM      8 CL   UNL d   1      56.609   0.608  33.670  0.00  0.00    -0.082 Cl
ATOM      9  C   UNL d   1      55.958  -0.778  33.124  0.00  0.00     0.004 A 
ATOM     10  C   UNL d   1      55.925  -1.857  32.202  0.00  0.00     0.099 A 
ATOM     11  C   UNL d   1      55.616  -1.476  32.864  0.00  0.00     0.021 A 
ENDROOT
BRANCH   1  12
ATOM     12  O   UNL d   1      57.827  -0.870  31.079  0.00  0.00    -0.271 OA
BRANCH  12  13
ATOM     13  C   UNL d   1      57.922  -0.762  30.126  0.00  0.00     0.301 C 
ATOM     14  O   UNL d   1      57.471   0.057  29.759  0.00  0.00    -0.259 OA
BRANCH  13  15
ATOM     15  C   UNL d   1      58.340  -1.307  29.672  0.00  0.00     0.074 A 
ATOM     16  C   UNL d   1      58.605  -1.096  28.912  0.00  0.00     0.063 A 
ATOM     17 CL   UNL d   1      58.470  -0.314  28.543  0.00  0.00    -0.082 Cl
ATOM     18  C   UNL d   1      59.029  -1.651  28.455  0.00  0.00     0.012 A 
ATOM     19  C   UNL d   1      59.188  -2.414  28.756  0.00  0.00     0.001 A 
ATOM     20  C   UNL d   1      58.922  -2.620  29.514  0.00  0.00     0.000 A 
ATOM     21  C   UNL d   1      58.499  -2.065  29.970  0.00  0.00     0.006 A 
ENDBRANCH  13  15
ENDBRANCH  12  13
ENDBRANCH   1  12
BRANCH   2  22
ATOM     22  C   UNL d   1      58.596   0.682  31.648  0.00  0.00     0.082 C 
BRANCH  22  23
ATOM     23  N   UNL d   1      59.300   0.678  32.070  0.00  0.00    -0.299 N 
ATOM     24  C   UNL d   1      59.283   0.681  32.887  0.00  0.00     0.107 A 
ATOM     25  C   UNL d   1      59.984   0.678  33.325  0.00  0.00     0.142 A 
ATOM     26  O   UNL d   1      60.698   0.673  32.929  0.00  0.00    -0.300 OA
ATOM     27  C   UNL d   1      60.718   0.670  32.100  0.00  0.00     0.142 A 
ATOM     28  C   UNL d   1      60.014   0.673  31.682  0.00  0.00     0.107 A 
ENDBRANCH  22  23
ENDBRANCH   2  22
TORSDOF 5
ENDMDL
MODEL 2
REMARK VINA RESULT:       2.0      1.529      4.001
REMARK  5 active torsions:
REMARK  status: ('A' for Active; 'I' for Inactive)
REMARK    1  A    between atoms: O_5  and  C_1 
REMARK    2  A    between atoms: C_10  and  C_2 
REMARK    3  A    between atoms: C_3  and  O_5 
REMARK    4  A    between atoms: C_6  and  C_3 
REMARK    5  A    between atoms: N_11  and  C_10 
ROOT
ATOM      1  C   UNL d   1      58.120   0.400  31.909  0.00  0.00     0.122 A 
ATOM      2  C   UNL d   1      58.416   0.397  31.139  0.00  0.00     0.043 A 
ATOM      3  C   UNL d   1      58.634   0.494  32.547  0.00  0.00     0.105 A 
ATOM      4  C   UNL d   1      59.442   0.585  32.416  0.00  0.00     0.030 A 
ATOM      5  C   UNL d   1      59.729   0.581  31.648  0.00  0.00     0.059 A 
ATOM      6  C   UNL d   1      59.224   0.488  31.008  0.00  0.00     0.015 A 
ATOM      7  N   UNL d   1      58.336   0.497  33.309  0.00  0.00    -0.242 NA
ATOM      8 CL   UNL d   1      60.552   0.675  31.539  0.00  0.00    -0.082 Cl
ATOM      9  C   UNL d   1      59.945   0.678  33.048  0.00  0.00     0.004 A 
ATOM     10  C   UNL d   1      58.850   0.591  33.947  0.00  0.00     0.099 A 
ATOM     11  C   UNL d   1      59.659   0.682  33.816  0.00  0.00     0.021 A 
ENDROOT
BRANCH   1  12
ATOM     12  O   UNL d   1      57.389   0.319  32.039  0.00  0.00    -0.271 OA
BRANCH  12  13
ATOM     13  C   UNL d   1      56.727  -0.367  32.188  0.00  0.00     0.301 C 
ATOM     14  O   UNL d   1      56.918  -1.231  31.714  0.00  0.00    -0.259 OA
BRANCH  13  15
ATOM     15  C   UNL d   1      56.071  -0.232  32.668  0.00  0.00     0.074 A 
ATOM     16  C   UNL d   1      55.682  -0.874  33.026  0.00  0.00     0.063 A 
ATOM     17 CL   UNL d   1      55.921  -1.710  32.931  0.00  0.00    -0.082 Cl
ATOM     18  C   UNL d   1      55.018  -0.734  33.511  0.00  0.00     0.012 A 
ATOM     19  C   UNL d   1      54.743   0.045  33.638  0.00  0.00     0.001 A 
ATOM     20  C   UNL d   1      55.134   0.682  33.279  0.00  0.00     0.000 A 
ATOM     21  C   UNL d   1      55.798   0.541  32.795  0.00  0.00     0.006 A 
ENDBRANCH  13  15
ENDBRANCH  12  13
ENDBRANCH   1  12
BRANCH   2  22
ATOM     22  C   UNL d   1      58.015   0.308  30.327  0.00  0.00     0.082 C 
BRANCH  22  23
ATOM     23  N   UNL d   1      58.414  -0.071  29.719  0.00  0.00    -0.299 N 
ATOM     24  C   UNL d   1      58.302  -0.871  29.598  0.00  0.00     0.107 A 
ATOM     25  C   UNL d   1      58.698  -1.267  28.989  0.00  0.00     0.142 A 
ATOM     26  O   UNL d   1      59.205  -0.846  28.508  0.00  0.00    -0.300 OA
ATOM     27  C   UNL d   1      59.321  -0.034  28.629  0.00  0.00     0.142 A 
ATOM     28  C   UNL d   1      58.921   0.343  29.236  0.00  0.00     0.107 A 
ENDBRANCH  22  23
ENDBRANCH   2  22
TORSDOF 5
ENDMDL
