MODEL 1
REMARK VINA RESULT:      43.3      0.000      0.000
REMARK  3 active torsions:
REMARK  status: ('A' for Active; 'I' for Inactive)
REMARK    1  A    between atoms: C_8  and  C_1 
REMARK    2  A    between atoms: N_7  and  C_8 
REMARK    3  A    between atoms: C_13  and  C_8 
ROOT
ATOM      1  C   UNL d   1      14.367  13.324  -1.764  0.00  0.00     0.075 C 
ENDROOT
BRANCH   1   2
ATOM      2  N   UNL d   1      14.499  14.132  -1.692  0.00  0.00    -0.303 N 
ATOM      3  C   UNL d   1      14.699  14.459  -0.969  0.00  0.00     0.080 A 
ATOM      4  C   UNL d   1      14.829  15.272  -0.905  0.00  0.00     0.018 A 
ATOM      5  C   UNL d   1      15.030  15.600  -0.181  0.00  0.00     0.002 C 
ATOM      6  C   UNL d   1      14.760  15.760  -1.567  0.00  0.00     0.003 A 
ATOM      7  C   UNL d   1      14.558  15.418  -2.289  0.00  0.00     0.019 A 
ATOM      8  C   UNL d   1      14.427  14.607  -2.357  0.00  0.00     0.080 A 
ENDBRANCH   1   2
BRANCH   1   9
ATOM      9  C   UNL d   1      13.986  13.036  -2.437  0.00  0.00     0.106 A 
ATOM     10  C   UNL d   1      13.544  12.333  -2.486  0.00  0.00     0.290 A 
ATOM     11  N   UNL d   1      13.265  12.260  -3.256  0.00  0.00    -0.169 N 
ATOM     12  O   UNL d   1      13.411  11.803  -1.866  0.00  0.00    -0.265 OA
ATOM     13  N   UNL d   1      12.825  11.790  -3.762  0.00  0.00    -0.138 NA
ATOM     14  C   UNL d   1      13.531  12.912  -3.685  0.00  0.00     0.200 A 
ATOM     15  C   UNL d   1      12.815  12.145  -4.504  0.00  0.00     0.222 A 
ATOM     16  N   UNL d   1      13.252  12.840  -4.456  0.00  0.00    -0.197 NA
ATOM     17  S   UNL d   1      13.974  13.389  -3.184  0.00  0.00    -0.042 SA
ENDBRANCH   1   9
BRANCH   1  18
ATOM     18  C   UNL d   1      14.608  12.808  -1.177  0.00  0.00     0.017 A 
ATOM     19  C   UNL d   1      14.061  12.472  -0.680  0.00  0.00     0.002 A 
ATOM     20  C   UNL d   1      14.307  11.965  -0.106  0.00  0.00     0.000 A 
ATOM     21  C   UNL d   1      15.118  11.779  -0.014  0.00  0.00     0.000 A 
ATOM     22  C   UNL d   1      15.653  12.115  -0.510  0.00  0.00     0.000 A 
ATOM     23  C   UNL d   1      15.413  12.636  -1.103  0.00  0.00     0.002 A 
ENDBRANCH   1  18
TORSDOF 3
ENDMDL
MODEL 2
REMARK VINA RESULT:      44.8      1.452      3.316
REMARK  3 active torsions:
REMARK  status: ('A' for Active; 'I' for Inactive)
REMARK    1  A    between atoms: C_8  and  C_1 
REMARK    2  A    between atoms: N_7  and  C_8 
REMARK    3  A    between atoms: C_13  and  C_8 
ROOT
ATOM      1  C   UNL d   1      14.022  12.980  -2.746  0.00  0.00     0.075 C 
ENDROOT
BRANCH   1   2
ATOM      2  N   UNL d   1      14.179  12.582  -2.045  0.00  0.00    -0.303 N 
ATOM      3  C   UNL d   1      13.575  12.406  -1.521  0.00  0.00     0.080 A 
ATOM      4  C   UNL d   1      13.740  12.005  -0.818  0.00  0.00     0.018 A 
ATOM      5  C   UNL d   1      13.136  11.829  -0.294  0.00  0.00     0.002 C 
ATOM      6  C   UNL d   1      14.514  11.780  -0.638  0.00  0.00     0.003 A 
ATOM      7  C   UNL d   1      15.113  11.963  -1.174  0.00  0.00     0.019 A 
ATOM      8  C   UNL d   1      14.951  12.363  -1.877  0.00  0.00     0.080 A 
ENDBRANCH   1   2
BRANCH   1   9
ATOM      9  C   UNL d   1      14.151  13.794  -2.785  0.00  0.00     0.106 A 
ATOM     10  C   UNL d   1      13.743  14.331  -3.273  0.00  0.00     0.290 A 
ATOM     11  N   UNL d   1      14.048  15.083  -3.136  0.00  0.00    -0.169 N 
ATOM     12  O   UNL d   1      13.138  14.139  -3.802  0.00  0.00    -0.265 OA
ATOM     13  N   UNL d   1      13.990  15.872  -3.345  0.00  0.00    -0.138 NA
ATOM     14  C   UNL d   1      14.641  15.015  -2.567  0.00  0.00     0.200 A 
ATOM     15  C   UNL d   1      14.544  16.298  -2.911  0.00  0.00     0.222 A 
ATOM     16  N   UNL d   1      14.947  15.767  -2.429  0.00  0.00    -0.197 NA
ATOM     17  S   UNL d   1      14.706  14.225  -2.351  0.00  0.00    -0.042 SA
ENDBRANCH   1   9
BRANCH   1  18
ATOM     18  C   UNL d   1      13.740  12.578  -3.401  0.00  0.00     0.017 A 
ATOM     19  C   UNL d   1      13.038  12.172  -3.358  0.00  0.00     0.002 A 
ATOM     20  C   UNL d   1      12.769  11.779  -4.007  0.00  0.00     0.000 A 
ATOM     21  C   UNL d   1      13.201  11.783  -4.724  0.00  0.00     0.000 A 
ATOM     22  C   UNL d   1      13.895  12.187  -4.758  0.00  0.00     0.000 A 
ATOM     23  C   UNL d   1      14.182  12.593  -4.099  0.00  0.00     0.002 A 
ENDBRANCH   1  18
TORSDOF 3
ENDMDL
MODEL 3
REMARK VINA RESULT:      46.1      1.101      3.114
REMARK  3 active torsions:
REMARK  status: ('A' for Active; 'I' for Inactive)
REMARK    1  A    between atoms: C_8  and  C_1 
REMARK    2  A    between atoms: N_7  and  C_8 
REMARK    3  A    between atoms: C_13  and  C_8 
ROOT
ATOM      1  C   UNL d   1      14.275  13.221  -1.912  0.00  0.00     0.075 C 
ENDROOT
BRANCH   1   2
ATOM      2  N   UNL d   1      13.898  12.910  -2.572  0.00  0.00    -0.303 N 
ATOM      3  C   UNL d   1      13.585  13.404  -3.144  0.00  0.00     0.080 A 
ATOM      4  C   UNL d   1      13.207  13.084  -3.806  0.00  0.00     0.018 A 
ATOM      5  C   UNL d   1      12.894  13.578  -4.378  0.00  0.00     0.002 C 
ATOM      6  C   UNL d   1      13.143  12.266  -3.894  0.00  0.00     0.003 A 
ATOM      7  C   UNL d   1      13.463  11.779  -3.311  0.00  0.00     0.019 A 
ATOM      8  C   UNL d   1      13.840  12.095  -2.650  0.00  0.00     0.080 A 
ENDBRANCH   1   2
BRANCH   1   9
ATOM      9  C   UNL d   1      14.449  14.027  -1.889  0.00  0.00     0.106 A 
ATOM     10  C   UNL d   1      14.672  14.460  -1.214  0.00  0.00     0.290 A 
ATOM     11  N   UNL d   1      14.792  15.242  -1.441  0.00  0.00    -0.169 N 
ATOM     12  O   UNL d   1      14.758  14.155  -0.451  0.00  0.00    -0.265 OA
ATOM     13  N   UNL d   1      15.001  15.987  -1.174  0.00  0.00    -0.138 NA
ATOM     14  C   UNL d   1      14.645  15.296  -2.251  0.00  0.00     0.200 A 
ATOM     15  C   UNL d   1      14.985  16.506  -1.812  0.00  0.00     0.222 A 
ATOM     16  N   UNL d   1      14.764  16.078  -2.479  0.00  0.00    -0.197 NA
ATOM     17  S   UNL d   1      14.434  14.552  -2.527  0.00  0.00    -0.042 SA
ENDBRANCH   1   9
BRANCH   1  18
ATOM     18  C   UNL d   1      14.478  12.740  -1.281  0.00  0.00     0.017 A 
ATOM     19  C   UNL d   1      15.252  12.518  -1.172  0.00  0.00     0.002 A 
ATOM     20  C   UNL d   1      15.442  12.045  -0.549  0.00  0.00     0.000 A 
ATOM     21  C   UNL d   1      14.856  11.779  -0.014  0.00  0.00     0.000 A 
ATOM     22  C   UNL d   1      14.093  12.003  -0.130  0.00  0.00     0.000 A 
ATOM     23  C   UNL d   1      13.885  12.488  -0.765  0.00  0.00     0.002 A 
ENDBRANCH   1  18
TORSDOF 3
ENDMDL
