MODEL 1
REMARK VINA RESULT:      18.1      0.000      0.000
REMARK  7 active torsions:
REMARK  status: ('A' for Active; 'I' for Inactive)
REMARK    1  A    between atoms: C_5  and  N_1 
REMARK    2  A    between atoms: C_3  and  N_2 
REMARK    3  A    between atoms: N_4  and  C_11 
REMARK    4  A    between atoms: C_11  and  C_17 
REMARK    5  A    between atoms: O_16  and  C_18 
REMARK    6  A    between atoms: C_20  and  O_16 
REMARK    7  A    between atoms: C_17  and  C_20 
ROOT
ATOM      1  C   UNL d   1      45.452 -16.634  44.955  0.00  0.00     0.125 C 
ENDROOT
BRANCH   1   2
ATOM      2  N   UNL d   1      45.649 -17.107  44.347  0.00  0.00    -0.297 N 
ATOM      3  C   UNL d   1      46.163 -17.740  44.430  0.00  0.00     0.100 A 
ATOM      4  C   UNL d   1      46.362 -18.218  43.816  0.00  0.00     0.100 A 
ATOM      5  N   UNL d   1      46.036 -18.071  43.054  0.00  0.00    -0.299 N 
ATOM      6  C   UNL d   1      45.521 -17.442  42.955  0.00  0.00     0.100 A 
ATOM      7  C   UNL d   1      45.318 -16.956  43.579  0.00  0.00     0.100 A 
BRANCH   5   8
ATOM      8  C   UNL d   1      46.240 -18.562  42.423  0.00  0.00     0.092 A 
ATOM      9  C   UNL d   1      46.303 -19.380  42.556  0.00  0.00     0.156 A 
ATOM     10  F   UNL d   1      46.165 -19.704  43.304  0.00  0.00    -0.203 F 
ATOM     11  C   UNL d   1      46.507 -19.869  41.928  0.00  0.00     0.031 A 
ATOM     12  C   UNL d   1      46.647 -19.568  41.186  0.00  0.00     0.002 A 
ATOM     13  C   UNL d   1      46.584 -18.742  41.049  0.00  0.00     0.002 A 
ATOM     14  C   UNL d   1      46.379 -18.251  41.679  0.00  0.00     0.020 A 
ENDBRANCH   5   8
ENDBRANCH   1   2
BRANCH   1  15
ATOM     15  C   UNL d   1      45.357 -15.815  44.829  0.00  0.00     0.238 C 
ATOM     16  O   UNL d   1      44.480 -15.482  44.776  0.00  0.00    -0.283 OA
BRANCH  15  17
ATOM     17  C   UNL d   1      46.015 -15.337  44.758  0.00  0.00     0.166 C 
BRANCH  17  18
ATOM     18  O   UNL d   1      45.944 -14.518  44.908  0.00  0.00    -0.302 OA
BRANCH  18  19
ATOM     19  C   UNL d   1      45.778 -14.005  44.294  0.00  0.00     0.100 A 
ATOM     20  C   UNL d   1      46.105 -14.117  43.545  0.00  0.00     0.026 A 
ATOM     21  C   UNL d   1      45.940 -13.600  42.918  0.00  0.00     0.026 A 
ATOM     22  C   UNL d   1      45.424 -12.943  43.049  0.00  0.00     0.127 A 
ATOM     23  C   UNL d   1      45.097 -12.831  43.799  0.00  0.00     0.026 A 
ATOM     24  C   UNL d   1      45.273 -13.363  44.427  0.00  0.00     0.026 A 
BRANCH  22  25
ATOM     25  N   UNL d   1      45.245 -12.415  42.441  0.00  0.00    -0.114 N 
ATOM     26  O   UNL d   1      44.485 -12.150  42.254  0.00  0.00    -0.532 OA
ATOM     27  O   UNL d   1      45.803 -12.081  41.940  0.00  0.00    -0.532 OA
ENDBRANCH  22  25
ENDBRANCH  18  19
ENDBRANCH  17  18
ENDBRANCH  15  17
ENDBRANCH   1  15
TORSDOF 7
ENDMDL
