MODEL 1
REMARK VINA RESULT:      -4.7      0.000      0.000
REMARK  5 active torsions:
REMARK  status: ('A' for Active; 'I' for Inactive)
REMARK    1  A    between atoms: N_2  and  S_1 
REMARK    2  A    between atoms: C_7  and  S_1 
REMARK    3  A    between atoms: C_3  and  N_2 
REMARK       I    between atoms: C_11  and  N_12 
REMARK    4  A    between atoms: C_19  and  C_11 
REMARK    5  A    between atoms: N_12  and  C_16 
ROOT
ATOM      1  C   UNL d   1      57.267  -0.143  31.463  0.00  0.00     0.105 A 
ATOM      2  C   UNL d   1      57.536   0.543  31.847  0.00  0.00     0.015 A 
ATOM      3  C   UNL d   1      56.823  -0.686  31.839  0.00  0.00     0.015 A 
ATOM      4  C   UNL d   1      56.896   0.133  33.026  0.00  0.00     0.085 A 
ATOM      5  C   UNL d   1      57.346   0.672  32.626  0.00  0.00     0.020 A 
ATOM      6  C   UNL d   1      56.628  -0.552  32.640  0.00  0.00     0.020 A 
ENDROOT
BRANCH   1   7
ATOM      7  S   UNL d   1      57.470  -0.267  30.655  0.00  0.00     0.287 S 
ATOM      8  O   UNL d   1      57.523   0.573  30.528  0.00  0.00    -0.198 OA
ATOM      9  O   UNL d   1      57.419  -1.082  30.771  0.00  0.00    -0.198 OA
BRANCH   7  10
ATOM     10  N   UNL d   1      57.670  -0.396  29.857  0.00  0.00    -0.137 NA
BRANCH  10  11
ATOM     11  C   UNL d   1      58.471  -0.427  29.623  0.00  0.00     0.203 A 
ATOM     12  N   UNL d   1      58.836  -1.154  29.557  0.00  0.00    -0.106 NA
ATOM     13  O   UNL d   1      59.618  -0.998  29.318  0.00  0.00    -0.210 OA
ATOM     14  C   UNL d   1      59.715  -0.194  29.245  0.00  0.00     0.128 A 
ATOM     15  C   UNL d   1      58.989   0.176  29.438  0.00  0.00     0.069 A 
ATOM     16  C   UNL d   1      60.407   0.191  29.021  0.00  0.00     0.029 C 
ENDBRANCH  10  11
ENDBRANCH   7  10
ENDBRANCH   1   7
BRANCH   4  17
ATOM     17  N   UNL d   1      56.697   0.259  33.826  0.00  0.00    -0.208 NA
ATOM     18  C   UNL d   1      55.926   0.434  34.035  0.00  0.00     0.279 C 
ATOM     19  O   UNL d   1      55.729   0.559  34.830  0.00  0.00    -0.265 OA
BRANCH  18  20
ATOM     20  C   UNL d   1      55.353   0.485  33.457  0.00  0.00     0.062 C 
ATOM     21  C   UNL d   1      54.559   0.681  33.657  0.00  0.00     0.005 C 
ENDBRANCH  18  20
ENDBRANCH   4  17
TORSDOF 5
ENDMDL
MODEL 2
REMARK VINA RESULT:      -4.7      1.141      1.500
REMARK  5 active torsions:
REMARK  status: ('A' for Active; 'I' for Inactive)
REMARK    1  A    between atoms: N_2  and  S_1 
REMARK    2  A    between atoms: C_7  and  S_1 
REMARK    3  A    between atoms: C_3  and  N_2 
REMARK       I    between atoms: C_11  and  N_12 
REMARK    4  A    between atoms: C_19  and  C_11 
REMARK    5  A    between atoms: N_12  and  C_16 
ROOT
ATOM      1  C   UNL d   1      57.900   0.581  30.839  0.00  0.00     0.105 A 
ATOM      2  C   UNL d   1      58.232   0.506  31.596  0.00  0.00     0.015 A 
ATOM      3  C   UNL d   1      57.115   0.667  30.733  0.00  0.00     0.015 A 
ATOM      4  C   UNL d   1      56.956   0.604  32.167  0.00  0.00     0.085 A 
ATOM      5  C   UNL d   1      57.754   0.519  32.252  0.00  0.00     0.020 A 
ATOM      6  C   UNL d   1      56.625   0.679  31.409  0.00  0.00     0.020 A 
ENDROOT
BRANCH   1   7
ATOM      7  S   UNL d   1      58.405   0.567  30.165  0.00  0.00     0.287 S 
ATOM      8  O   UNL d   1      59.092   0.623  30.664  0.00  0.00    -0.198 OA
ATOM      9  O   UNL d   1      57.744   0.514  29.674  0.00  0.00    -0.198 OA
BRANCH   7  10
ATOM     10  N   UNL d   1      58.899   0.553  29.495  0.00  0.00    -0.137 NA
BRANCH  10  11
ATOM     11  C   UNL d   1      59.234  -0.166  29.234  0.00  0.00     0.203 A 
ATOM     12  N   UNL d   1      60.045  -0.225  29.168  0.00  0.00    -0.106 NA
ATOM     13  O   UNL d   1      60.200  -0.998  28.900  0.00  0.00    -0.210 OA
ATOM     14  C   UNL d   1      59.494  -1.390  28.808  0.00  0.00     0.128 A 
ATOM     15  C   UNL d   1      58.874  -0.867  29.019  0.00  0.00     0.069 A 
ATOM     16  C   UNL d   1      59.402  -2.166  28.552  0.00  0.00     0.029 C 
ENDBRANCH  10  11
ENDBRANCH   7  10
ENDBRANCH   1   7
BRANCH   4  17
ATOM     17  N   UNL d   1      56.458   0.618  32.837  0.00  0.00    -0.208 NA
ATOM     18  C   UNL d   1      56.097  -0.069  33.094  0.00  0.00     0.279 C 
ATOM     19  O   UNL d   1      55.603  -0.056  33.759  0.00  0.00    -0.265 OA
BRANCH  18  20
ATOM     20  C   UNL d   1      56.227  -0.768  32.693  0.00  0.00     0.062 C 
ATOM     21  C   UNL d   1      55.870  -1.484  32.954  0.00  0.00     0.005 C 
ENDBRANCH  18  20
ENDBRANCH   4  17
TORSDOF 5
ENDMDL
MODEL 3
REMARK VINA RESULT:      -4.0      1.366      4.623
REMARK  5 active torsions:
REMARK  status: ('A' for Active; 'I' for Inactive)
REMARK    1  A    between atoms: N_2  and  S_1 
REMARK    2  A    between atoms: C_7  and  S_1 
REMARK    3  A    between atoms: C_3  and  N_2 
REMARK       I    between atoms: C_11  and  N_12 
REMARK    4  A    between atoms: C_19  and  C_11 
REMARK    5  A    between atoms: N_12  and  C_16 
ROOT
ATOM      1  C   UNL d   1      58.167   0.448  30.783  0.00  0.00     0.105 A 
ATOM      2  C   UNL d   1      58.957   0.565  31.008  0.00  0.00     0.015 A 
ATOM      3  C   UNL d   1      57.972   0.227  30.044  0.00  0.00     0.015 A 
ATOM      4  C   UNL d   1      59.377   0.230  29.713  0.00  0.00     0.085 A 
ATOM      5  C   UNL d   1      59.554   0.454  30.469  0.00  0.00     0.020 A 
ATOM      6  C   UNL d   1      58.586   0.113  29.489  0.00  0.00     0.020 A 
ENDROOT
BRANCH   1   7
ATOM      7  S   UNL d   1      57.556   0.565  31.351  0.00  0.00     0.287 S 
ATOM      8  O   UNL d   1      56.968   0.553  30.736  0.00  0.00    -0.198 OA
ATOM      9  O   UNL d   1      58.121   0.579  31.952  0.00  0.00    -0.198 OA
BRANCH   7  10
ATOM     10  N   UNL d   1      56.956   0.682  31.916  0.00  0.00    -0.137 NA
BRANCH  10  11
ATOM     11  C   UNL d   1      56.693   0.045  32.388  0.00  0.00     0.203 A 
ATOM     12  N   UNL d   1      56.834   0.064  33.192  0.00  0.00    -0.106 NA
ATOM     13  O   UNL d   1      56.510  -0.638  33.500  0.00  0.00    -0.210 OA
ATOM     14  C   UNL d   1      56.184  -1.066  32.890  0.00  0.00     0.128 A 
ATOM     15  C   UNL d   1      56.297  -0.637  32.180  0.00  0.00     0.069 A 
ATOM     16  C   UNL d   1      55.807  -1.794  32.959  0.00  0.00     0.029 C 
ENDBRANCH  10  11
ENDBRANCH   7  10
ENDBRANCH   1   7
BRANCH   4  17
ATOM     17  N   UNL d   1      59.985   0.114  29.153  0.00  0.00    -0.208 NA
ATOM     18  C   UNL d   1      60.275  -0.637  29.011  0.00  0.00     0.279 C 
ATOM     19  O   UNL d   1      60.878  -0.752  28.455  0.00  0.00    -0.265 OA
BRANCH  18  20
ATOM     20  C   UNL d   1      59.967  -1.272  29.420  0.00  0.00     0.062 C 
ATOM     21  C   UNL d   1      60.295  -2.042  29.327  0.00  0.00     0.005 C 
ENDBRANCH  18  20
ENDBRANCH   4  17
TORSDOF 5
ENDMDL
MODEL 4
REMARK VINA RESULT:      -3.5      1.167      4.732
REMARK  5 active torsions:
REMARK  status: ('A' for Active; 'I' for Inactive)
REMARK    1  A    between atoms: N_2  and  S_1 
REMARK    2  A    between atoms: C_7  and  S_1 
REMARK    3  A    between atoms: C_3  and  N_2 
REMARK       I    between atoms: C_11  and  N_12 
REMARK    4  A    between atoms: C_19  and  C_11 
REMARK    5  A    between atoms: N_12  and  C_16 
ROOT
ATOM      1  C   UNL d   1      57.216  -0.092  31.784  0.00  0.00     0.105 A 
ATOM      2  C   UNL d   1      57.366   0.630  31.402  0.00  0.00     0.015 A 
ATOM      3  C   UNL d   1      57.316  -0.790  31.413  0.00  0.00     0.015 A 
ATOM      4  C   UNL d   1      57.730  -0.061  30.237  0.00  0.00     0.085 A 
ATOM      5  C   UNL d   1      57.622   0.636  30.632  0.00  0.00     0.020 A 
ATOM      6  C   UNL d   1      57.579  -0.782  30.621  0.00  0.00     0.020 A 
ENDROOT
BRANCH   1   7
ATOM      7  S   UNL d   1      56.951  -0.087  32.583  0.00  0.00     0.287 S 
ATOM      8  O   UNL d   1      57.240  -0.880  32.696  0.00  0.00    -0.198 OA
ATOM      9  O   UNL d   1      56.669   0.681  32.482  0.00  0.00    -0.198 OA
BRANCH   7  10
ATOM     10  N   UNL d   1      56.687  -0.077  33.373  0.00  0.00    -0.137 NA
BRANCH  10  11
ATOM     11  C   UNL d   1      55.870  -0.036  33.543  0.00  0.00     0.203 A 
ATOM     12  N   UNL d   1      55.388  -0.655  33.319  0.00  0.00    -0.106 NA
ATOM     13  O   UNL d   1      54.619  -0.449  33.564  0.00  0.00    -0.210 OA
ATOM     14  C   UNL d   1      54.646   0.278  33.926  0.00  0.00     0.128 A 
ATOM     15  C   UNL d   1      55.439   0.548  33.916  0.00  0.00     0.069 A 
ATOM     16  C   UNL d   1      54.004   0.682  34.247  0.00  0.00     0.029 C 
ENDBRANCH  10  11
ENDBRANCH   7  10
ENDBRANCH   1   7
BRANCH   4  17
ATOM     17  N   UNL d   1      57.992  -0.063  29.445  0.00  0.00    -0.208 NA
ATOM     18  C   UNL d   1      58.792  -0.046  29.278  0.00  0.00     0.279 C 
ATOM     19  O   UNL d   1      59.053  -0.048  28.492  0.00  0.00    -0.265 OA
BRANCH  18  20
ATOM     20  C   UNL d   1      59.332  -0.028  29.890  0.00  0.00     0.062 C 
ATOM     21  C   UNL d   1      60.153  -0.143  29.740  0.00  0.00     0.005 C 
ENDBRANCH  18  20
ENDBRANCH   4  17
TORSDOF 5
ENDMDL
