MODEL 1
REMARK VINA RESULT:      -5.4      0.000      0.000
REMARK  1 active torsions:
REMARK  status: ('A' for Active; 'I' for Inactive)
REMARK    1  A    between atoms: C_4  and  C_1 
REMARK       I    between atoms: N_5  and  C_1 
ROOT
ATOM      1  N   UNL d   1     -46.521  12.442  23.589  0.00  0.00    -0.242 NA
ATOM      2  C   UNL d   1     -48.010  11.782  23.300  0.00  0.00     0.062 A 
ATOM      3  C   UNL d   1     -46.646  11.631  23.687  0.00  0.00     0.099 A 
ATOM      4  C   UNL d   1     -47.151  12.921  23.343  0.00  0.00     0.099 A 
ATOM      5  C   UNL d   1     -47.893  12.592  23.199  0.00  0.00     0.025 A 
ATOM      6  C   UNL d   1     -47.388  11.302  23.543  0.00  0.00     0.025 A 
ENDROOT
BRANCH   2   7
ATOM      7  C   UNL d   1     -48.390  11.535  23.239  0.00  0.00     0.298 C 
ATOM      8  O   UNL d   1     -48.760  11.107  23.698  0.00  0.00    -0.264 OA
ATOM      9  N   UNL d   1     -48.737  11.536  22.557  0.00  0.00    -0.085 NA
ATOM     10  N   UNL d   1     -48.402  11.866  22.298  0.00  0.00    -0.019 N 
ENDBRANCH   2   7
TORSDOF 1
ENDMDL
MODEL 2
REMARK VINA RESULT:      -5.0      1.146      1.449
REMARK  1 active torsions:
REMARK  status: ('A' for Active; 'I' for Inactive)
REMARK    1  A    between atoms: C_4  and  C_1 
REMARK       I    between atoms: N_5  and  C_1 
ROOT
ATOM      1  N   UNL d   1     -47.957  13.070  22.098  0.00  0.00    -0.242 NA
ATOM      2  C   UNL d   1     -48.598  11.831  22.989  0.00  0.00     0.062 A 
ATOM      3  C   UNL d   1     -47.743  12.969  22.890  0.00  0.00     0.099 A 
ATOM      4  C   UNL d   1     -48.497  12.543  21.756  0.00  0.00     0.099 A 
ATOM      5  C   UNL d   1     -48.816  11.926  22.200  0.00  0.00     0.025 A 
ATOM      6  C   UNL d   1     -48.062  12.352  23.334  0.00  0.00     0.025 A 
ENDROOT
BRANCH   2   7
ATOM      7  C   UNL d   1     -48.733  11.516  23.291  0.00  0.00     0.298 C 
ATOM      8  O   UNL d   1     -48.350  11.046  23.694  0.00  0.00    -0.264 OA
ATOM      9  N   UNL d   1     -49.479  11.424  23.433  0.00  0.00    -0.085 NA
ATOM     10  N   UNL d   1     -49.671  11.801  23.101  0.00  0.00    -0.019 N 
ENDBRANCH   2   7
TORSDOF 1
ENDMDL
