MODEL 1
REMARK VINA RESULT:      74.1      0.000      0.000
REMARK  2 active torsions:
REMARK  status: ('A' for Active; 'I' for Inactive)
REMARK    1  A    between atoms: C_13  and  N_5 
REMARK    2  A    between atoms: C_19  and  C_12 
ROOT
ATOM      1  C   UNL d   1      60.190  48.607  50.797  0.00  0.00     0.170 A 
ATOM      2  C   UNL d   1      60.918  48.483  51.113  0.00  0.00     0.093 A 
ATOM      3  N   UNL d   1      61.105  47.381  50.290  0.00  0.00    -0.256 N 
ATOM      4  C   UNL d   1      61.387  47.868  50.865  0.00  0.00     0.176 A 
ATOM      5  N   UNL d   1      59.733  49.217  51.047  0.00  0.00    -0.212 N 
ATOM      6  N   UNL d   1      59.921  48.107  50.219  0.00  0.00    -0.206 NA
ATOM      7  N   UNL d   1      62.109  47.752  51.185  0.00  0.00    -0.128 NA
ATOM      8  N   UNL d   1      60.015  49.707  51.624  0.00  0.00    -0.162 NA
ATOM      9  C   UNL d   1      60.377  47.504  49.974  0.00  0.00     0.187 A 
ATOM     10  N   UNL d   1      62.284  46.652  50.357  0.00  0.00    -0.128 NA
ATOM     11  C   UNL d   1      60.738  49.591  51.944  0.00  0.00     0.127 A 
ATOM     12  C   UNL d   1      61.561  46.771  50.040  0.00  0.00     0.172 A 
ENDROOT
BRANCH   5  13
ATOM     13  C   UNL d   1      58.987  49.336  50.717  0.00  0.00     0.085 A 
ATOM     14  C   UNL d   1      58.321  49.319  51.191  0.00  0.00     0.019 A 
ATOM     15  C   UNL d   1      57.564  49.441  50.852  0.00  0.00     0.002 A 
ATOM     16  C   UNL d   1      56.848  49.425  51.351  0.00  0.00     0.000 C 
ATOM     17  C   UNL d   1      57.489  49.580  50.035  0.00  0.00     0.000 A 
ATOM     18  C   UNL d   1      58.177  49.596  49.556  0.00  0.00     0.002 A 
ATOM     19  C   UNL d   1      56.706  49.707  49.680  0.00  0.00     0.000 C 
ATOM     20  C   UNL d   1      58.921  49.475  49.891  0.00  0.00     0.019 A 
ENDBRANCH   5  13
BRANCH  12  21
ATOM     21  C   UNL d   1      61.292  46.275  49.466  0.00  0.00     0.039 C 
ATOM     22  C   UNL d   1      61.578  45.532  49.415  0.00  0.00     0.003 C 
ENDBRANCH  12  21
TORSDOF 2
ENDMDL
