MODEL 1
REMARK VINA RESULT:      -9.0      0.000      0.000
REMARK  6 active torsions:
REMARK  status: ('A' for Active; 'I' for Inactive)
REMARK    1  A    between atoms: C_7  and  C_1 
REMARK    2  A    between atoms: C_9  and  N_10 
REMARK       I    between atoms: N_10  and  C_11 
REMARK    3  A    between atoms: C_11  and  C_19 
REMARK    4  A    between atoms: S_15  and  C_12 
REMARK    5  A    between atoms: O_24  and  C_13 
REMARK    6  A    between atoms: C_19  and  S_15 
ROOT
ATOM      1  S   UNL d   1      50.225  34.290  52.676  0.00  0.00    -0.061 SA
ENDROOT
BRANCH   1   2
ATOM      2  C   UNL d   1      50.968  34.030  52.971  0.00  0.00     0.133 A 
ATOM      3  C   UNL d   1      51.658  34.406  52.724  0.00  0.00     0.029 A 
ATOM      4  C   UNL d   1      52.387  34.154  53.010  0.00  0.00     0.024 A 
ATOM      5  C   UNL d   1      52.427  33.526  53.543  0.00  0.00     0.111 A 
ATOM      6  N   UNL d   1      51.738  33.150  53.790  0.00  0.00    -0.147 NA
ATOM      7  N   UNL d   1      51.008  33.401  53.504  0.00  0.00    -0.141 NA
BRANCH   5   8
ATOM      8  C   UNL d   1      53.157  33.274  53.829  0.00  0.00     0.068 A 
ATOM      9  C   UNL d   1      53.599  32.604  53.614  0.00  0.00     0.089 A 
ATOM     10  N   UNL d   1      54.294  32.597  54.060  0.00  0.00    -0.238 NA
ATOM     11  C   UNL d   1      53.381  32.039  53.049  0.00  0.00     0.021 C 
ATOM     12  C   UNL d   1      54.281  33.260  54.549  0.00  0.00     0.111 A 
ATOM     13  S   UNL d   1      53.584  33.680  54.410  0.00  0.00    -0.065 SA
ATOM     14  C   UNL d   1      54.876  33.479  55.099  0.00  0.00     0.028 C 
ENDBRANCH   5   8
ENDBRANCH   1   2
BRANCH   1  15
ATOM     15  C   UNL d   1      49.884  34.978  52.977  0.00  0.00     0.099 C 
BRANCH  15  16
ATOM     16  C   UNL d   1      49.100  35.155  52.793  0.00  0.00     0.286 C 
ATOM     17  N   UNL d   1      48.712  35.782  53.181  0.00  0.00    -0.206 NA
ATOM     18  O   UNL d   1      48.695  34.709  52.221  0.00  0.00    -0.265 OA
BRANCH  17  19
ATOM     19  C   UNL d   1      47.929  35.959  52.998  0.00  0.00     0.107 A 
ATOM     20  C   UNL d   1      47.416  36.236  53.589  0.00  0.00     0.112 A 
ATOM     21  C   UNL d   1      46.632  36.414  53.406  0.00  0.00     0.026 A 
ATOM     22  C   UNL d   1      46.354  36.317  52.631  0.00  0.00     0.002 A 
ATOM     23  C   UNL d   1      46.868  36.041  52.041  0.00  0.00     0.002 A 
ATOM     24  C   UNL d   1      47.651  35.863  52.223  0.00  0.00     0.021 A 
ATOM     25  C   UNL d   1      46.595  35.943  51.268  0.00  0.00     0.000 C 
BRANCH  20  26
ATOM     26  O   UNL d   1      47.692  36.332  54.360  0.00  0.00    -0.327 OA
ATOM     27  C   UNL d   1      47.204  36.664  54.935  0.00  0.00     0.181 C 
ENDBRANCH  20  26
ENDBRANCH  17  19
ENDBRANCH  15  16
ENDBRANCH   1  15
TORSDOF 6
ENDMDL
MODEL 2
REMARK VINA RESULT:      -8.1      1.662      6.374
REMARK  6 active torsions:
REMARK  status: ('A' for Active; 'I' for Inactive)
REMARK    1  A    between atoms: C_7  and  C_1 
REMARK    2  A    between atoms: C_9  and  N_10 
REMARK       I    between atoms: N_10  and  C_11 
REMARK    3  A    between atoms: C_11  and  C_19 
REMARK    4  A    between atoms: S_15  and  C_12 
REMARK    5  A    between atoms: O_24  and  C_13 
REMARK    6  A    between atoms: C_19  and  S_15 
ROOT
ATOM      1  S   UNL d   1      50.685  34.256  52.379  0.00  0.00    -0.061 SA
ENDROOT
BRANCH   1   2
ATOM      2  C   UNL d   1      49.922  34.603  52.313  0.00  0.00     0.133 A 
ATOM      3  C   UNL d   1      49.532  34.590  51.588  0.00  0.00     0.029 A 
ATOM      4  C   UNL d   1      48.785  34.930  51.519  0.00  0.00     0.024 A 
ATOM      5  C   UNL d   1      48.428  35.281  52.175  0.00  0.00     0.111 A 
ATOM      6  N   UNL d   1      48.819  35.294  52.899  0.00  0.00    -0.147 NA
ATOM      7  N   UNL d   1      49.566  34.955  52.969  0.00  0.00    -0.141 NA
BRANCH   5   8
ATOM      8  C   UNL d   1      47.681  35.620  52.105  0.00  0.00     0.068 A 
ATOM      9  C   UNL d   1      47.361  36.266  52.519  0.00  0.00     0.089 A 
ATOM     10  N   UNL d   1      46.591  36.392  52.249  0.00  0.00    -0.238 NA
ATOM     11  C   UNL d   1      47.747  36.709  53.102  0.00  0.00     0.021 C 
ATOM     12  C   UNL d   1      46.436  35.825  51.670  0.00  0.00     0.111 A 
ATOM     13  S   UNL d   1      47.104  35.349  51.579  0.00  0.00    -0.065 SA
ATOM     14  C   UNL d   1      45.719  35.741  51.241  0.00  0.00     0.028 C 
ENDBRANCH   5   8
ENDBRANCH   1   2
BRANCH   1  15
ATOM     15  C   UNL d   1      50.903  33.877  53.079  0.00  0.00     0.099 C 
BRANCH  15  16
ATOM     16  C   UNL d   1      51.697  33.701  53.214  0.00  0.00     0.286 C 
ATOM     17  N   UNL d   1      51.910  32.976  53.564  0.00  0.00    -0.206 NA
ATOM     18  O   UNL d   1      52.287  34.246  53.001  0.00  0.00    -0.265 OA
BRANCH  17  19
ATOM     19  C   UNL d   1      52.702  32.800  53.699  0.00  0.00     0.107 A 
ATOM     20  C   UNL d   1      53.026  32.091  53.412  0.00  0.00     0.112 A 
ATOM     21  C   UNL d   1      53.819  31.914  53.547  0.00  0.00     0.026 A 
ATOM     22  C   UNL d   1      54.297  32.443  53.970  0.00  0.00     0.002 A 
ATOM     23  C   UNL d   1      53.973  33.152  54.256  0.00  0.00     0.002 A 
ATOM     24  C   UNL d   1      53.180  33.330  54.122  0.00  0.00     0.021 A 
ATOM     25  C   UNL d   1      54.445  33.681  54.677  0.00  0.00     0.000 C 
BRANCH  20  26
ATOM     26  O   UNL d   1      52.551  31.564  52.992  0.00  0.00    -0.327 OA
ATOM     27  C   UNL d   1      52.786  30.780  52.899  0.00  0.00     0.181 C 
ENDBRANCH  20  26
ENDBRANCH  17  19
ENDBRANCH  15  16
ENDBRANCH   1  15
TORSDOF 6
ENDMDL
