MODEL 1
REMARK VINA RESULT:      -7.7      0.000      0.000
REMARK  4 active torsions:
REMARK  status: ('A' for Active; 'I' for Inactive)
REMARK    1  A    between atoms: C_4  and  C_1 
REMARK    2  A    between atoms: C_2  and  C_3 
REMARK    3  A    between atoms: O_7  and  C_13 
REMARK    4  A    between atoms: C_12  and  O_7 
ROOT
ATOM      1  O   UNL d   1     -47.462  14.370  22.781  0.00  0.00    -0.307 OA
ENDROOT
BRANCH   1   2
ATOM      2  C   UNL d   1     -47.072  13.658  22.957  0.00  0.00     0.100 A 
ATOM      3  C   UNL d   1     -46.391  13.471  22.550  0.00  0.00     0.025 A 
ATOM      4  C   UNL d   1     -45.990  12.760  22.716  0.00  0.00     0.005 A 
ATOM      5  C   UNL d   1     -46.274  12.255  23.280  0.00  0.00     0.039 A 
ATOM      6  C   UNL d   1     -46.970  12.443  23.698  0.00  0.00     0.005 A 
ATOM      7  C   UNL d   1     -47.374  13.155  23.533  0.00  0.00     0.025 A 
BRANCH   5   8
ATOM      8  C   UNL d   1     -45.873  11.545  23.446  0.00  0.00     0.196 C 
ATOM      9  O   UNL d   1     -45.042  11.501  23.380  0.00  0.00    -0.287 OA
ATOM     10  C   UNL d   1     -46.280  10.867  23.678  0.00  0.00     0.045 C 
ENDBRANCH   5   8
ENDBRANCH   1   2
BRANCH   1  11
ATOM     11  C   UNL d   1     -48.268  14.381  22.560  0.00  0.00     0.100 A 
ATOM     12  C   UNL d   1     -48.772  14.868  22.999  0.00  0.00     0.025 A 
ATOM     13  C   UNL d   1     -49.581  14.881  22.779  0.00  0.00     0.005 A 
ATOM     14  C   UNL d   1     -49.865  14.425  22.148  0.00  0.00     0.039 A 
ATOM     15  C   UNL d   1     -49.336  13.954  21.736  0.00  0.00     0.005 A 
ATOM     16  C   UNL d   1     -48.539  13.932  21.941  0.00  0.00     0.025 A 
BRANCH  14  17
ATOM     17  C   UNL d   1     -50.643  14.438  21.937  0.00  0.00     0.196 C 
ATOM     18  O   UNL d   1     -51.064  15.157  21.926  0.00  0.00    -0.287 OA
ATOM     19  C   UNL d   1     -51.022  13.741  21.732  0.00  0.00     0.045 C 
ENDBRANCH  14  17
ENDBRANCH   1  11
TORSDOF 4
ENDMDL
MODEL 2
REMARK VINA RESULT:      -7.7      0.144      4.383
REMARK  4 active torsions:
REMARK  status: ('A' for Active; 'I' for Inactive)
REMARK    1  A    between atoms: C_4  and  C_1 
REMARK    2  A    between atoms: C_2  and  C_3 
REMARK    3  A    between atoms: O_7  and  C_13 
REMARK    4  A    between atoms: C_12  and  O_7 
ROOT
ATOM      1  O   UNL d   1     -47.369  14.349  22.756  0.00  0.00    -0.307 OA
ENDROOT
BRANCH   1   2
ATOM      2  C   UNL d   1     -48.173  14.377  22.551  0.00  0.00     0.100 A 
ATOM      3  C   UNL d   1     -48.690  14.774  23.040  0.00  0.00     0.025 A 
ATOM      4  C   UNL d   1     -49.500  14.810  22.847  0.00  0.00     0.005 A 
ATOM      5  C   UNL d   1     -49.773  14.453  22.176  0.00  0.00     0.039 A 
ATOM      6  C   UNL d   1     -49.248  14.046  21.674  0.00  0.00     0.005 A 
ATOM      7  C   UNL d   1     -48.436  14.008  21.865  0.00  0.00     0.025 A 
BRANCH   5   8
ATOM      8  C   UNL d   1     -50.583  14.489  21.983  0.00  0.00     0.196 C 
ATOM      9  O   UNL d   1     -51.064  15.099  22.287  0.00  0.00    -0.287 OA
ATOM     10  C   UNL d   1     -50.932  13.929  21.490  0.00  0.00     0.045 C 
ENDBRANCH   5   8
ENDBRANCH   1   2
BRANCH   1  11
ATOM     11  C   UNL d   1     -46.992  13.625  22.943  0.00  0.00     0.100 A 
ATOM     12  C   UNL d   1     -46.307  13.439  22.521  0.00  0.00     0.025 A 
ATOM     13  C   UNL d   1     -45.928  12.714  22.707  0.00  0.00     0.005 A 
ATOM     14  C   UNL d   1     -46.228  12.206  23.289  0.00  0.00     0.039 A 
ATOM     15  C   UNL d   1     -46.910  12.425  23.686  0.00  0.00     0.005 A 
ATOM     16  C   UNL d   1     -47.292  13.133  23.514  0.00  0.00     0.025 A 
BRANCH  14  17
ATOM     17  C   UNL d   1     -45.863  11.509  23.467  0.00  0.00     0.196 C 
ATOM     18  O   UNL d   1     -45.034  11.443  23.418  0.00  0.00    -0.287 OA
ATOM     19  C   UNL d   1     -46.309  10.862  23.698  0.00  0.00     0.045 C 
ENDBRANCH  14  17
ENDBRANCH   1  11
TORSDOF 4
ENDMDL
MODEL 3
REMARK VINA RESULT:      -7.5      1.068      1.424
REMARK  4 active torsions:
REMARK  status: ('A' for Active; 'I' for Inactive)
REMARK    1  A    between atoms: C_4  and  C_1 
REMARK    2  A    between atoms: C_2  and  C_3 
REMARK    3  A    between atoms: O_7  and  C_13 
REMARK    4  A    between atoms: C_12  and  O_7 
ROOT
ATOM      1  O   UNL d   1     -47.669  13.923  23.305  0.00  0.00    -0.307 OA
ENDROOT
BRANCH   1   2
ATOM      2  C   UNL d   1     -46.949  13.589  23.061  0.00  0.00     0.100 A 
ATOM      3  C   UNL d   1     -46.440  14.038  22.611  0.00  0.00     0.025 A 
ATOM      4  C   UNL d   1     -45.713  13.715  22.359  0.00  0.00     0.005 A 
ATOM      5  C   UNL d   1     -45.513  12.959  22.560  0.00  0.00     0.039 A 
ATOM      6  C   UNL d   1     -46.032  12.497  23.021  0.00  0.00     0.005 A 
ATOM      7  C   UNL d   1     -46.759  12.817  23.274  0.00  0.00     0.025 A 
BRANCH   5   8
ATOM      8  C   UNL d   1     -44.788  12.637  22.308  0.00  0.00     0.196 C 
ATOM      9  O   UNL d   1     -44.451  11.986  22.707  0.00  0.00    -0.287 OA
ATOM     10  C   UNL d   1     -44.381  12.948  21.662  0.00  0.00     0.045 C 
ENDBRANCH   5   8
ENDBRANCH   1   2
BRANCH   1  11
ATOM     11  C   UNL d   1     -48.379  13.778  22.888  0.00  0.00     0.100 A 
ATOM     12  C   UNL d   1     -48.874  13.186  23.183  0.00  0.00     0.025 A 
ATOM     13  C   UNL d   1     -49.587  13.039  22.765  0.00  0.00     0.005 A 
ATOM     14  C   UNL d   1     -49.787  13.470  22.086  0.00  0.00     0.039 A 
ATOM     15  C   UNL d   1     -49.271  14.049  21.824  0.00  0.00     0.005 A 
ATOM     16  C   UNL d   1     -48.568  14.204  22.223  0.00  0.00     0.025 A 
BRANCH  14  17
ATOM     17  C   UNL d   1     -50.473  13.329  21.685  0.00  0.00     0.196 C 
ATOM     18  O   UNL d   1     -50.582  12.609  21.280  0.00  0.00    -0.287 OA
ATOM     19  C   UNL d   1     -51.064  13.895  21.676  0.00  0.00     0.045 C 
ENDBRANCH  14  17
ENDBRANCH   1  11
TORSDOF 4
ENDMDL
MODEL 4
REMARK VINA RESULT:      -7.3      1.020      4.296
REMARK  4 active torsions:
REMARK  status: ('A' for Active; 'I' for Inactive)
REMARK    1  A    between atoms: C_4  and  C_1 
REMARK    2  A    between atoms: C_2  and  C_3 
REMARK    3  A    between atoms: O_7  and  C_13 
REMARK    4  A    between atoms: C_12  and  O_7 
ROOT
ATOM      1  O   UNL d   1     -47.798  13.990  23.357  0.00  0.00    -0.307 OA
ENDROOT
BRANCH   1   2
ATOM      2  C   UNL d   1     -48.501  13.845  22.941  0.00  0.00     0.100 A 
ATOM      3  C   UNL d   1     -48.714  14.350  22.338  0.00  0.00     0.025 A 
ATOM      4  C   UNL d   1     -49.418  14.215  21.912  0.00  0.00     0.005 A 
ATOM      5  C   UNL d   1     -49.889  13.586  22.095  0.00  0.00     0.039 A 
ATOM      6  C   UNL d   1     -49.675  13.067  22.712  0.00  0.00     0.005 A 
ATOM      7  C   UNL d   1     -48.971  13.199  23.140  0.00  0.00     0.025 A 
BRANCH   5   8
ATOM      8  C   UNL d   1     -50.592  13.452  21.670  0.00  0.00     0.196 C 
ATOM      9  O   UNL d   1     -50.839  12.675  21.492  0.00  0.00    -0.287 OA
ATOM     10  C   UNL d   1     -51.064  14.077  21.413  0.00  0.00     0.045 C 
ENDBRANCH   5   8
ENDBRANCH   1   2
BRANCH   1  11
ATOM     11  C   UNL d   1     -47.071  13.656  23.113  0.00  0.00     0.100 A 
ATOM     12  C   UNL d   1     -46.609  14.101  22.591  0.00  0.00     0.025 A 
ATOM     13  C   UNL d   1     -45.880  13.768  22.345  0.00  0.00     0.005 A 
ATOM     14  C   UNL d   1     -45.632  13.024  22.613  0.00  0.00     0.039 A 
ATOM     15  C   UNL d   1     -46.117  12.612  23.130  0.00  0.00     0.005 A 
ATOM     16  C   UNL d   1     -46.835  12.927  23.380  0.00  0.00     0.025 A 
BRANCH  14  17
ATOM     17  C   UNL d   1     -44.930  12.704  22.376  0.00  0.00     0.196 C 
ATOM     18  O   UNL d   1     -44.641  12.010  22.737  0.00  0.00    -0.287 OA
ATOM     19  C   UNL d   1     -44.500  13.062  21.778  0.00  0.00     0.045 C 
ENDBRANCH  14  17
ENDBRANCH   1  11
TORSDOF 4
ENDMDL
MODEL 5
REMARK VINA RESULT:      -6.3      8.386      9.910
REMARK  4 active torsions:
REMARK  status: ('A' for Active; 'I' for Inactive)
REMARK    1  A    between atoms: C_4  and  C_1 
REMARK    2  A    between atoms: C_2  and  C_3 
REMARK    3  A    between atoms: O_7  and  C_13 
REMARK    4  A    between atoms: C_12  and  O_7 
ROOT
ATOM      1  O   UNL d   1     -40.509  14.046  18.367  0.00  0.00    -0.307 OA
ENDROOT
BRANCH   1   2
ATOM      2  C   UNL d   1     -39.956  14.128  17.754  0.00  0.00     0.100 A 
ATOM      3  C   UNL d   1     -39.315  13.626  17.731  0.00  0.00     0.025 A 
ATOM      4  C   UNL d   1     -38.752  13.698  17.121  0.00  0.00     0.005 A 
ATOM      5  C   UNL d   1     -38.840  14.264  16.552  0.00  0.00     0.039 A 
ATOM      6  C   UNL d   1     -39.494  14.780  16.571  0.00  0.00     0.005 A 
ATOM      7  C   UNL d   1     -40.059  14.710  17.181  0.00  0.00     0.025 A 
BRANCH   5   8
ATOM      8  C   UNL d   1     -38.277  14.336  15.942  0.00  0.00     0.196 C 
ATOM      9  O   UNL d   1     -37.991  15.086  15.714  0.00  0.00    -0.287 OA
ATOM     10  C   UNL d   1     -37.986  13.674  15.546  0.00  0.00     0.045 C 
ENDBRANCH   5   8
ENDBRANCH   1   2
BRANCH   1  11
ATOM     11  C   UNL d   1     -40.427  14.465  19.086  0.00  0.00     0.100 A 
ATOM     12  C   UNL d   1     -40.108  14.053  19.728  0.00  0.00     0.025 A 
ATOM     13  C   UNL d   1     -40.025  14.472  20.449  0.00  0.00     0.005 A 
ATOM     14  C   UNL d   1     -40.254  15.266  20.518  0.00  0.00     0.039 A 
ATOM     15  C   UNL d   1     -40.566  15.641  19.860  0.00  0.00     0.005 A 
ATOM     16  C   UNL d   1     -40.653  15.243  19.145  0.00  0.00     0.025 A 
BRANCH  14  17
ATOM     17  C   UNL d   1     -40.174  15.668  21.212  0.00  0.00     0.196 C 
ATOM     18  O   UNL d   1     -40.848  15.922  21.631  0.00  0.00    -0.287 OA
ATOM     19  C   UNL d   1     -39.426  15.828  21.508  0.00  0.00     0.045 C 
ENDBRANCH  14  17
ENDBRANCH   1  11
TORSDOF 4
ENDMDL
MODEL 6
REMARK VINA RESULT:      -6.3      8.178      8.969
REMARK  4 active torsions:
REMARK  status: ('A' for Active; 'I' for Inactive)
REMARK    1  A    between atoms: C_4  and  C_1 
REMARK    2  A    between atoms: C_2  and  C_3 
REMARK    3  A    between atoms: O_7  and  C_13 
REMARK    4  A    between atoms: C_12  and  O_7 
ROOT
ATOM      1  O   UNL d   1     -40.936  14.765  20.333  0.00  0.00    -0.307 OA
ENDROOT
BRANCH   1   2
ATOM      2  C   UNL d   1     -40.364  14.969  20.898  0.00  0.00     0.100 A 
ATOM      3  C   UNL d   1     -39.833  14.402  21.143  0.00  0.00     0.025 A 
ATOM      4  C   UNL d   1     -39.253  14.593  21.711  0.00  0.00     0.005 A 
ATOM      5  C   UNL d   1     -39.217  15.339  22.019  0.00  0.00     0.039 A 
ATOM      6  C   UNL d   1     -39.758  15.922  21.771  0.00  0.00     0.005 A 
ATOM      7  C   UNL d   1     -40.340  15.733  21.203  0.00  0.00     0.025 A 
BRANCH   5   8
ATOM      8  C   UNL d   1     -38.638  15.530  22.586  0.00  0.00     0.196 C 
ATOM      9  O   UNL d   1     -38.746  15.327  23.388  0.00  0.00    -0.287 OA
ATOM     10  C   UNL d   1     -37.944  15.922  22.376  0.00  0.00     0.045 C 
ENDBRANCH   5   8
ENDBRANCH   1   2
BRANCH   1  11
ATOM     11  C   UNL d   1     -40.818  14.920  19.519  0.00  0.00     0.100 A 
ATOM     12  C   UNL d   1     -40.610  14.278  19.041  0.00  0.00     0.025 A 
ATOM     13  C   UNL d   1     -40.491  14.431  18.225  0.00  0.00     0.005 A 
ATOM     14  C   UNL d   1     -40.578  15.193  17.910  0.00  0.00     0.039 A 
ATOM     15  C   UNL d   1     -40.784  15.804  18.416  0.00  0.00     0.005 A 
ATOM     16  C   UNL d   1     -40.904  15.669  19.219  0.00  0.00     0.025 A 
BRANCH  14  17
ATOM     17  C   UNL d   1     -40.463  15.340  17.125  0.00  0.00     0.196 C 
ATOM     18  O   UNL d   1     -41.083  15.224  16.581  0.00  0.00    -0.287 OA
ATOM     19  C   UNL d   1     -39.734  15.604  16.862  0.00  0.00     0.045 C 
ENDBRANCH  14  17
ENDBRANCH   1  11
TORSDOF 4
ENDMDL
MODEL 7
REMARK VINA RESULT:      -6.2      8.093      9.388
REMARK  4 active torsions:
REMARK  status: ('A' for Active; 'I' for Inactive)
REMARK    1  A    between atoms: C_4  and  C_1 
REMARK    2  A    between atoms: C_2  and  C_3 
REMARK    3  A    between atoms: O_7  and  C_13 
REMARK    4  A    between atoms: C_12  and  O_7 
ROOT
ATOM      1  O   UNL d   1     -41.089  14.950  20.287  0.00  0.00    -0.307 OA
ENDROOT
BRANCH   1   2
ATOM      2  C   UNL d   1     -40.926  15.010  19.475  0.00  0.00     0.100 A 
ATOM      3  C   UNL d   1     -40.745  14.333  19.059  0.00  0.00     0.025 A 
ATOM      4  C   UNL d   1     -40.579  14.378  18.244  0.00  0.00     0.005 A 
ATOM      5  C   UNL d   1     -40.597  15.091  17.865  0.00  0.00     0.039 A 
ATOM      6  C   UNL d   1     -40.781  15.786  18.287  0.00  0.00     0.005 A 
ATOM      7  C   UNL d   1     -40.947  15.743  19.104  0.00  0.00     0.025 A 
BRANCH   5   8
ATOM      8  C   UNL d   1     -40.431  15.136  17.050  0.00  0.00     0.196 C 
ATOM      9  O   UNL d   1     -41.050  15.185  16.493  0.00  0.00    -0.287 OA
ATOM     10  C   UNL d   1     -39.656  15.135  16.769  0.00  0.00     0.045 C 
ENDBRANCH   5   8
ENDBRANCH   1   2
BRANCH   1  11
ATOM     11  C   UNL d   1     -40.493  15.074  20.861  0.00  0.00     0.100 A 
ATOM     12  C   UNL d   1     -40.077  14.408  21.120  0.00  0.00     0.025 A 
ATOM     13  C   UNL d   1     -39.479  14.530  21.695  0.00  0.00     0.005 A 
ATOM     14  C   UNL d   1     -39.312  15.285  21.992  0.00  0.00     0.039 A 
ATOM     15  C   UNL d   1     -39.745  15.921  21.712  0.00  0.00     0.005 A 
ATOM     16  C   UNL d   1     -40.335  15.817  21.147  0.00  0.00     0.025 A 
BRANCH  14  17
ATOM     17  C   UNL d   1     -38.736  15.401  22.546  0.00  0.00     0.196 C 
ATOM     18  O   UNL d   1     -38.918  15.353  23.358  0.00  0.00    -0.287 OA
ATOM     19  C   UNL d   1     -37.970  15.568  22.309  0.00  0.00     0.045 C 
ENDBRANCH  14  17
ENDBRANCH   1  11
TORSDOF 4
ENDMDL
MODEL 8
REMARK VINA RESULT:      -6.2      8.472      9.996
REMARK  4 active torsions:
REMARK  status: ('A' for Active; 'I' for Inactive)
REMARK    1  A    between atoms: C_4  and  C_1 
REMARK    2  A    between atoms: C_2  and  C_3 
REMARK    3  A    between atoms: O_7  and  C_13 
REMARK    4  A    between atoms: C_12  and  O_7 
ROOT
ATOM      1  O   UNL d   1     -40.579  14.152  18.435  0.00  0.00    -0.307 OA
ENDROOT
BRANCH   1   2
ATOM      2  C   UNL d   1     -40.436  14.540  19.155  0.00  0.00     0.100 A 
ATOM      3  C   UNL d   1     -40.146  14.108  19.783  0.00  0.00     0.025 A 
ATOM      4  C   UNL d   1     -39.997  14.485  20.512  0.00  0.00     0.005 A 
ATOM      5  C   UNL d   1     -40.139  15.275  20.597  0.00  0.00     0.039 A 
ATOM      6  C   UNL d   1     -40.435  15.720  19.957  0.00  0.00     0.005 A 
ATOM      7  C   UNL d   1     -40.585  15.345  19.226  0.00  0.00     0.025 A 
BRANCH   5   8
ATOM      8  C   UNL d   1     -39.991  15.651  21.325  0.00  0.00     0.196 C 
ATOM      9  O   UNL d   1     -40.621  15.922  21.799  0.00  0.00    -0.287 OA
ATOM     10  C   UNL d   1     -39.222  15.767  21.599  0.00  0.00     0.045 C 
ENDBRANCH   5   8
ENDBRANCH   1   2
BRANCH   1  11
ATOM     11  C   UNL d   1     -40.029  14.186  17.806  0.00  0.00     0.100 A 
ATOM     12  C   UNL d   1     -40.126  14.794  17.254  0.00  0.00     0.025 A 
ATOM     13  C   UNL d   1     -39.576  14.829  16.622  0.00  0.00     0.005 A 
ATOM     14  C   UNL d   1     -38.960  14.278  16.553  0.00  0.00     0.039 A 
ATOM     15  C   UNL d   1     -38.897  13.689  17.119  0.00  0.00     0.005 A 
ATOM     16  C   UNL d   1     -39.430  13.642  17.745  0.00  0.00     0.025 A 
BRANCH  14  17
ATOM     17  C   UNL d   1     -38.431  14.312  15.945  0.00  0.00     0.196 C 
ATOM     18  O   UNL d   1     -38.308  13.648  15.456  0.00  0.00    -0.287 OA
ATOM     19  C   UNL d   1     -38.013  15.002  15.807  0.00  0.00     0.045 C 
ENDBRANCH  14  17
ENDBRANCH   1  11
TORSDOF 4
ENDMDL
