MODEL 1
REMARK VINA RESULT:      49.3      0.000      0.000
REMARK  6 active torsions:
REMARK  status: ('A' for Active; 'I' for Inactive)
REMARK    1  A    between atoms: S_10  and  C_3 
REMARK    2  A    between atoms: C_14  and  C_7 
REMARK    3  A    between atoms: C_18  and  S_10 
REMARK       I    between atoms: N_11  and  C_12 
REMARK    4  A    between atoms: C_13  and  N_11 
REMARK    5  A    between atoms: C_12  and  C_18 
REMARK    6  A    between atoms: O_20  and  C_16 
ROOT
ATOM      1  N   UNL d   1      15.001  15.538  -1.277  0.00  0.00    -0.186 N 
ATOM      2  N   UNL d   1      14.842  14.750  -1.126  0.00  0.00    -0.162 NA
ATOM      3  C   UNL d   1      14.718  16.058  -1.856  0.00  0.00     0.217 A 
ATOM      4  C   UNL d   1      15.532  15.958  -0.806  0.00  0.00     0.187 A 
ATOM      5  N   UNL d   1      15.076  16.784  -1.734  0.00  0.00    -0.120 NA
ATOM      6  N   UNL d   1      15.581  16.724  -1.084  0.00  0.00    -0.127 NA
ATOM      7  C   UNL d   1      15.219  14.372  -0.494  0.00  0.00     0.103 A 
ATOM      8  C   UNL d   1      15.909  15.576  -0.172  0.00  0.00     0.042 A 
ATOM      9  C   UNL d   1      15.753  14.790  -0.018  0.00  0.00     0.024 A 
ENDROOT
BRANCH   3  10
ATOM     10  S   UNL d   1      14.174  15.893  -2.455  0.00  0.00    -0.041 SA
BRANCH  10  11
ATOM     11  C   UNL d   1      14.405  15.901  -3.236  0.00  0.00     0.101 C 
BRANCH  11  12
ATOM     12  C   UNL d   1      14.097  15.357  -3.761  0.00  0.00     0.286 C 
ATOM     13  N   UNL d   1      13.701  14.682  -3.494  0.00  0.00    -0.206 NA
ATOM     14  O   UNL d   1      14.176  15.474  -4.574  0.00  0.00    -0.265 OA
BRANCH  13  15
ATOM     15  C   UNL d   1      13.389  14.132  -4.026  0.00  0.00     0.107 A 
ATOM     16  C   UNL d   1      13.255  13.356  -3.793  0.00  0.00     0.112 A 
ATOM     17  C   UNL d   1      12.941  12.809  -4.333  0.00  0.00     0.026 A 
ATOM     18  C   UNL d   1      12.769  13.053  -5.095  0.00  0.00     0.002 A 
ATOM     19  C   UNL d   1      12.897  13.824  -5.340  0.00  0.00     0.002 A 
ATOM     20  C   UNL d   1      13.211  14.371  -4.799  0.00  0.00     0.021 A 
BRANCH  16  21
ATOM     21  O   UNL d   1      13.436  13.123  -3.013  0.00  0.00    -0.327 OA
ATOM     22  C   UNL d   1      13.737  12.363  -2.868  0.00  0.00     0.181 C 
ENDBRANCH  16  21
ENDBRANCH  13  15
ENDBRANCH  11  12
ENDBRANCH  10  11
ENDBRANCH   3  10
BRANCH   7  23
ATOM     23  C   UNL d   1      15.053  13.575  -0.347  0.00  0.00     0.039 A 
ATOM     24  C   UNL d   1      14.304  13.332  -0.162  0.00  0.00     0.101 A 
ATOM     25  N   UNL d   1      14.147  12.548  -0.019  0.00  0.00    -0.242 NA
ATOM     26  C   UNL d   1      14.753  11.987  -0.060  0.00  0.00     0.099 A 
ATOM     27  C   UNL d   1      15.516  12.233  -0.248  0.00  0.00     0.021 A 
ATOM     28  C   UNL d   1      15.673  13.031  -0.393  0.00  0.00     0.005 A 
ENDBRANCH   7  23
TORSDOF 6
ENDMDL
