MODEL 1
REMARK VINA RESULT:      26.2      0.000      0.000
REMARK  3 active torsions:
REMARK  status: ('A' for Active; 'I' for Inactive)
REMARK    1  A    between atoms: S_4  and  C_1 
REMARK    2  A    between atoms: C_8  and  S_4 
REMARK    3  A    between atoms: C_10  and  C_8 
ROOT
ATOM      1  C   UNL d   1     -51.178  24.873  33.324  0.00  0.00     0.114 A 
ATOM      2  C   UNL d   1     -51.891  24.465  33.359  0.00  0.00     0.042 A 
ATOM      3  N   UNL d   1     -50.468  24.453  33.306  0.00  0.00    -0.217 NA
ATOM      4  N   UNL d   1     -51.190  23.219  33.359  0.00  0.00    -0.224 NA
ATOM      5  C   UNL d   1     -50.474  23.626  33.324  0.00  0.00     0.200 A 
ATOM      6  C   UNL d   1     -51.897  23.638  33.377  0.00  0.00     0.085 A 
ATOM      7  C   UNL d   1     -52.601  24.884  33.377  0.00  0.00     0.004 A 
ATOM      8  C   UNL d   1     -52.613  23.231  33.412  0.00  0.00     0.019 A 
ATOM      9  C   UNL d   1     -53.318  24.476  33.412  0.00  0.00     0.000 A 
ATOM     10  C   UNL d   1     -53.324  23.649  33.430  0.00  0.00     0.002 A 
ENDROOT
BRANCH   1  11
ATOM     11  S   UNL d   1     -51.172  25.699  33.307  0.00  0.00    -0.067 SA
BRANCH  11  12
ATOM     12  C   UNL d   1     -50.466  26.109  33.358  0.00  0.00     0.037 C 
BRANCH  12  13
ATOM     13  C   UNL d   1     -50.463  26.927  33.366  0.00  0.00     0.007 A 
ATOM     14  C   UNL d   1     -49.751  27.352  33.434  0.00  0.00     0.003 A 
ATOM     15  C   UNL d   1     -49.759  28.168  33.441  0.00  0.00     0.030 A 
ATOM     16  C   UNL d   1     -50.468  28.571  33.381  0.00  0.00     0.140 A 
ATOM     17  C   UNL d   1     -51.173  28.161  33.314  0.00  0.00     0.030 A 
ATOM     18  F   UNL d   1     -50.473  29.403  33.388  0.00  0.00    -0.204 F 
ATOM     19  C   UNL d   1     -51.180  27.335  33.306  0.00  0.00     0.003 A 
ENDBRANCH  12  13
ENDBRANCH  11  12
ENDBRANCH   1  11
TORSDOF 3
ENDMDL
