MODEL 1
REMARK VINA RESULT:      37.8      0.000      0.000
REMARK  5 active torsions:
REMARK  status: ('A' for Active; 'I' for Inactive)
REMARK    1  A    between atoms: C_6  and  N_1 
REMARK    2  A    between atoms: C_7  and  C_6 
REMARK    3  A    between atoms: C_8  and  C_7 
REMARK       I    between atoms: N_11  and  C_8 
REMARK    4  A    between atoms: C_13  and  N_11 
REMARK    5  A    between atoms: C_16  and  C_13 
ROOT
ATOM      1  C   UNL d   1      13.732  13.267  -1.969  0.00  0.00     0.091 C 
ENDROOT
BRANCH   1   2
ATOM      2  N   UNL d   1      13.550  13.018  -2.769  0.00  0.00    -0.240 N 
ATOM      3  C   UNL d   1      13.162  12.349  -2.989  0.00  0.00     0.267 A 
ATOM      4  C   UNL d   1      13.119  12.349  -3.793  0.00  0.00     0.061 A 
ATOM      5  O   UNL d   1      12.874  11.779  -2.410  0.00  0.00    -0.267 OA
ATOM      6  C   UNL d   1      12.772  11.782  -4.331  0.00  0.00     0.005 A 
ATOM      7  C   UNL d   1      13.475  13.011  -4.080  0.00  0.00     0.061 A 
ATOM      8  C   UNL d   1      12.807  11.925  -5.158  0.00  0.00     0.000 A 
ATOM      9  C   UNL d   1      13.163  12.586  -5.445  0.00  0.00     0.000 A 
ATOM     10  C   UNL d   1      13.507  13.149  -4.924  0.00  0.00     0.005 A 
ATOM     11  C   UNL d   1      13.755  13.451  -3.467  0.00  0.00     0.267 A 
ATOM     12  O   UNL d   1      14.178  14.203  -3.462  0.00  0.00    -0.267 OA
ENDBRANCH   1   2
BRANCH   1  13
ATOM     13  C   UNL d   1      14.300  12.879  -1.575  0.00  0.00     0.082 C 
BRANCH  13  14
ATOM     14  C   UNL d   1      14.634  13.246  -0.877  0.00  0.00     0.281 C 
ATOM     15  N   UNL d   1      14.738  14.103  -0.895  0.00  0.00    -0.206 NA
ATOM     16  O   UNL d   1      14.833  12.791  -0.250  0.00  0.00    -0.265 OA
BRANCH  15  17
ATOM     17  C   UNL d   1      15.072  14.470  -0.197  0.00  0.00     0.102 C 
BRANCH  17  18
ATOM     18  C   UNL d   1      15.363  15.240  -0.271  0.00  0.00     0.019 A 
ATOM     19  C   UNL d   1      14.937  15.835  -0.562  0.00  0.00     0.002 A 
ATOM     20  C   UNL d   1      15.229  16.597  -0.634  0.00  0.00     0.000 A 
ATOM     21  C   UNL d   1      16.033  16.745  -0.378  0.00  0.00     0.000 A 
ATOM     22  C   UNL d   1      16.471  16.117  -0.074  0.00  0.00     0.000 A 
ATOM     23  C   UNL d   1      16.168  15.389  -0.015  0.00  0.00     0.002 A 
ENDBRANCH  17  18
ENDBRANCH  15  17
ENDBRANCH  13  14
ENDBRANCH   1  13
TORSDOF 5
ENDMDL
MODEL 2
REMARK VINA RESULT:      39.8      2.152      3.824
REMARK  5 active torsions:
REMARK  status: ('A' for Active; 'I' for Inactive)
REMARK    1  A    between atoms: C_6  and  N_1 
REMARK    2  A    between atoms: C_7  and  C_6 
REMARK    3  A    between atoms: C_8  and  C_7 
REMARK       I    between atoms: N_11  and  C_8 
REMARK    4  A    between atoms: C_13  and  N_11 
REMARK    5  A    between atoms: C_16  and  C_13 
ROOT
ATOM      1  C   UNL d   1      13.087  13.876  -3.912  0.00  0.00     0.091 C 
ENDROOT
BRANCH   1   2
ATOM      2  N   UNL d   1      13.572  14.581  -3.966  0.00  0.00    -0.240 N 
ATOM      3  C   UNL d   1      13.883  14.902  -4.634  0.00  0.00     0.267 A 
ATOM      4  C   UNL d   1      14.296  15.557  -4.417  0.00  0.00     0.061 A 
ATOM      5  O   UNL d   1      13.752  14.551  -5.411  0.00  0.00    -0.267 OA
ATOM      6  C   UNL d   1      14.741  16.116  -4.888  0.00  0.00     0.005 A 
ATOM      7  C   UNL d   1      14.249  15.651  -3.619  0.00  0.00     0.061 A 
ATOM      8  C   UNL d   1      15.125  16.760  -4.509  0.00  0.00     0.000 A 
ATOM      9  C   UNL d   1      15.078  16.854  -3.712  0.00  0.00     0.000 A 
ATOM     10  C   UNL d   1      14.644  16.310  -3.241  0.00  0.00     0.005 A 
ATOM     11  C   UNL d   1      13.804  15.058  -3.306  0.00  0.00     0.267 A 
ATOM     12  O   UNL d   1      13.580  14.894  -2.490  0.00  0.00    -0.267 OA
ENDBRANCH   1   2
BRANCH   1  13
ATOM     13  C   UNL d   1      13.390  13.190  -4.166  0.00  0.00     0.082 C 
BRANCH  13  14
ATOM     14  C   UNL d   1      13.272  12.490  -3.687  0.00  0.00     0.281 C 
ATOM     15  N   UNL d   1      13.643  12.480  -2.908  0.00  0.00    -0.206 NA
ATOM     16  O   UNL d   1      12.831  11.887  -3.973  0.00  0.00    -0.265 OA
BRANCH  15  17
ATOM     17  C   UNL d   1      13.525  11.780  -2.428  0.00  0.00     0.102 C 
BRANCH  17  18
ATOM     18  C   UNL d   1      13.800  11.797  -1.649  0.00  0.00     0.019 A 
ATOM     19  C   UNL d   1      13.322  11.782  -1.024  0.00  0.00     0.002 A 
ATOM     20  C   UNL d   1      13.598  11.799  -0.252  0.00  0.00     0.000 A 
ATOM     21  C   UNL d   1      14.445  11.836  -0.130  0.00  0.00     0.000 A 
ATOM     22  C   UNL d   1      14.938  11.852  -0.790  0.00  0.00     0.000 A 
ATOM     23  C   UNL d   1      14.647  11.834  -1.526  0.00  0.00     0.002 A 
ENDBRANCH  17  18
ENDBRANCH  15  17
ENDBRANCH  13  14
ENDBRANCH   1  13
TORSDOF 5
ENDMDL
