MODEL 1
REMARK VINA RESULT:      -2.0      0.000      0.000
REMARK  4 active torsions:
REMARK  status: ('A' for Active; 'I' for Inactive)
REMARK    1  A    between atoms: N_6  and  C_1 
REMARK    2  A    between atoms: C_8  and  N_4 
REMARK    3  A    between atoms: C_9  and  N_6 
REMARK    4  A    between atoms: C_13  and  C_9 
ROOT
ATOM      1  C   UNL d   1      33.091  20.250 -22.854  0.00  0.00     0.157 A 
ATOM      2  C   UNL d   1      32.922  19.453 -22.729  0.00  0.00     0.298 A 
ATOM      3  N   UNL d   1      32.919  19.655 -24.040  0.00  0.00    -0.238 N 
ATOM      4  N   UNL d   1      32.817  19.087 -23.466  0.00  0.00    -0.209 N 
ATOM      5  C   UNL d   1      33.093  20.393 -23.667  0.00  0.00     0.104 A 
ATOM      6  O   UNL d   1      32.867  19.070 -21.971  0.00  0.00    -0.263 OA
ATOM      7  C   UNL d   1      32.864  19.544 -24.915  0.00  0.00     0.120 C 
ATOM      8  C   UNL d   1      33.240  21.140 -24.064  0.00  0.00     0.022 C 
ENDROOT
BRANCH   1   9
ATOM      9  N   UNL d   1      33.238  20.832 -22.254  0.00  0.00    -0.238 NA
BRANCH   9  10
ATOM     10  C   UNL d   1      32.640  21.068 -21.735  0.00  0.00     0.099 C 
BRANCH  10  11
ATOM     11  C   UNL d   1      32.776  21.701 -21.206  0.00  0.00     0.022 A 
ATOM     12  C   UNL d   1      32.899  21.548 -20.427  0.00  0.00     0.022 A 
ATOM     13  C   UNL d   1      33.035  22.176 -19.898  0.00  0.00     0.099 A 
ATOM     14  N   UNL d   1      33.047  22.937 -20.145  0.00  0.00    -0.242 NA
ATOM     15  C   UNL d   1      32.924  23.117 -20.936  0.00  0.00     0.099 A 
ATOM     16  C   UNL d   1      32.784  22.478 -21.485  0.00  0.00     0.022 A 
ENDBRANCH  10  11
ENDBRANCH   9  10
ENDBRANCH   1   9
BRANCH   4  17
ATOM     17  C   UNL d   1      32.635  18.266 -23.560  0.00  0.00     0.085 A 
ATOM     18  C   UNL d   1      31.865  18.015 -23.462  0.00  0.00     0.019 A 
ATOM     19  C   UNL d   1      31.682  17.189 -23.556  0.00  0.00     0.002 A 
ATOM     20  C   UNL d   1      32.282  16.668 -23.742  0.00  0.00     0.000 A 
ATOM     21  C   UNL d   1      33.058  16.918 -23.841  0.00  0.00     0.002 A 
ATOM     22  C   UNL d   1      33.241  17.744 -23.747  0.00  0.00     0.019 A 
ENDBRANCH   4  17
TORSDOF 4
ENDMDL
MODEL 2
REMARK VINA RESULT:      -1.6      1.035      4.622
REMARK  4 active torsions:
REMARK  status: ('A' for Active; 'I' for Inactive)
REMARK    1  A    between atoms: N_6  and  C_1 
REMARK    2  A    between atoms: C_8  and  N_4 
REMARK    3  A    between atoms: C_9  and  N_6 
REMARK    4  A    between atoms: C_13  and  C_9 
ROOT
ATOM      1  C   UNL d   1      33.112  20.860 -22.493  0.00  0.00     0.157 A 
ATOM      2  C   UNL d   1      32.970  21.115 -21.721  0.00  0.00     0.298 A 
ATOM      3  N   UNL d   1      32.971  22.191 -22.498  0.00  0.00    -0.238 N 
ATOM      4  N   UNL d   1      32.883  21.940 -21.729  0.00  0.00    -0.209 N 
ATOM      5  C   UNL d   1      33.116  21.519 -22.990  0.00  0.00     0.104 A 
ATOM      6  O   UNL d   1      32.922  20.616 -21.035  0.00  0.00    -0.263 OA
ATOM      7  C   UNL d   1      32.926  23.022 -22.796  0.00  0.00     0.120 C 
ATOM      8  C   UNL d   1      33.241  21.530 -23.840  0.00  0.00     0.022 C 
ENDROOT
BRANCH   1   9
ATOM      9  N   UNL d   1      33.235  20.058 -22.742  0.00  0.00    -0.238 NA
BRANCH   9  10
ATOM     10  C   UNL d   1      32.614  19.512 -22.736  0.00  0.00     0.099 C 
BRANCH  10  11
ATOM     11  C   UNL d   1      32.713  18.769 -23.108  0.00  0.00     0.022 A 
ATOM     12  C   UNL d   1      32.435  18.660 -23.854  0.00  0.00     0.022 A 
ATOM     13  C   UNL d   1      32.532  17.922 -24.227  0.00  0.00     0.099 A 
ATOM     14  N   UNL d   1      32.896  17.311 -23.860  0.00  0.00    -0.242 NA
ATOM     15  C   UNL d   1      33.188  17.401 -23.098  0.00  0.00     0.099 A 
ATOM     16  C   UNL d   1      33.093  18.155 -22.709  0.00  0.00     0.022 A 
ENDBRANCH  10  11
ENDBRANCH   9  10
ENDBRANCH   1   9
BRANCH   4  17
ATOM     17  C   UNL d   1      32.731  22.401 -21.036  0.00  0.00     0.085 A 
ATOM     18  C   UNL d   1      32.199  23.018 -21.078  0.00  0.00     0.019 A 
ATOM     19  C   UNL d   1      32.045  23.482 -20.381  0.00  0.00     0.002 A 
ATOM     20  C   UNL d   1      32.435  23.298 -19.687  0.00  0.00     0.000 A 
ATOM     21  C   UNL d   1      32.971  22.678 -19.642  0.00  0.00     0.002 A 
ATOM     22  C   UNL d   1      33.124  22.214 -20.339  0.00  0.00     0.019 A 
ENDBRANCH   4  17
TORSDOF 4
ENDMDL
MODEL 3
REMARK VINA RESULT:      -0.2      1.332      4.708
REMARK  4 active torsions:
REMARK  status: ('A' for Active; 'I' for Inactive)
REMARK    1  A    between atoms: N_6  and  C_1 
REMARK    2  A    between atoms: C_8  and  N_4 
REMARK    3  A    between atoms: C_9  and  N_6 
REMARK    4  A    between atoms: C_13  and  C_9 
ROOT
ATOM      1  C   UNL d   1      33.214  19.994 -22.926  0.00  0.00     0.157 A 
ATOM      2  C   UNL d   1      33.214  20.683 -23.379  0.00  0.00     0.298 A 
ATOM      3  N   UNL d   1      33.166  21.049 -22.105  0.00  0.00    -0.238 N 
ATOM      4  N   UNL d   1      33.183  21.334 -22.867  0.00  0.00    -0.209 N 
ATOM      5  C   UNL d   1      33.185  20.204 -22.129  0.00  0.00     0.104 A 
ATOM      6  O   UNL d   1      33.239  20.719 -24.228  0.00  0.00    -0.263 OA
ATOM      7  C   UNL d   1      33.132  21.521 -21.359  0.00  0.00     0.120 C 
ATOM      8  C   UNL d   1      33.175  19.677 -21.450  0.00  0.00     0.022 C 
ENDROOT
BRANCH   1   9
ATOM      9  N   UNL d   1      33.241  19.199 -23.222  0.00  0.00    -0.238 NA
BRANCH   9  10
ATOM     10  C   UNL d   1      32.547  18.797 -23.423  0.00  0.00     0.099 C 
BRANCH  10  11
ATOM     11  C   UNL d   1      32.592  18.025 -23.740  0.00  0.00     0.022 A 
ATOM     12  C   UNL d   1      32.101  17.452 -23.460  0.00  0.00     0.022 A 
ATOM     13  C   UNL d   1      32.144  16.682 -23.773  0.00  0.00     0.099 A 
ATOM     14  N   UNL d   1      32.664  16.492 -24.349  0.00  0.00    -0.242 NA
ATOM     15  C   UNL d   1      33.175  17.060 -24.650  0.00  0.00     0.099 A 
ATOM     16  C   UNL d   1      33.137  17.852 -24.334  0.00  0.00     0.022 A 
ENDBRANCH  10  11
ENDBRANCH   9  10
ENDBRANCH   1   9
BRANCH   4  17
ATOM     17  C   UNL d   1      33.174  22.138 -23.131  0.00  0.00     0.085 A 
ATOM     18  C   UNL d   1      33.101  22.294 -23.929  0.00  0.00     0.019 A 
ATOM     19  C   UNL d   1      33.092  23.102 -24.195  0.00  0.00     0.002 A 
ATOM     20  C   UNL d   1      33.157  23.702 -23.646  0.00  0.00     0.000 A 
ATOM     21  C   UNL d   1      33.231  23.548 -22.843  0.00  0.00     0.002 A 
ATOM     22  C   UNL d   1      33.240  22.740 -22.577  0.00  0.00     0.019 A 
ENDBRANCH   4  17
TORSDOF 4
ENDMDL
MODEL 4
REMARK VINA RESULT:       1.0      0.890      1.310
REMARK  4 active torsions:
REMARK  status: ('A' for Active; 'I' for Inactive)
REMARK    1  A    between atoms: N_6  and  C_1 
REMARK    2  A    between atoms: C_8  and  N_4 
REMARK    3  A    between atoms: C_9  and  N_6 
REMARK    4  A    between atoms: C_13  and  C_9 
ROOT
ATOM      1  C   UNL d   1      33.049  19.105 -23.101  0.00  0.00     0.157 A 
ATOM      2  C   UNL d   1      32.900  18.317 -22.909  0.00  0.00     0.298 A 
ATOM      3  N   UNL d   1      32.789  18.429 -24.226  0.00  0.00    -0.238 N 
ATOM      4  N   UNL d   1      32.739  17.902 -23.608  0.00  0.00    -0.209 N 
ATOM      5  C   UNL d   1      32.984  19.192 -23.919  0.00  0.00     0.104 A 
ATOM      6  O   UNL d   1      32.909  17.987 -22.125  0.00  0.00    -0.263 OA
ATOM      7  C   UNL d   1      32.664  18.259 -25.085  0.00  0.00     0.120 C 
ATOM      8  C   UNL d   1      33.091  19.911 -24.377  0.00  0.00     0.022 C 
ENDROOT
BRANCH   1   9
ATOM      9  N   UNL d   1      33.238  19.727 -22.556  0.00  0.00    -0.238 NA
BRANCH   9  10
ATOM     10  C   UNL d   1      32.649  20.086 -22.100  0.00  0.00     0.099 C 
BRANCH  10  11
ATOM     11  C   UNL d   1      32.849  20.713 -21.584  0.00  0.00     0.022 A 
ATOM     12  C   UNL d   1      32.858  21.468 -21.862  0.00  0.00     0.022 A 
ATOM     13  C   UNL d   1      33.056  22.094 -21.351  0.00  0.00     0.099 A 
ATOM     14  N   UNL d   1      33.241  21.966 -20.583  0.00  0.00    -0.242 NA
ATOM     15  C   UNL d   1      33.238  21.204 -20.278  0.00  0.00     0.099 A 
ATOM     16  C   UNL d   1      33.036  20.556 -20.796  0.00  0.00     0.022 A 
ENDBRANCH  10  11
ENDBRANCH   9  10
ENDBRANCH   1   9
BRANCH   4  17
ATOM     17  C   UNL d   1      32.560  17.075 -23.631  0.00  0.00     0.085 A 
ATOM     18  C   UNL d   1      31.779  16.837 -23.610  0.00  0.00     0.019 A 
ATOM     19  C   UNL d   1      31.599  16.005 -23.633  0.00  0.00     0.002 A 
ATOM     20  C   UNL d   1      32.210  15.466 -23.676  0.00  0.00     0.000 A 
ATOM     21  C   UNL d   1      32.996  15.704 -23.697  0.00  0.00     0.002 A 
ATOM     22  C   UNL d   1      33.176  16.535 -23.674  0.00  0.00     0.019 A 
ENDBRANCH   4  17
TORSDOF 4
ENDMDL
