MODEL 1
REMARK VINA RESULT:      -7.9      0.000      0.000
REMARK  6 active torsions:
REMARK  status: ('A' for Active; 'I' for Inactive)
REMARK    1  A    between atoms: C_8  and  C_1 
REMARK    2  A    between atoms: C_7  and  C_2 
REMARK    3  A    between atoms: O_11  and  C_7 
REMARK    4  A    between atoms: O_12  and  C_8 
REMARK    5  A    between atoms: C_16  and  O_11 
REMARK    6  A    between atoms: C_15  and  O_12 
ROOT
ATOM      1  C   UNL d   1      52.870  34.202  53.660  0.00  0.00     0.081 A 
ATOM      2  C   UNL d   1      53.751  33.121  53.989  0.00  0.00     0.081 A 
ATOM      3  N   UNL d   1      53.735  34.303  54.792  0.00  0.00    -0.245 NA
ATOM      4  C   UNL d   1      54.035  33.549  54.635  0.00  0.00     0.086 A 
ATOM      5  C   UNL d   1      53.154  34.630  54.306  0.00  0.00     0.086 A 
ATOM      6  C   UNL d   1      53.170  33.450  53.505  0.00  0.00     0.014 A 
ATOM      7  C   UNL d   1      52.862  35.388  54.475  0.00  0.00     0.021 C 
ATOM      8  C   UNL d   1      54.631  33.218  55.136  0.00  0.00     0.021 C 
ENDROOT
BRANCH   1   9
ATOM      9  C   UNL d   1      52.284  34.517  53.160  0.00  0.00     0.302 C 
ATOM     10  O   UNL d   1      52.473  35.071  52.580  0.00  0.00    -0.259 OA
BRANCH   9  11
ATOM     11  O   UNL d   1      51.502  34.268  53.250  0.00  0.00    -0.271 OA
BRANCH  11  12
ATOM     12  C   UNL d   1      50.960  34.368  52.639  0.00  0.00     0.126 C 
ATOM     13  C   UNL d   1      50.230  34.162  52.774  0.00  0.00     0.029 C 
ENDBRANCH  11  12
ENDBRANCH   9  11
ENDBRANCH   1   9
BRANCH   2  14
ATOM     14  C   UNL d   1      54.060  32.357  53.838  0.00  0.00     0.302 C 
ATOM     15  O   UNL d   1      54.827  32.264  53.595  0.00  0.00    -0.259 OA
BRANCH  14  16
ATOM     16  O   UNL d   1      53.561  31.682  53.943  0.00  0.00    -0.271 OA
BRANCH  16  17
ATOM     17  C   UNL d   1      53.748  30.975  53.593  0.00  0.00     0.126 C 
ATOM     18  C   UNL d   1      53.207  30.258  53.626  0.00  0.00     0.029 C 
ENDBRANCH  16  17
ENDBRANCH  14  16
ENDBRANCH   2  14
TORSDOF 6
ENDMDL
MODEL 2
REMARK VINA RESULT:      -7.7      0.218      3.202
REMARK  6 active torsions:
REMARK  status: ('A' for Active; 'I' for Inactive)
REMARK    1  A    between atoms: C_8  and  C_1 
REMARK    2  A    between atoms: C_7  and  C_2 
REMARK    3  A    between atoms: O_11  and  C_7 
REMARK    4  A    between atoms: O_12  and  C_8 
REMARK    5  A    between atoms: C_16  and  O_11 
REMARK    6  A    between atoms: C_15  and  O_12 
ROOT
ATOM      1  C   UNL d   1      53.631  32.933  53.950  0.00  0.00     0.081 A 
ATOM      2  C   UNL d   1      52.810  34.063  53.626  0.00  0.00     0.081 A 
ATOM      3  N   UNL d   1      53.639  34.089  54.790  0.00  0.00    -0.245 NA
ATOM      4  C   UNL d   1      53.090  34.457  54.295  0.00  0.00     0.086 A 
ATOM      5  C   UNL d   1      53.910  33.328  54.618  0.00  0.00     0.086 A 
ATOM      6  C   UNL d   1      53.083  33.303  53.457  0.00  0.00     0.014 A 
ATOM      7  C   UNL d   1      54.463  32.970  55.124  0.00  0.00     0.021 C 
ATOM      8  C   UNL d   1      52.815  35.238  54.475  0.00  0.00     0.021 C 
ENDROOT
BRANCH   1   9
ATOM      9  C   UNL d   1      53.894  32.167  53.762  0.00  0.00     0.302 C 
ATOM     10  O   UNL d   1      54.677  32.026  53.547  0.00  0.00    -0.259 OA
BRANCH   9  11
ATOM     11  O   UNL d   1      53.359  31.539  53.794  0.00  0.00    -0.271 OA
BRANCH  11  12
ATOM     12  C   UNL d   1      53.553  30.809  53.467  0.00  0.00     0.126 C 
ATOM     13  C   UNL d   1      53.002  30.270  53.449  0.00  0.00     0.029 C 
ENDBRANCH  11  12
ENDBRANCH   9  11
ENDBRANCH   1   9
BRANCH   2  14
ATOM     14  C   UNL d   1      52.253  34.444  53.131  0.00  0.00     0.302 C 
ATOM     15  O   UNL d   1      52.491  35.005  52.598  0.00  0.00    -0.259 OA
BRANCH  14  16
ATOM     16  O   UNL d   1      51.435  34.237  53.194  0.00  0.00    -0.271 OA
BRANCH  16  17
ATOM     17  C   UNL d   1      50.926  34.381  52.580  0.00  0.00     0.126 C 
ATOM     18  C   UNL d   1      50.038  34.262  52.645  0.00  0.00     0.029 C 
ENDBRANCH  16  17
ENDBRANCH  14  16
ENDBRANCH   2  14
TORSDOF 6
ENDMDL
MODEL 3
REMARK VINA RESULT:      -7.1      1.715      3.014
REMARK  6 active torsions:
REMARK  status: ('A' for Active; 'I' for Inactive)
REMARK    1  A    between atoms: C_8  and  C_1 
REMARK    2  A    between atoms: C_7  and  C_2 
REMARK    3  A    between atoms: O_11  and  C_7 
REMARK    4  A    between atoms: O_12  and  C_8 
REMARK    5  A    between atoms: C_16  and  O_11 
REMARK    6  A    between atoms: C_15  and  O_12 
ROOT
ATOM      1  C   UNL d   1      53.364  32.443  53.886  0.00  0.00     0.081 A 
ATOM      2  C   UNL d   1      53.377  31.048  53.558  0.00  0.00     0.081 A 
ATOM      3  N   UNL d   1      52.647  31.969  52.745  0.00  0.00    -0.245 NA
ATOM      4  C   UNL d   1      52.894  31.197  52.906  0.00  0.00     0.086 A 
ATOM      5  C   UNL d   1      52.881  32.592  53.234  0.00  0.00     0.086 A 
ATOM      6  C   UNL d   1      53.609  31.673  54.045  0.00  0.00     0.014 A 
ATOM      7  C   UNL d   1      52.625  33.361  53.059  0.00  0.00     0.021 C 
ATOM      8  C   UNL d   1      52.651  30.561  52.402  0.00  0.00     0.021 C 
ENDROOT
BRANCH   1   9
ATOM      9  C   UNL d   1      53.609  33.059  54.387  0.00  0.00     0.302 C 
ATOM     10  O   UNL d   1      53.059  33.520  54.795  0.00  0.00    -0.259 OA
BRANCH   9  11
ATOM     11  O   UNL d   1      54.415  33.210  54.477  0.00  0.00    -0.271 OA
BRANCH  11  12
ATOM     12  C   UNL d   1      54.685  33.686  55.091  0.00  0.00     0.126 C 
ATOM     13  C   UNL d   1      55.437  33.857  55.105  0.00  0.00     0.029 C 
ENDBRANCH  11  12
ENDBRANCH   9  11
ENDBRANCH   1   9
BRANCH   2  14
ATOM     14  C   UNL d   1      53.622  30.262  53.714  0.00  0.00     0.302 C 
ATOM     15  O   UNL d   1      54.200  29.915  53.266  0.00  0.00    -0.259 OA
BRANCH  14  16
ATOM     16  O   UNL d   1      53.258  29.834  54.346  0.00  0.00    -0.271 OA
BRANCH  16  17
ATOM     17  C   UNL d   1      53.516  29.091  54.542  0.00  0.00     0.126 C 
ATOM     18  C   UNL d   1      53.258  28.667  55.290  0.00  0.00     0.029 C 
ENDBRANCH  16  17
ENDBRANCH  14  16
ENDBRANCH   2  14
TORSDOF 6
ENDMDL
MODEL 4
REMARK VINA RESULT:      -7.0      1.410      2.801
REMARK  6 active torsions:
REMARK  status: ('A' for Active; 'I' for Inactive)
REMARK    1  A    between atoms: C_8  and  C_1 
REMARK    2  A    between atoms: C_7  and  C_2 
REMARK    3  A    between atoms: O_11  and  C_7 
REMARK    4  A    between atoms: O_12  and  C_8 
REMARK    5  A    between atoms: C_16  and  O_11 
REMARK    6  A    between atoms: C_15  and  O_12 
ROOT
ATOM      1  C   UNL d   1      53.033  34.224  54.170  0.00  0.00     0.081 A 
ATOM      2  C   UNL d   1      52.244  33.375  53.328  0.00  0.00     0.081 A 
ATOM      3  N   UNL d   1      52.201  34.793  53.158  0.00  0.00    -0.245 NA
ATOM      4  C   UNL d   1      51.952  34.038  52.933  0.00  0.00     0.086 A 
ATOM      5  C   UNL d   1      52.741  34.887  53.775  0.00  0.00     0.086 A 
ATOM      6  C   UNL d   1      52.783  33.472  53.945  0.00  0.00     0.014 A 
ATOM      7  C   UNL d   1      52.983  35.651  53.989  0.00  0.00     0.021 C 
ATOM      8  C   UNL d   1      51.398  33.946  52.299  0.00  0.00     0.021 C 
ENDROOT
BRANCH   1   9
ATOM      9  C   UNL d   1      53.577  34.301  54.793  0.00  0.00     0.302 C 
ATOM     10  O   UNL d   1      53.356  34.641  55.512  0.00  0.00    -0.259 OA
BRANCH   9  11
ATOM     11  O   UNL d   1      54.351  34.033  54.689  0.00  0.00    -0.271 OA
BRANCH  11  12
ATOM     12  C   UNL d   1      54.815  33.833  55.338  0.00  0.00     0.126 C 
ATOM     13  C   UNL d   1      55.564  33.700  55.213  0.00  0.00     0.029 C 
ENDBRANCH  11  12
ENDBRANCH   9  11
ENDBRANCH   1   9
BRANCH   2  14
ATOM     14  C   UNL d   1      51.984  32.613  53.093  0.00  0.00     0.302 C 
ATOM     15  O   UNL d   1      51.202  32.412  53.139  0.00  0.00    -0.259 OA
BRANCH  14  16
ATOM     16  O   UNL d   1      52.552  32.055  52.807  0.00  0.00    -0.271 OA
BRANCH  16  17
ATOM     17  C   UNL d   1      52.413  31.259  52.869  0.00  0.00     0.126 C 
ATOM     18  C   UNL d   1      53.062  30.643  52.789  0.00  0.00     0.029 C 
ENDBRANCH  16  17
ENDBRANCH  14  16
ENDBRANCH   2  14
TORSDOF 6
ENDMDL
MODEL 5
REMARK VINA RESULT:      -7.0      1.739      3.995
REMARK  6 active torsions:
REMARK  status: ('A' for Active; 'I' for Inactive)
REMARK    1  A    between atoms: C_8  and  C_1 
REMARK    2  A    between atoms: C_7  and  C_2 
REMARK    3  A    between atoms: O_11  and  C_7 
REMARK    4  A    between atoms: O_12  and  C_8 
REMARK    5  A    between atoms: C_16  and  O_11 
REMARK    6  A    between atoms: C_15  and  O_12 
ROOT
ATOM      1  C   UNL d   1      53.370  30.911  53.551  0.00  0.00     0.081 A 
ATOM      2  C   UNL d   1      53.347  32.314  53.841  0.00  0.00     0.081 A 
ATOM      3  N   UNL d   1      52.652  31.806  52.701  0.00  0.00    -0.245 NA
ATOM      4  C   UNL d   1      52.875  32.444  53.177  0.00  0.00     0.086 A 
ATOM      5  C   UNL d   1      52.898  31.041  52.887  0.00  0.00     0.086 A 
ATOM      6  C   UNL d   1      53.591  31.548  54.025  0.00  0.00     0.014 A 
ATOM      7  C   UNL d   1      52.666  30.411  52.400  0.00  0.00     0.021 C 
ATOM      8  C   UNL d   1      52.620  33.228  52.982  0.00  0.00     0.021 C 
ENDROOT
BRANCH   1   9
ATOM      9  C   UNL d   1      53.626  30.147  53.752  0.00  0.00     0.302 C 
ATOM     10  O   UNL d   1      54.242  29.782  53.342  0.00  0.00    -0.259 OA
BRANCH   9  11
ATOM     11  O   UNL d   1      53.257  29.748  54.374  0.00  0.00    -0.271 OA
BRANCH  11  12
ATOM     12  C   UNL d   1      53.524  29.007  54.612  0.00  0.00     0.126 C 
ATOM     13  C   UNL d   1      53.236  28.718  55.265  0.00  0.00     0.029 C 
ENDBRANCH  11  12
ENDBRANCH   9  11
ENDBRANCH   1   9
BRANCH   2  14
ATOM     14  C   UNL d   1      53.568  32.967  54.318  0.00  0.00     0.302 C 
ATOM     15  O   UNL d   1      53.005  33.437  54.661  0.00  0.00    -0.259 OA
BRANCH  14  16
ATOM     16  O   UNL d   1      54.390  33.129  54.438  0.00  0.00    -0.271 OA
BRANCH  16  17
ATOM     17  C   UNL d   1      54.630  33.607  55.048  0.00  0.00     0.126 C 
ATOM     18  C   UNL d   1      55.467  33.925  55.117  0.00  0.00     0.029 C 
ENDBRANCH  16  17
ENDBRANCH  14  16
ENDBRANCH   2  14
TORSDOF 6
ENDMDL
MODEL 6
REMARK VINA RESULT:      -6.7      1.428      2.820
REMARK  6 active torsions:
REMARK  status: ('A' for Active; 'I' for Inactive)
REMARK    1  A    between atoms: C_8  and  C_1 
REMARK    2  A    between atoms: C_7  and  C_2 
REMARK    3  A    between atoms: O_11  and  C_7 
REMARK    4  A    between atoms: O_12  and  C_8 
REMARK    5  A    between atoms: C_16  and  O_11 
REMARK    6  A    between atoms: C_15  and  O_12 
ROOT
ATOM      1  C   UNL d   1      52.226  33.400  53.328  0.00  0.00     0.081 A 
ATOM      2  C   UNL d   1      53.002  34.252  54.180  0.00  0.00     0.081 A 
ATOM      3  N   UNL d   1      52.174  34.818  53.163  0.00  0.00    -0.245 NA
ATOM      4  C   UNL d   1      52.709  34.914  53.786  0.00  0.00     0.086 A 
ATOM      5  C   UNL d   1      51.932  34.063  52.933  0.00  0.00     0.086 A 
ATOM      6  C   UNL d   1      52.759  33.498  53.948  0.00  0.00     0.014 A 
ATOM      7  C   UNL d   1      51.395  33.982  52.306  0.00  0.00     0.021 C 
ATOM      8  C   UNL d   1      52.953  35.691  54.017  0.00  0.00     0.021 C 
ENDROOT
BRANCH   1   9
ATOM      9  C   UNL d   1      51.993  32.633  53.109  0.00  0.00     0.302 C 
ATOM     10  O   UNL d   1      51.205  32.396  53.161  0.00  0.00    -0.259 OA
BRANCH   9  11
ATOM     11  O   UNL d   1      52.563  32.101  52.836  0.00  0.00    -0.271 OA
BRANCH  11  12
ATOM     12  C   UNL d   1      52.427  31.290  52.870  0.00  0.00     0.126 C 
ATOM     13  C   UNL d   1      53.032  30.824  52.769  0.00  0.00     0.029 C 
ENDBRANCH  11  12
ENDBRANCH   9  11
ENDBRANCH   1   9
BRANCH   2  14
ATOM     14  C   UNL d   1      53.544  34.359  54.810  0.00  0.00     0.302 C 
ATOM     15  O   UNL d   1      53.295  34.651  55.523  0.00  0.00    -0.259 OA
BRANCH  14  16
ATOM     16  O   UNL d   1      54.358  34.158  54.693  0.00  0.00    -0.271 OA
BRANCH  16  17
ATOM     17  C   UNL d   1      54.810  33.898  55.313  0.00  0.00     0.126 C 
ATOM     18  C   UNL d   1      55.692  33.745  55.241  0.00  0.00     0.029 C 
ENDBRANCH  16  17
ENDBRANCH  14  16
ENDBRANCH   2  14
TORSDOF 6
ENDMDL
MODEL 7
REMARK VINA RESULT:      -5.8      1.482      3.658
REMARK  6 active torsions:
REMARK  status: ('A' for Active; 'I' for Inactive)
REMARK    1  A    between atoms: C_8  and  C_1 
REMARK    2  A    between atoms: C_7  and  C_2 
REMARK    3  A    between atoms: O_11  and  C_7 
REMARK    4  A    between atoms: O_12  and  C_8 
REMARK    5  A    between atoms: C_16  and  O_11 
REMARK    6  A    between atoms: C_15  and  O_12 
ROOT
ATOM      1  C   UNL d   1      53.699  32.483  53.610  0.00  0.00     0.081 A 
ATOM      2  C   UNL d   1      52.326  32.680  53.250  0.00  0.00     0.081 A 
ATOM      3  N   UNL d   1      52.873  31.361  53.294  0.00  0.00    -0.245 NA
ATOM      4  C   UNL d   1      52.233  31.865  53.160  0.00  0.00     0.086 A 
ATOM      5  C   UNL d   1      53.606  31.669  53.519  0.00  0.00     0.086 A 
ATOM      6  C   UNL d   1      53.059  32.984  53.475  0.00  0.00     0.014 A 
ATOM      7  C   UNL d   1      54.240  31.150  53.651  0.00  0.00     0.021 C 
ATOM      8  C   UNL d   1      51.483  31.545  52.929  0.00  0.00     0.021 C 
ENDROOT
BRANCH   1   9
ATOM      9  C   UNL d   1      54.429  32.809  53.836  0.00  0.00     0.302 C 
ATOM     10  O   UNL d   1      55.069  32.821  53.315  0.00  0.00    -0.259 OA
BRANCH   9  11
ATOM     11  O   UNL d   1      54.513  33.126  54.593  0.00  0.00    -0.271 OA
BRANCH  11  12
ATOM     12  C   UNL d   1      55.159  33.599  54.779  0.00  0.00     0.126 C 
ATOM     13  C   UNL d   1      55.182  33.909  55.485  0.00  0.00     0.029 C 
ENDBRANCH  11  12
ENDBRANCH   9  11
ENDBRANCH   1   9
BRANCH   2  14
ATOM     14  C   UNL d   1      51.670  33.183  53.112  0.00  0.00     0.302 C 
ATOM     15  O   UNL d   1      51.078  33.249  53.660  0.00  0.00    -0.259 OA
BRANCH  14  16
ATOM     16  O   UNL d   1      51.634  33.624  52.390  0.00  0.00    -0.271 OA
BRANCH  16  17
ATOM     17  C   UNL d   1      51.086  34.213  52.295  0.00  0.00     0.126 C 
ATOM     18  C   UNL d   1      50.794  34.482  51.489  0.00  0.00     0.029 C 
ENDBRANCH  16  17
ENDBRANCH  14  16
ENDBRANCH   2  14
TORSDOF 6
ENDMDL
MODEL 8
REMARK VINA RESULT:      -5.8      1.488      2.409
REMARK  6 active torsions:
REMARK  status: ('A' for Active; 'I' for Inactive)
REMARK    1  A    between atoms: C_8  and  C_1 
REMARK    2  A    between atoms: C_7  and  C_2 
REMARK    3  A    between atoms: O_11  and  C_7 
REMARK    4  A    between atoms: O_12  and  C_8 
REMARK    5  A    between atoms: C_16  and  O_11 
REMARK    6  A    between atoms: C_15  and  O_12 
ROOT
ATOM      1  C   UNL d   1      52.277  32.647  53.246  0.00  0.00     0.081 A 
ATOM      2  C   UNL d   1      53.652  32.449  53.596  0.00  0.00     0.081 A 
ATOM      3  N   UNL d   1      52.818  31.327  53.301  0.00  0.00    -0.245 NA
ATOM      4  C   UNL d   1      53.555  31.634  53.516  0.00  0.00     0.086 A 
ATOM      5  C   UNL d   1      52.179  31.832  53.166  0.00  0.00     0.086 A 
ATOM      6  C   UNL d   1      53.012  32.951  53.460  0.00  0.00     0.014 A 
ATOM      7  C   UNL d   1      51.446  31.510  52.951  0.00  0.00     0.021 C 
ATOM      8  C   UNL d   1      54.207  31.111  53.654  0.00  0.00     0.021 C 
ENDROOT
BRANCH   1   9
ATOM      9  C   UNL d   1      51.644  33.170  53.113  0.00  0.00     0.302 C 
ATOM     10  O   UNL d   1      51.052  33.274  53.678  0.00  0.00    -0.259 OA
BRANCH   9  11
ATOM     11  O   UNL d   1      51.610  33.590  52.403  0.00  0.00    -0.271 OA
BRANCH  11  12
ATOM     12  C   UNL d   1      51.064  34.197  52.303  0.00  0.00     0.126 C 
ATOM     13  C   UNL d   1      50.953  34.461  51.587  0.00  0.00     0.029 C 
ENDBRANCH  11  12
ENDBRANCH   9  11
ENDBRANCH   1   9
BRANCH   2  14
ATOM     14  C   UNL d   1      54.403  32.751  53.815  0.00  0.00     0.302 C 
ATOM     15  O   UNL d   1      55.014  32.759  53.284  0.00  0.00    -0.259 OA
BRANCH  14  16
ATOM     16  O   UNL d   1      54.515  33.048  54.599  0.00  0.00    -0.271 OA
BRANCH  16  17
ATOM     17  C   UNL d   1      55.118  33.565  54.760  0.00  0.00     0.126 C 
ATOM     18  C   UNL d   1      55.229  33.948  55.565  0.00  0.00     0.029 C 
ENDBRANCH  16  17
ENDBRANCH  14  16
ENDBRANCH   2  14
TORSDOF 6
ENDMDL
