MODEL 1
REMARK VINA RESULT:      34.7      0.000      0.000
REMARK  5 active torsions:
REMARK  status: ('A' for Active; 'I' for Inactive)
REMARK    1  A    between atoms: C_2  and  C_1 
REMARK       I    between atoms: N_3  and  C_1 
REMARK       I    between atoms: N_4  and  C_2 
REMARK    2  A    between atoms: C_5  and  N_3 
REMARK    3  A    between atoms: C_10  and  N_4 
REMARK    4  A    between atoms: C_12  and  C_10 
REMARK    5  A    between atoms: O_13  and  C_11 
ROOT
ATOM      1  C   UNL d   1     -54.788-101.071 -42.130  0.00  0.00     0.337 C 
ATOM      2  N   UNL d   1     -54.746-101.084 -42.946  0.00  0.00    -0.204 NA
ATOM      3  O   UNL d   1     -54.823-100.348 -41.733  0.00  0.00    -0.260 OA
ENDROOT
BRANCH   1   4
ATOM      4  C   UNL d   1     -54.794-101.776 -41.702  0.00  0.00     0.337 C 
ATOM      5  N   UNL d   1     -54.821-101.760 -40.882  0.00  0.00    -0.202 NA
ATOM      6  O   UNL d   1     -54.773-102.499 -42.099  0.00  0.00    -0.260 OA
BRANCH   5   7
ATOM      7  C   UNL d   1     -54.828-102.461 -40.456  0.00  0.00     0.102 C 
BRANCH   7   8
ATOM      8  C   UNL d   1     -55.122-102.474 -39.685  0.00  0.00     0.022 A 
ATOM      9  C   UNL d   1     -55.820-102.866 -39.525  0.00  0.00     0.022 A 
ATOM     10  C   UNL d   1     -56.114-102.879 -38.754  0.00  0.00     0.099 A 
ATOM     11  N   UNL d   1     -55.704-102.497 -38.150  0.00  0.00    -0.242 NA
ATOM     12  C   UNL d   1     -54.998-102.102 -38.316  0.00  0.00     0.099 A 
ATOM     13  C   UNL d   1     -54.711-102.092 -39.081  0.00  0.00     0.022 A 
ENDBRANCH   7   8
ENDBRANCH   5   7
ENDBRANCH   1   4
BRANCH   2  14
ATOM     14  C   UNL d   1     -54.739-100.379 -43.374  0.00  0.00     0.087 A 
ATOM     15  C   UNL d   1     -54.748-100.396 -44.199  0.00  0.00     0.043 A 
ATOM     16  C   UNL d   1     -54.742 -99.692 -44.626  0.00  0.00     0.096 A 
ATOM     17  C   UNL d   1     -54.726 -98.968 -44.229  0.00  0.00     0.024 A 
ATOM     18  C   UNL d   1     -54.717 -98.950 -43.404  0.00  0.00     0.004 A 
ATOM     19  C   UNL d   1     -54.724 -99.655 -42.976  0.00  0.00     0.019 A 
BRANCH  16  20
ATOM     20  O   UNL d   1     -54.751 -99.697 -45.458  0.00  0.00    -0.328 OA
ATOM     21  C   UNL d   1     -54.715 -98.977 -45.874  0.00  0.00     0.181 C 
ENDBRANCH  16  20
ENDBRANCH   2  14
TORSDOF 5
ENDMDL
