MODEL 1
REMARK VINA RESULT:      37.3      0.000      0.000
REMARK  3 active torsions:
REMARK  status: ('A' for Active; 'I' for Inactive)
REMARK    1  A    between atoms: C_8  and  C_2 
REMARK    2  A    between atoms: O_6  and  C_8 
REMARK    3  A    between atoms: C_7  and  O_6 
ROOT
ATOM      1  N   UNL d   1      60.109  49.675  51.578  0.00  0.00    -0.224 NA
ATOM      2  C   UNL d   1      59.507  49.560  51.030  0.00  0.00     0.188 A 
ATOM      3  N   UNL d   1      59.700  48.878  50.610  0.00  0.00    -0.224 NA
ATOM      4  C   UNL d   1      60.654  49.084  51.499  0.00  0.00     0.101 A 
ATOM      5  C   UNL d   1      60.397  48.585  50.894  0.00  0.00     0.101 A 
ATOM      6  C   UNL d   1      61.349  48.903  51.873  0.00  0.00     0.021 A 
ATOM      7  C   UNL d   1      60.846  47.925  50.685  0.00  0.00     0.021 A 
ATOM      8  C   UNL d   1      61.551  47.763  51.082  0.00  0.00     0.002 A 
ATOM      9  C   UNL d   1      61.808  48.262  51.687  0.00  0.00     0.002 A 
ENDROOT
BRANCH   2  10
ATOM     10  C   UNL d   1      58.822  49.708  50.636  0.00  0.00     0.161 C 
BRANCH  10  11
ATOM     11  O   UNL d   1      58.233  49.233  50.732  0.00  0.00    -0.302 OA
BRANCH  11  12
ATOM     12  C   UNL d   1      57.491  49.377  50.342  0.00  0.00     0.100 A 
ATOM     13  C   UNL d   1      57.465  49.446  49.546  0.00  0.00     0.023 A 
ATOM     14  C   UNL d   1      58.146  49.381  49.093  0.00  0.00     0.002 C 
ATOM     15  C   UNL d   1      56.736  49.587  49.176  0.00  0.00     0.002 A 
ATOM     16  C   UNL d   1      56.051  49.653  49.632  0.00  0.00     0.000 A 
ATOM     17  C   UNL d   1      56.071  49.581  50.473  0.00  0.00     0.002 A 
ATOM     18  C   UNL d   1      56.822  49.439  50.821  0.00  0.00     0.025 A 
ENDBRANCH  11  12
ENDBRANCH  10  11
ENDBRANCH   2  10
TORSDOF 3
ENDMDL
