MODEL 1
REMARK VINA RESULT:      31.9      0.000      0.000
REMARK  3 active torsions:
REMARK  status: ('A' for Active; 'I' for Inactive)
REMARK    1  A    between atoms: C_7  and  C_1 
REMARK    2  A    between atoms: N_5  and  C_9 
REMARK    3  A    between atoms: C_14  and  C_7 
ROOT
ATOM      1  C   UNL d   1      13.169  12.492  -4.187  0.00  0.00     0.139 A 
ATOM      2  C   UNL d   1      13.234  13.353  -5.202  0.00  0.00     0.064 A 
ATOM      3  C   UNL d   1      13.303  12.557  -5.001  0.00  0.00     0.220 A 
ATOM      4  C   UNL d   1      13.058  13.784  -4.518  0.00  0.00     0.106 A 
ATOM      5  O   UNL d   1      13.018  13.247  -3.888  0.00  0.00    -0.304 OA
ATOM      6  C   UNL d   1      12.959  14.593  -4.563  0.00  0.00     0.067 A 
ATOM      7  C   UNL d   1      13.309  13.740  -5.925  0.00  0.00     0.009 A 
ATOM      8  O   UNL d   1      13.474  11.930  -5.512  0.00  0.00    -0.284 OA
ATOM      9  C   UNL d   1      13.035  14.980  -5.288  0.00  0.00     0.198 A 
ATOM     10  C   UNL d   1      13.210  14.555  -5.964  0.00  0.00     0.042 A 
ATOM     11  O   UNL d   1      12.935  15.799  -5.328  0.00  0.00    -0.286 OA
ENDROOT
BRANCH   1  12
ATOM     12  C   UNL d   1      13.183  11.795  -3.744  0.00  0.00     0.028 C 
BRANCH  12  13
ATOM     13  C   UNL d   1      13.472  11.794  -2.967  0.00  0.00     0.002 A 
ATOM     14  C   UNL d   1      14.284  11.806  -2.842  0.00  0.00     0.002 A 
ATOM     15  C   UNL d   1      14.584  11.805  -2.078  0.00  0.00     0.024 A 
ATOM     16  C   UNL d   1      14.062  11.792  -1.426  0.00  0.00     0.127 A 
ATOM     17  C   UNL d   1      13.244  11.780  -1.557  0.00  0.00     0.024 A 
ATOM     18  C   UNL d   1      12.954  11.781  -2.333  0.00  0.00     0.002 A 
BRANCH  16  19
ATOM     19  N   UNL d   1      14.369  11.791  -0.657  0.00  0.00    -0.114 N 
ATOM     20  O   UNL d   1      13.849  11.803  -0.014  0.00  0.00    -0.532 OA
ATOM     21  O   UNL d   1      15.179  11.779  -0.523  0.00  0.00    -0.532 OA
ENDBRANCH  16  19
ENDBRANCH  12  13
ENDBRANCH   1  12
TORSDOF 3
ENDMDL
