MODEL 1
REMARK VINA RESULT:      -2.4      0.000      0.000
REMARK  5 active torsions:
REMARK  status: ('A' for Active; 'I' for Inactive)
REMARK    1  A    between atoms: C_17  and  N_5 
REMARK    2  A    between atoms: S_14  and  C_6 
REMARK    3  A    between atoms: C_11  and  C_18 
REMARK    4  A    between atoms: C_18  and  S_14 
REMARK    5  A    between atoms: C_19  and  C_17 
ROOT
ATOM      1  C   UNL d   1      33.236  19.777 -22.959  0.00  0.00     0.081 A 
ATOM      2  C   UNL d   1      33.234  19.681 -22.135  0.00  0.00     0.117 A 
ATOM      3  N   UNL d   1      33.235  20.345 -21.642  0.00  0.00    -0.215 NA
ATOM      4  C   UNL d   1      33.238  20.531 -23.291  0.00  0.00     0.268 A 
ATOM      5  N   UNL d   1      33.239  21.203 -22.797  0.00  0.00    -0.253 N 
ATOM      6  C   UNL d   1      33.237  21.104 -21.973  0.00  0.00     0.182 A 
ATOM      7  S   UNL d   1      33.233  18.877 -21.975  0.00  0.00    -0.068 SA
ATOM      8  C   UNL d   1      33.235  19.026 -23.304  0.00  0.00     0.013 A 
ATOM      9  C   UNL d   1      33.233  18.472 -22.698  0.00  0.00     0.031 A 
ATOM     10  O   UNL d   1      33.240  20.626 -24.102  0.00  0.00    -0.267 OA
ATOM     11  C   UNL d   1      33.237  18.904 -24.116  0.00  0.00     0.001 A 
ATOM     12  C   UNL d   1      33.232  17.648 -22.752  0.00  0.00     0.006 A 
ATOM     13  C   UNL d   1      33.236  18.191 -24.531  0.00  0.00     0.000 A 
ATOM     14  C   UNL d   1      33.232  17.181 -23.429  0.00  0.00     0.001 A 
ATOM     15  C   UNL d   1      33.234  17.416 -24.224  0.00  0.00     0.000 A 
ENDROOT
BRANCH   6  16
ATOM     16  S   UNL d   1      33.237  21.773 -21.481  0.00  0.00    -0.048 SA
BRANCH  16  17
ATOM     17  C   UNL d   1      33.177  21.682 -20.667  0.00  0.00     0.058 C 
BRANCH  17  18
ATOM     18  C   UNL d   1      33.124  22.349 -20.179  0.00  0.00     0.095 A 
ATOM     19  N   UNL d   1      32.947  22.351 -19.389  0.00  0.00    -0.238 NA
ATOM     20  C   UNL d   1      32.956  23.130 -19.133  0.00  0.00     0.111 A 
ATOM     21  C   UNL d   1      32.810  23.404 -18.381  0.00  0.00     0.028 C 
ATOM     22  S   UNL d   1      33.136  23.598 -19.768  0.00  0.00    -0.066 SA
ATOM     23  C   UNL d   1      33.240  23.121 -20.412  0.00  0.00     0.057 A 
ENDBRANCH  17  18
ENDBRANCH  16  17
ENDBRANCH   6  16
BRANCH   5  24
ATOM     24  C   UNL d   1      33.241  21.958 -23.116  0.00  0.00     0.085 C 
BRANCH  24  25
ATOM     25  C   UNL d   1      32.838  22.101 -23.838  0.00  0.00     0.019 C 
ATOM     26  C   UNL d   1      32.831  22.858 -24.165  0.00  0.00     0.002 C 
ENDBRANCH  24  25
ENDBRANCH   5  24
TORSDOF 5
ENDMDL
