MODEL 1
REMARK VINA RESULT:      13.2      0.000      0.000
REMARK  2 active torsions:
REMARK  status: ('A' for Active; 'I' for Inactive)
REMARK    1  A    between atoms: C_7  and  C_2 
REMARK    2  A    between atoms: C_5  and  C_7 
ROOT
ATOM      1  C   UNL d   1      45.081 -14.425  44.929  0.00  0.00     0.021 A 
ATOM      2  N   UNL d   1      44.123 -15.339  44.910  0.00  0.00    -0.244 NA
ATOM      3  C   UNL d   1      44.268 -14.531  44.942  0.00  0.00     0.099 A 
ATOM      4  C   UNL d   1      45.436 -15.161  44.889  0.00  0.00     0.019 A 
ATOM      5  C   UNL d   1      44.843 -15.728  44.878  0.00  0.00     0.081 A 
ATOM      6  C   UNL d   1      46.232 -15.392  44.862  0.00  0.00     0.002 A 
ATOM      7  C   UNL d   1      45.038 -16.531  44.839  0.00  0.00     0.019 A 
ATOM      8  C   UNL d   1      46.433 -16.191  44.823  0.00  0.00     0.000 A 
ATOM      9  C   UNL d   1      45.835 -16.763  44.811  0.00  0.00     0.002 A 
ENDROOT
BRANCH   1  10
ATOM     10  C   UNL d   1      45.468 -13.691  44.952  0.00  0.00     0.011 C 
BRANCH  10  11
ATOM     11  C   UNL d   1      45.435 -13.189  44.299  0.00  0.00     0.062 A 
ATOM     12  C   UNL d   1      45.879 -12.494  44.295  0.00  0.00     0.145 A 
ATOM     13  N   UNL d   1      45.733 -12.111  43.578  0.00  0.00    -0.191 NA
ATOM     14  S   UNL d   1      46.384 -12.227  44.904  0.00  0.00    -0.057 SA
ATOM     15  C   UNL d   1      45.211 -12.556  43.146  0.00  0.00     0.311 A 
ATOM     16  S   UNL d   1      45.022 -13.226  43.589  0.00  0.00    -0.023 SA
ATOM     17  O   UNL d   1      44.922 -12.361  42.389  0.00  0.00    -0.258 OA
ENDBRANCH  10  11
ENDBRANCH   1  10
TORSDOF 2
ENDMDL
