MODEL 1
REMARK VINA RESULT:      -7.9      0.000      0.000
REMARK  4 active torsions:
REMARK  status: ('A' for Active; 'I' for Inactive)
REMARK    1  A    between atoms: C_2  and  N_1 
REMARK    2  A    between atoms: C_12  and  C_5 
REMARK    3  A    between atoms: O_20  and  C_12 
REMARK    4  A    between atoms: C_22  and  O_20 
ROOT
ATOM      1  N   UNL d   1     -48.407  14.258  22.962  0.00  0.00    -0.237 N 
ATOM      2  C   UNL d   1     -48.249  13.515  23.300  0.00  0.00     0.263 A 
ATOM      3  C   UNL d   1     -47.720  14.534  22.600  0.00  0.00     0.263 A 
ATOM      4  C   UNL d   1     -47.124  13.965  22.710  0.00  0.00     0.039 A 
ATOM      5  C   UNL d   1     -47.459  13.335  23.145  0.00  0.00     0.039 A 
ATOM      6  C   UNL d   1     -46.330  13.934  22.475  0.00  0.00     0.049 A 
ATOM      7  C   UNL d   1     -46.994  12.673  23.344  0.00  0.00     0.049 A 
ATOM      8  C   UNL d   1     -45.865  13.272  22.674  0.00  0.00    -0.026 A 
ATOM      9  C   UNL d   1     -46.194  12.642  23.108  0.00  0.00    -0.026 A 
ATOM     10  C   UNL d   1     -46.920  13.577  22.848  0.00  0.00     0.018 A 
ATOM     11  O   UNL d   1     -47.638  15.222  22.214  0.00  0.00    -0.267 OA
ATOM     12  O   UNL d   1     -48.757  13.063  23.698  0.00  0.00    -0.267 OA
ENDROOT
BRANCH   1  13
ATOM     13  C   UNL d   1     -49.114  14.638  22.986  0.00  0.00     0.105 A 
ATOM     14  C   UNL d   1     -49.708  14.541  22.464  0.00  0.00     0.086 A 
ATOM     15  C   UNL d   1     -50.303  15.016  22.687  0.00  0.00     0.014 A 
ATOM     16  C   UNL d   1     -50.070  15.401  23.345  0.00  0.00     0.031 A 
ATOM     17  S   UNL d   1     -49.338  15.168  23.528  0.00  0.00    -0.069 SA
ATOM     18  C   UNL d   1     -50.561  15.921  23.695  0.00  0.00     0.007 C 
BRANCH  14  19
ATOM     19  C   UNL d   1     -49.705  14.059  21.838  0.00  0.00     0.302 C 
ATOM     20  O   UNL d   1     -49.329  14.271  21.173  0.00  0.00    -0.259 OA
BRANCH  19  21
ATOM     21  O   UNL d   1     -50.079  13.356  21.872  0.00  0.00    -0.271 OA
BRANCH  21  22
ATOM     22  C   UNL d   1     -50.382  13.125  21.171  0.00  0.00     0.126 C 
ATOM     23  C   UNL d   1     -50.771  12.437  21.119  0.00  0.00     0.029 C 
ENDBRANCH  21  22
ENDBRANCH  19  21
ENDBRANCH  14  19
ENDBRANCH   1  13
TORSDOF 4
ENDMDL
MODEL 2
REMARK VINA RESULT:      -7.1      8.352      9.913
REMARK  4 active torsions:
REMARK  status: ('A' for Active; 'I' for Inactive)
REMARK    1  A    between atoms: C_2  and  N_1 
REMARK    2  A    between atoms: C_12  and  C_5 
REMARK    3  A    between atoms: O_20  and  C_12 
REMARK    4  A    between atoms: C_22  and  O_20 
ROOT
ATOM      1  N   UNL d   1     -39.769  14.588  18.862  0.00  0.00    -0.237 N 
ATOM      2  C   UNL d   1     -39.398  15.187  19.304  0.00  0.00     0.263 A 
ATOM      3  C   UNL d   1     -40.470  14.376  19.241  0.00  0.00     0.263 A 
ATOM      4  C   UNL d   1     -40.544  14.842  19.926  0.00  0.00     0.039 A 
ATOM      5  C   UNL d   1     -39.876  15.343  19.959  0.00  0.00     0.039 A 
ATOM      6  C   UNL d   1     -41.123  14.878  20.518  0.00  0.00     0.049 A 
ATOM      7  C   UNL d   1     -39.790  15.881  20.589  0.00  0.00     0.049 A 
ATOM      8  C   UNL d   1     -41.037  15.416  21.148  0.00  0.00    -0.026 A 
ATOM      9  C   UNL d   1     -40.373  15.918  21.185  0.00  0.00    -0.026 A 
ATOM     10  C   UNL d   1     -40.442  15.157  20.246  0.00  0.00     0.018 A 
ATOM     11  O   UNL d   1     -40.985  13.825  18.998  0.00  0.00    -0.267 OA
ATOM     12  O   UNL d   1     -38.717  15.543  19.133  0.00  0.00    -0.267 OA
ENDROOT
BRANCH   1  13
ATOM     13  C   UNL d   1     -39.487  14.273  18.180  0.00  0.00     0.105 A 
ATOM     14  C   UNL d   1     -39.622  14.559  17.448  0.00  0.00     0.086 A 
ATOM     15  C   UNL d   1     -39.246  14.088  16.933  0.00  0.00     0.014 A 
ATOM     16  C   UNL d   1     -38.881  13.516  17.352  0.00  0.00     0.031 A 
ATOM     17  S   UNL d   1     -39.030  13.630  18.119  0.00  0.00    -0.069 SA
ATOM     18  C   UNL d   1     -38.455  12.958  16.975  0.00  0.00     0.007 C 
BRANCH  14  19
ATOM     19  C   UNL d   1     -40.054  15.196  17.270  0.00  0.00     0.302 C 
ATOM     20  O   UNL d   1     -39.744  15.922  17.345  0.00  0.00    -0.259 OA
BRANCH  19  21
ATOM     21  O   UNL d   1     -40.804  15.112  17.013  0.00  0.00    -0.271 OA
BRANCH  21  22
ATOM     22  C   UNL d   1     -41.042  15.704  16.535  0.00  0.00     0.126 C 
ATOM     23  C   UNL d   1     -41.816  15.831  16.422  0.00  0.00     0.029 C 
ENDBRANCH  21  22
ENDBRANCH  19  21
ENDBRANCH  14  19
ENDBRANCH   1  13
TORSDOF 4
ENDMDL
MODEL 3
REMARK VINA RESULT:      -7.0      1.719      3.765
REMARK  4 active torsions:
REMARK  status: ('A' for Active; 'I' for Inactive)
REMARK    1  A    between atoms: C_2  and  N_1 
REMARK    2  A    between atoms: C_12  and  C_5 
REMARK    3  A    between atoms: O_20  and  C_12 
REMARK    4  A    between atoms: C_22  and  O_20 
ROOT
ATOM      1  N   UNL d   1     -48.620  12.447  22.546  0.00  0.00    -0.237 N 
ATOM      2  C   UNL d   1     -49.333  12.645  22.925  0.00  0.00     0.263 A 
ATOM      3  C   UNL d   1     -48.711  12.564  21.735  0.00  0.00     0.263 A 
ATOM      4  C   UNL d   1     -49.484  12.836  21.599  0.00  0.00     0.039 A 
ATOM      5  C   UNL d   1     -49.866  12.885  22.341  0.00  0.00     0.039 A 
ATOM      6  C   UNL d   1     -49.891  13.046  20.907  0.00  0.00     0.049 A 
ATOM      7  C   UNL d   1     -50.656  13.144  22.387  0.00  0.00     0.049 A 
ATOM      8  C   UNL d   1     -50.680  13.305  20.953  0.00  0.00    -0.026 A 
ATOM      9  C   UNL d   1     -51.064  13.355  21.690  0.00  0.00    -0.026 A 
ATOM     10  C   UNL d   1     -49.915  12.971  21.687  0.00  0.00     0.018 A 
ATOM     11  O   UNL d   1     -48.159  12.438  21.180  0.00  0.00    -0.267 OA
ATOM     12  O   UNL d   1     -49.480  12.612  23.698  0.00  0.00    -0.267 OA
ENDROOT
BRANCH   1  13
ATOM     13  C   UNL d   1     -47.957  12.186  22.914  0.00  0.00     0.105 A 
ATOM     14  C   UNL d   1     -47.375  12.650  23.201  0.00  0.00     0.086 A 
ATOM     15  C   UNL d   1     -46.825  12.176  23.520  0.00  0.00     0.014 A 
ATOM     16  C   UNL d   1     -47.073  11.424  23.427  0.00  0.00     0.031 A 
ATOM     17  S   UNL d   1     -47.769  11.431  23.054  0.00  0.00    -0.069 SA
ATOM     18  C   UNL d   1     -46.626  10.823  23.698  0.00  0.00     0.007 C 
BRANCH  14  19
ATOM     19  C   UNL d   1     -47.352  13.439  23.173  0.00  0.00     0.302 C 
ATOM     20  O   UNL d   1     -47.820  13.870  23.645  0.00  0.00    -0.259 OA
BRANCH  19  21
ATOM     21  O   UNL d   1     -46.857  13.807  22.667  0.00  0.00    -0.271 OA
BRANCH  21  22
ATOM     22  C   UNL d   1     -46.552  14.483  22.959  0.00  0.00     0.126 C 
ATOM     23  C   UNL d   1     -46.255  15.026  22.464  0.00  0.00     0.029 C 
ENDBRANCH  21  22
ENDBRANCH  19  21
ENDBRANCH  14  19
ENDBRANCH   1  13
TORSDOF 4
ENDMDL
MODEL 4
REMARK VINA RESULT:      -6.8      8.619      9.769
REMARK  4 active torsions:
REMARK  status: ('A' for Active; 'I' for Inactive)
REMARK    1  A    between atoms: C_2  and  N_1 
REMARK    2  A    between atoms: C_12  and  C_5 
REMARK    3  A    between atoms: O_20  and  C_12 
REMARK    4  A    between atoms: C_22  and  O_20 
ROOT
ATOM      1  N   UNL d   1     -40.216  15.075  18.920  0.00  0.00    -0.237 N 
ATOM      2  C   UNL d   1     -40.605  14.625  19.501  0.00  0.00     0.263 A 
ATOM      3  C   UNL d   1     -39.562  15.441  19.264  0.00  0.00     0.263 A 
ATOM      4  C   UNL d   1     -39.536  15.222  20.065  0.00  0.00     0.039 A 
ATOM      5  C   UNL d   1     -40.186  14.716  20.207  0.00  0.00     0.039 A 
ATOM      6  C   UNL d   1     -39.014  15.414  20.680  0.00  0.00     0.049 A 
ATOM      7  C   UNL d   1     -40.311  14.402  20.968  0.00  0.00     0.049 A 
ATOM      8  C   UNL d   1     -39.139  15.099  21.441  0.00  0.00    -0.026 A 
ATOM      9  C   UNL d   1     -39.785  14.594  21.587  0.00  0.00    -0.026 A 
ATOM     10  C   UNL d   1     -39.656  15.020  20.460  0.00  0.00     0.018 A 
ATOM     11  O   UNL d   1     -39.047  15.918  18.896  0.00  0.00    -0.267 OA
ATOM     12  O   UNL d   1     -41.254  14.190  19.402  0.00  0.00    -0.267 OA
ENDROOT
BRANCH   1  13
ATOM     13  C   UNL d   1     -40.445  15.138  18.153  0.00  0.00     0.105 A 
ATOM     14  C   UNL d   1     -40.218  14.653  17.563  0.00  0.00     0.086 A 
ATOM     15  C   UNL d   1     -40.567  14.907  16.897  0.00  0.00     0.014 A 
ATOM     16  C   UNL d   1     -41.005  15.547  17.083  0.00  0.00     0.031 A 
ATOM     17  S   UNL d   1     -40.929  15.688  17.856  0.00  0.00    -0.069 SA
ATOM     18  C   UNL d   1     -41.421  15.922  16.517  0.00  0.00     0.007 C 
BRANCH  14  19
ATOM     19  C   UNL d   1     -39.735  14.032  17.629  0.00  0.00     0.302 C 
ATOM     20  O   UNL d   1     -39.997  13.354  17.946  0.00  0.00    -0.259 OA
BRANCH  19  21
ATOM     21  O   UNL d   1     -38.980  14.084  17.378  0.00  0.00    -0.271 OA
BRANCH  21  22
ATOM     22  C   UNL d   1     -38.695  13.397  17.091  0.00  0.00     0.126 C 
ATOM     23  C   UNL d   1     -37.951  13.363  16.819  0.00  0.00     0.029 C 
ENDBRANCH  21  22
ENDBRANCH  19  21
ENDBRANCH  14  19
ENDBRANCH   1  13
TORSDOF 4
ENDMDL
MODEL 5
REMARK VINA RESULT:      -6.4      1.220      3.483
REMARK  4 active torsions:
REMARK  status: ('A' for Active; 'I' for Inactive)
REMARK    1  A    between atoms: C_2  and  N_1 
REMARK    2  A    between atoms: C_12  and  C_5 
REMARK    3  A    between atoms: O_20  and  C_12 
REMARK    4  A    between atoms: C_22  and  O_20 
ROOT
ATOM      1  N   UNL d   1     -48.316  13.707  22.248  0.00  0.00    -0.237 N 
ATOM      2  C   UNL d   1     -48.907  14.136  22.646  0.00  0.00     0.263 A 
ATOM      3  C   UNL d   1     -48.657  13.330  21.599  0.00  0.00     0.263 A 
ATOM      4  C   UNL d   1     -49.465  13.520  21.585  0.00  0.00     0.039 A 
ATOM      5  C   UNL d   1     -49.616  14.021  22.237  0.00  0.00     0.039 A 
ATOM      6  C   UNL d   1     -50.082  13.308  21.072  0.00  0.00     0.049 A 
ATOM      7  C   UNL d   1     -50.385  14.308  22.374  0.00  0.00     0.049 A 
ATOM      8  C   UNL d   1     -50.851  13.596  21.208  0.00  0.00    -0.026 A 
ATOM      9  C   UNL d   1     -51.005  14.095  21.857  0.00  0.00    -0.026 A 
ATOM     10  C   UNL d   1     -49.866  13.709  21.711  0.00  0.00     0.018 A 
ATOM     11  O   UNL d   1     -48.280  12.867  21.077  0.00  0.00    -0.267 OA
ATOM     12  O   UNL d   1     -48.814  14.573  23.295  0.00  0.00    -0.267 OA
ENDROOT
BRANCH   1  13
ATOM     13  C   UNL d   1     -47.545  13.670  22.465  0.00  0.00     0.105 A 
ATOM     14  C   UNL d   1     -47.213  13.086  22.895  0.00  0.00     0.086 A 
ATOM     15  C   UNL d   1     -46.445  13.261  22.986  0.00  0.00     0.014 A 
ATOM     16  C   UNL d   1     -46.310  13.952  22.612  0.00  0.00     0.031 A 
ATOM     17  S   UNL d   1     -46.987  14.203  22.292  0.00  0.00    -0.069 SA
ATOM     18  C   UNL d   1     -45.578  14.267  22.611  0.00  0.00     0.007 C 
BRANCH  14  19
ATOM     19  C   UNL d   1     -47.584  12.448  23.178  0.00  0.00     0.302 C 
ATOM     20  O   UNL d   1     -48.178  12.528  23.696  0.00  0.00    -0.259 OA
BRANCH  19  21
ATOM     21  O   UNL d   1     -47.361  11.719  22.943  0.00  0.00    -0.271 OA
BRANCH  21  22
ATOM     22  C   UNL d   1     -47.448  11.165  23.509  0.00  0.00     0.126 C 
ATOM     23  C   UNL d   1     -47.056  10.479  23.452  0.00  0.00     0.029 C 
ENDBRANCH  21  22
ENDBRANCH  19  21
ENDBRANCH  14  19
ENDBRANCH   1  13
TORSDOF 4
ENDMDL
MODEL 6
REMARK VINA RESULT:      -5.8      1.774      3.651
REMARK  4 active torsions:
REMARK  status: ('A' for Active; 'I' for Inactive)
REMARK    1  A    between atoms: C_2  and  N_1 
REMARK    2  A    between atoms: C_12  and  C_5 
REMARK    3  A    between atoms: O_20  and  C_12 
REMARK    4  A    between atoms: C_22  and  O_20 
ROOT
ATOM      1  N   UNL d   1     -47.518  12.605  22.360  0.00  0.00    -0.237 N 
ATOM      2  C   UNL d   1     -48.121  12.629  21.788  0.00  0.00     0.263 A 
ATOM      3  C   UNL d   1     -47.804  12.215  23.028  0.00  0.00     0.263 A 
ATOM      4  C   UNL d   1     -48.591  11.992  22.879  0.00  0.00     0.039 A 
ATOM      5  C   UNL d   1     -48.782  12.251  22.108  0.00  0.00     0.039 A 
ATOM      6  C   UNL d   1     -49.155  11.590  23.336  0.00  0.00     0.049 A 
ATOM      7  C   UNL d   1     -49.540  12.107  21.796  0.00  0.00     0.049 A 
ATOM      8  C   UNL d   1     -49.913  11.447  23.024  0.00  0.00    -0.026 A 
ATOM      9  C   UNL d   1     -50.108  11.704  22.255  0.00  0.00    -0.026 A 
ATOM     10  C   UNL d   1     -48.989  11.942  22.654  0.00  0.00     0.018 A 
ATOM     11  O   UNL d   1     -47.402  12.077  23.697  0.00  0.00    -0.267 OA
ATOM     12  O   UNL d   1     -48.075  12.952  21.071  0.00  0.00    -0.267 OA
ENDROOT
BRANCH   1  13
ATOM     13  C   UNL d   1     -46.782  12.912  22.271  0.00  0.00     0.105 A 
ATOM     14  C   UNL d   1     -46.570  13.660  22.446  0.00  0.00     0.086 A 
ATOM     15  C   UNL d   1     -45.799  13.736  22.278  0.00  0.00     0.014 A 
ATOM     16  C   UNL d   1     -45.542  13.034  22.001  0.00  0.00     0.031 A 
ATOM     17  S   UNL d   1     -46.148  12.527  21.998  0.00  0.00    -0.069 SA
ATOM     18  C   UNL d   1     -44.780  12.946  21.786  0.00  0.00     0.007 C 
BRANCH  14  19
ATOM     19  C   UNL d   1     -47.043  14.224  22.733  0.00  0.00     0.302 C 
ATOM     20  O   UNL d   1     -47.181  14.270  23.513  0.00  0.00    -0.259 OA
BRANCH  19  21
ATOM     21  O   UNL d   1     -47.384  14.750  22.241  0.00  0.00    -0.271 OA
BRANCH  21  22
ATOM     22  C   UNL d   1     -47.563  15.442  22.593  0.00  0.00     0.126 C 
ATOM     23  C   UNL d   1     -48.227  15.825  22.393  0.00  0.00     0.029 C 
ENDBRANCH  21  22
ENDBRANCH  19  21
ENDBRANCH  14  19
ENDBRANCH   1  13
TORSDOF 4
ENDMDL
MODEL 7
REMARK VINA RESULT:      -5.8      8.381     10.248
REMARK  4 active torsions:
REMARK  status: ('A' for Active; 'I' for Inactive)
REMARK    1  A    between atoms: C_2  and  N_1 
REMARK    2  A    between atoms: C_12  and  C_5 
REMARK    3  A    between atoms: O_20  and  C_12 
REMARK    4  A    between atoms: C_22  and  O_20 
ROOT
ATOM      1  N   UNL d   1     -39.393  14.582  18.739  0.00  0.00    -0.237 N 
ATOM      2  C   UNL d   1     -39.059  15.182  18.270  0.00  0.00     0.263 A 
ATOM      3  C   UNL d   1     -40.119  14.367  18.413  0.00  0.00     0.263 A 
ATOM      4  C   UNL d   1     -40.246  14.831  17.736  0.00  0.00     0.039 A 
ATOM      5  C   UNL d   1     -39.585  15.335  17.651  0.00  0.00     0.039 A 
ATOM      6  C   UNL d   1     -40.868  14.864  17.188  0.00  0.00     0.049 A 
ATOM      7  C   UNL d   1     -39.548  15.873  17.017  0.00  0.00     0.049 A 
ATOM      8  C   UNL d   1     -40.831  15.402  16.553  0.00  0.00    -0.026 A 
ATOM      9  C   UNL d   1     -40.174  15.906  16.465  0.00  0.00    -0.026 A 
ATOM     10  C   UNL d   1     -40.170  15.146  17.409  0.00  0.00     0.018 A 
ATOM     11  O   UNL d   1     -40.613  13.814  18.695  0.00  0.00    -0.267 OA
ATOM     12  O   UNL d   1     -38.368  15.541  18.389  0.00  0.00    -0.267 OA
ENDROOT
BRANCH   1  13
ATOM     13  C   UNL d   1     -39.060  14.269  19.398  0.00  0.00     0.105 A 
ATOM     14  C   UNL d   1     -39.138  14.559  20.137  0.00  0.00     0.086 A 
ATOM     15  C   UNL d   1     -38.723  14.090  20.623  0.00  0.00     0.014 A 
ATOM     16  C   UNL d   1     -38.393  13.515  20.180  0.00  0.00     0.031 A 
ATOM     17  S   UNL d   1     -38.601  13.626  19.426  0.00  0.00    -0.069 SA
ATOM     18  C   UNL d   1     -37.941  12.958  20.525  0.00  0.00     0.007 C 
BRANCH  14  19
ATOM     19  C   UNL d   1     -39.553  15.198  20.346  0.00  0.00     0.302 C 
ATOM     20  O   UNL d   1     -39.240  15.921  20.265  0.00  0.00    -0.259 OA
BRANCH  19  21
ATOM     21  O   UNL d   1     -40.290  15.117  20.639  0.00  0.00    -0.271 OA
BRANCH  21  22
ATOM     22  C   UNL d   1     -40.476  15.672  21.181  0.00  0.00     0.126 C 
ATOM     23  C   UNL d   1     -41.227  15.913  21.253  0.00  0.00     0.029 C 
ENDBRANCH  21  22
ENDBRANCH  19  21
ENDBRANCH  14  19
ENDBRANCH   1  13
TORSDOF 4
ENDMDL
MODEL 8
REMARK VINA RESULT:      -5.7      8.358     10.253
REMARK  4 active torsions:
REMARK  status: ('A' for Active; 'I' for Inactive)
REMARK    1  A    between atoms: C_2  and  N_1 
REMARK    2  A    between atoms: C_12  and  C_5 
REMARK    3  A    between atoms: O_20  and  C_12 
REMARK    4  A    between atoms: C_22  and  O_20 
ROOT
ATOM      1  N   UNL d   1     -39.564  14.826  18.935  0.00  0.00    -0.237 N 
ATOM      2  C   UNL d   1     -39.753  14.127  18.526  0.00  0.00     0.263 A 
ATOM      3  C   UNL d   1     -38.981  15.228  18.514  0.00  0.00     0.263 A 
ATOM      4  C   UNL d   1     -38.799  14.783  17.836  0.00  0.00     0.039 A 
ATOM      5  C   UNL d   1     -39.281  14.101  17.849  0.00  0.00     0.039 A 
ATOM      6  C   UNL d   1     -38.264  14.904  17.214  0.00  0.00     0.049 A 
ATOM      7  C   UNL d   1     -39.227  13.540  17.236  0.00  0.00     0.049 A 
ATOM      8  C   UNL d   1     -38.209  14.344  16.601  0.00  0.00    -0.026 A 
ATOM      9  C   UNL d   1     -38.689  13.662  16.609  0.00  0.00    -0.026 A 
ATOM     10  C   UNL d   1     -38.813  14.441  17.528  0.00  0.00     0.018 A 
ATOM     11  O   UNL d   1     -38.649  15.919  18.718  0.00  0.00    -0.267 OA
ATOM     12  O   UNL d   1     -40.284  13.586  18.741  0.00  0.00    -0.267 OA
ENDROOT
BRANCH   1  13
ATOM     13  C   UNL d   1     -39.898  15.064  19.625  0.00  0.00     0.105 A 
ATOM     14  C   UNL d   1     -39.585  14.959  20.350  0.00  0.00     0.086 A 
ATOM     15  C   UNL d   1     -40.088  15.273  20.877  0.00  0.00     0.014 A 
ATOM     16  C   UNL d   1     -40.707  15.569  20.471  0.00  0.00     0.031 A 
ATOM     17  S   UNL d   1     -40.590  15.440  19.701  0.00  0.00    -0.069 SA
ATOM     18  C   UNL d   1     -41.305  15.922  20.862  0.00  0.00     0.007 C 
BRANCH  14  19
ATOM     19  C   UNL d   1     -38.897  14.606  20.514  0.00  0.00     0.302 C 
ATOM     20  O   UNL d   1     -38.213  14.986  20.388  0.00  0.00    -0.259 OA
BRANCH  19  21
ATOM     21  O   UNL d   1     -38.888  13.864  20.807  0.00  0.00    -0.271 OA
BRANCH  21  22
ATOM     22  C   UNL d   1     -38.294  13.735  21.322  0.00  0.00     0.126 C 
ATOM     23  C   UNL d   1     -38.022  13.000  21.433  0.00  0.00     0.029 C 
ENDBRANCH  21  22
ENDBRANCH  19  21
ENDBRANCH  14  19
ENDBRANCH   1  13
TORSDOF 4
ENDMDL
MODEL 9
REMARK VINA RESULT:      -5.6      9.235     10.614
REMARK  4 active torsions:
REMARK  status: ('A' for Active; 'I' for Inactive)
REMARK    1  A    between atoms: C_2  and  N_1 
REMARK    2  A    between atoms: C_12  and  C_5 
REMARK    3  A    between atoms: O_20  and  C_12 
REMARK    4  A    between atoms: C_22  and  O_20 
ROOT
ATOM      1  N   UNL d   1     -39.244  14.645  17.652  0.00  0.00    -0.237 N 
ATOM      2  C   UNL d   1     -38.863  15.011  17.010  0.00  0.00     0.263 A 
ATOM      3  C   UNL d   1     -39.195  13.828  17.557  0.00  0.00     0.263 A 
ATOM      4  C   UNL d   1     -38.783  13.674  16.852  0.00  0.00     0.039 A 
ATOM      5  C   UNL d   1     -38.579  14.412  16.516  0.00  0.00     0.039 A 
ATOM      6  C   UNL d   1     -38.566  12.969  16.472  0.00  0.00     0.049 A 
ATOM      7  C   UNL d   1     -38.157  14.442  15.799  0.00  0.00     0.049 A 
ATOM      8  C   UNL d   1     -38.145  12.999  15.755  0.00  0.00    -0.026 A 
ATOM      9  C   UNL d   1     -37.940  13.732  15.417  0.00  0.00    -0.026 A 
ATOM     10  C   UNL d   1     -38.553  13.753  16.461  0.00  0.00     0.018 A 
ATOM     11  O   UNL d   1     -39.490  13.281  18.050  0.00  0.00    -0.267 OA
ATOM     12  O   UNL d   1     -38.785  15.785  16.889  0.00  0.00    -0.267 OA
ENDROOT
BRANCH   1  13
ATOM     13  C   UNL d   1     -39.598  15.030  18.261  0.00  0.00     0.105 A 
ATOM     14  C   UNL d   1     -40.356  15.274  18.274  0.00  0.00     0.086 A 
ATOM     15  C   UNL d   1     -40.483  15.628  18.972  0.00  0.00     0.014 A 
ATOM     16  C   UNL d   1     -39.801  15.598  19.384  0.00  0.00     0.031 A 
ATOM     17  S   UNL d   1     -39.256  15.230  18.945  0.00  0.00    -0.069 SA
ATOM     18  C   UNL d   1     -39.763  15.915  20.114  0.00  0.00     0.007 C 
BRANCH  14  19
ATOM     19  C   UNL d   1     -40.886  15.180  17.695  0.00  0.00     0.302 C 
ATOM     20  O   UNL d   1     -41.238  14.478  17.585  0.00  0.00    -0.259 OA
BRANCH  19  21
ATOM     21  O   UNL d   1     -41.070  15.792  17.218  0.00  0.00    -0.271 OA
BRANCH  21  22
ATOM     22  C   UNL d   1     -41.804  15.744  16.912  0.00  0.00     0.126 C 
ATOM     23  C   UNL d   1     -41.923  15.914  16.147  0.00  0.00     0.029 C 
ENDBRANCH  21  22
ENDBRANCH  19  21
ENDBRANCH  14  19
ENDBRANCH   1  13
TORSDOF 4
ENDMDL
