MODEL 1
REMARK VINA RESULT:      -4.3      0.000      0.000
REMARK  5 active torsions:
REMARK  status: ('A' for Active; 'I' for Inactive)
REMARK    1  A    between atoms: C_2  and  S_1 
REMARK    2  A    between atoms: N_4  and  S_1 
REMARK    3  A    between atoms: C_11  and  N_4 
REMARK    4  A    between atoms: O_13  and  C_5 
REMARK    5  A    between atoms: O_14  and  C_6 
ROOT
ATOM      1  C   UNL d   1     -42.017-123.044 -50.217  0.00  0.00     0.141 A 
ATOM      2  C   UNL d   1     -41.502-123.419 -49.692  0.00  0.00     0.040 A 
ATOM      3  C   UNL d   1     -42.697-122.696 -49.939  0.00  0.00     0.107 A 
ATOM      4  C   UNL d   1     -41.671-123.443 -48.892  0.00  0.00     0.095 A 
ATOM      5  C   UNL d   1     -42.877-122.713 -49.139  0.00  0.00     0.027 A 
ATOM      6  C   UNL d   1     -42.362-123.088 -48.613  0.00  0.00     0.024 A 
ATOM      7  C   UNL d   1     -42.542-123.108 -47.800  0.00  0.00     0.002 C 
ENDROOT
BRANCH   1   8
ATOM      8  S   UNL d   1     -41.836-123.027 -51.019  0.00  0.00     0.329 S 
ATOM      9  O   UNL d   1     -42.158-123.778 -51.106  0.00  0.00    -0.186 OA
ATOM     10  O   UNL d   1     -41.512-122.281 -50.942  0.00  0.00    -0.186 OA
BRANCH   8  11
ATOM     11  N   UNL d   1     -41.657-123.018 -51.824  0.00  0.00    -0.316 NA
BRANCH  11  12
ATOM     12  C   UNL d   1     -41.480-123.003 -52.634  0.00  0.00     0.165 A 
ATOM     13  C   UNL d   1     -41.478-122.291 -53.036  0.00  0.00     0.132 A 
ATOM     14  N   UNL d   1     -41.301-122.277 -53.845  0.00  0.00    -0.240 NA
ATOM     15  C   UNL d   1     -41.128-122.976 -54.248  0.00  0.00     0.099 A 
ATOM     16  C   UNL d   1     -41.132-123.692 -53.835  0.00  0.00     0.023 A 
ATOM     17  C   UNL d   1     -41.307-123.715 -53.031  0.00  0.00     0.036 A 
ENDBRANCH  11  12
ENDBRANCH   8  11
ENDBRANCH   1   8
BRANCH   3  18
ATOM     18  O   UNL d   1     -43.212-122.321 -50.466  0.00  0.00    -0.327 OA
ATOM     19  C   UNL d   1     -43.916-121.980 -50.182  0.00  0.00     0.181 C 
ENDBRANCH   3  18
BRANCH   4  20
ATOM     20  O   UNL d   1     -41.156-123.817 -48.366  0.00  0.00    -0.328 OA
ATOM     21  C   UNL d   1     -41.123-123.577 -47.577  0.00  0.00     0.181 C 
ENDBRANCH   4  20
TORSDOF 5
ENDMDL
MODEL 2
REMARK VINA RESULT:      -4.0      1.430      4.179
REMARK  5 active torsions:
REMARK  status: ('A' for Active; 'I' for Inactive)
REMARK    1  A    between atoms: C_2  and  S_1 
REMARK    2  A    between atoms: N_4  and  S_1 
REMARK    3  A    between atoms: C_11  and  N_4 
REMARK    4  A    between atoms: O_13  and  C_5 
REMARK    5  A    between atoms: O_14  and  C_6 
ROOT
ATOM      1  C   UNL d   1     -41.652-122.798 -51.432  0.00  0.00     0.141 A 
ATOM      2  C   UNL d   1     -41.660-123.394 -52.004  0.00  0.00     0.040 A 
ATOM      3  C   UNL d   1     -41.469-122.035 -51.645  0.00  0.00     0.107 A 
ATOM      4  C   UNL d   1     -41.486-123.222 -52.784  0.00  0.00     0.095 A 
ATOM      5  C   UNL d   1     -41.293-121.850 -52.425  0.00  0.00     0.027 A 
ATOM      6  C   UNL d   1     -41.301-122.446 -52.997  0.00  0.00     0.024 A 
ATOM      7  C   UNL d   1     -41.123-122.262 -53.789  0.00  0.00     0.002 C 
ENDROOT
BRANCH   1   8
ATOM      8  S   UNL d   1     -41.828-122.984 -50.651  0.00  0.00     0.329 S 
ATOM      9  O   UNL d   1     -41.136-123.424 -50.601  0.00  0.00    -0.186 OA
ATOM     10  O   UNL d   1     -42.519-122.549 -50.691  0.00  0.00    -0.186 OA
BRANCH   8  11
ATOM     11  N   UNL d   1     -41.998-123.175 -49.867  0.00  0.00    -0.316 NA
BRANCH  11  12
ATOM     12  C   UNL d   1     -42.175-123.365 -49.079  0.00  0.00     0.165 A 
ATOM     13  C   UNL d   1     -42.954-123.376 -48.830  0.00  0.00     0.132 A 
ATOM     14  N   UNL d   1     -43.130-123.566 -48.042  0.00  0.00    -0.240 NA
ATOM     15  C   UNL d   1     -42.525-123.743 -47.509  0.00  0.00     0.099 A 
ATOM     16  C   UNL d   1     -41.740-123.729 -47.769  0.00  0.00     0.023 A 
ATOM     17  C   UNL d   1     -41.556-123.542 -48.550  0.00  0.00     0.036 A 
ENDBRANCH  11  12
ENDBRANCH   8  11
ENDBRANCH   1   8
BRANCH   3  18
ATOM     18  O   UNL d   1     -41.461-121.439 -51.072  0.00  0.00    -0.327 OA
ATOM     19  C   UNL d   1     -41.280-120.657 -51.292  0.00  0.00     0.181 C 
ENDBRANCH   3  18
BRANCH   4  20
ATOM     20  O   UNL d   1     -41.494-123.817 -53.356  0.00  0.00    -0.328 OA
ATOM     21  C   UNL d   1     -41.994-123.757 -54.010  0.00  0.00     0.181 C 
ENDBRANCH   4  20
TORSDOF 5
ENDMDL
