MODEL 1
REMARK VINA RESULT:     106.8      0.000      0.000
REMARK  7 active torsions:
REMARK  status: ('A' for Active; 'I' for Inactive)
REMARK    1  A    between atoms: N_3  and  S_1 
REMARK    2  A    between atoms: C_7  and  S_1 
REMARK    3  A    between atoms: N_2  and  C_6 
REMARK    4  A    between atoms: C_5  and  N_3 
REMARK    5  A    between atoms: C_10  and  N_4 
REMARK    6  A    between atoms: C_6  and  C_5 
REMARK    7  A    between atoms: C_11  and  C_6 
ROOT
ATOM      1  C   UNL d   1     -51.037  26.913  35.964  0.00  0.00     0.086 C 
ENDROOT
BRANCH   1   2
ATOM      2  N   UNL d   1     -51.391  26.496  36.602  0.00  0.00    -0.300 N 
ATOM      3  C   UNL d   1     -51.007  26.447  37.335  0.00  0.00     0.100 A 
ATOM      4  C   UNL d   1     -51.357  26.038  37.958  0.00  0.00     0.100 A 
ATOM      5  N   UNL d   1     -52.090  25.677  37.851  0.00  0.00    -0.301 N 
ATOM      6  C   UNL d   1     -52.474  25.726  37.118  0.00  0.00     0.100 A 
ATOM      7  C   UNL d   1     -52.124  26.136  36.494  0.00  0.00     0.100 A 
BRANCH   5   8
ATOM      8  C   UNL d   1     -52.440  25.268  38.473  0.00  0.00     0.064 A 
ATOM      9  C   UNL d   1     -51.966  24.891  39.033  0.00  0.00     0.020 A 
ATOM     10  C   UNL d   1     -52.316  24.480  39.659  0.00  0.00     0.031 A 
ATOM     11  C   UNL d   1     -53.138  24.447  39.723  0.00  0.00     0.140 A 
ATOM     12  C   UNL d   1     -53.610  24.826  39.161  0.00  0.00     0.031 A 
ATOM     13  F   UNL d   1     -53.498  24.032  40.354  0.00  0.00    -0.204 F 
ATOM     14  C   UNL d   1     -53.262  25.235  38.538  0.00  0.00     0.020 A 
ENDBRANCH   5   8
ENDBRANCH   1   2
BRANCH   1  15
ATOM     15  C   UNL d   1     -51.413  26.948  35.224  0.00  0.00     0.130 C 
BRANCH  15  16
ATOM     16  N   UNL d   1     -51.300  26.336  34.669  0.00  0.00    -0.155 NA
BRANCH  16  17
ATOM     17  S   UNL d   1     -51.761  26.298  33.994  0.00  0.00     0.285 S 
ATOM     18  O   UNL d   1     -52.231  26.259  33.306  0.00  0.00    -0.198 OA
ATOM     19  O   UNL d   1     -52.076  27.045  34.161  0.00  0.00    -0.198 OA
BRANCH  17  20
ATOM     20  C   UNL d   1     -51.447  25.545  33.823  0.00  0.00     0.105 A 
ATOM     21  C   UNL d   1     -51.913  24.873  33.935  0.00  0.00     0.015 A 
ATOM     22  C   UNL d   1     -51.609  24.127  33.767  0.00  0.00     0.030 A 
ATOM     23  C   UNL d   1     -50.824  24.052  33.482  0.00  0.00     0.140 A 
ATOM     24  C   UNL d   1     -50.359  24.729  33.371  0.00  0.00     0.030 A 
ATOM     25  F   UNL d   1     -50.497  23.295  33.306  0.00  0.00    -0.204 F 
ATOM     26  C   UNL d   1     -50.673  25.477  33.542  0.00  0.00     0.015 A 
ENDBRANCH  17  20
ENDBRANCH  16  17
ENDBRANCH  15  16
ENDBRANCH   1  15
BRANCH   1  27
ATOM     27  C   UNL d   1     -50.304  27.292  36.077  0.00  0.00     0.037 A 
ATOM     28  C   UNL d   1     -49.741  27.267  35.477  0.00  0.00     0.100 A 
ATOM     29  N   UNL d   1     -49.013  27.640  35.582  0.00  0.00    -0.242 NA
ATOM     30  C   UNL d   1     -48.856  28.036  36.290  0.00  0.00     0.099 A 
ATOM     31  C   UNL d   1     -49.419  28.062  36.890  0.00  0.00     0.021 A 
ATOM     32  C   UNL d   1     -50.146  27.687  36.782  0.00  0.00     0.005 A 
ENDBRANCH   1  27
TORSDOF 7
ENDMDL
