MODEL 1
REMARK VINA RESULT:      -7.9      0.000      0.000
REMARK  6 active torsions:
REMARK  status: ('A' for Active; 'I' for Inactive)
REMARK    1  A    between atoms: N_5  and  S_1 
REMARK    2  A    between atoms: C_6  and  S_1 
REMARK    3  A    between atoms: C_2  and  C_10 
REMARK       I    between atoms: N_3  and  C_2 
REMARK    4  A    between atoms: C_11  and  N_4 
REMARK    5  A    between atoms: C_17  and  N_5 
REMARK    6  A    between atoms: O_29  and  C_23 
ROOT
ATOM      1  C   UNL d   1      50.682  34.302  52.321  0.00  0.00     0.057 A 
ATOM      2  C   UNL d   1      51.751  34.479  53.565  0.00  0.00     0.094 A 
ATOM      3  C   UNL d   1      50.589  33.856  53.014  0.00  0.00     0.006 A 
ATOM      4  C   UNL d   1      51.311  34.833  52.260  0.00  0.00     0.006 A 
ATOM      5  C   UNL d   1      51.127  33.950  53.632  0.00  0.00     0.020 A 
ATOM      6  C   UNL d   1      51.839  34.921  52.872  0.00  0.00     0.020 A 
ENDROOT
BRANCH   1   7
ATOM      7  C   UNL d   1      50.144  34.215  51.693  0.00  0.00     0.265 C 
ATOM      8  N   UNL d   1      49.396  34.572  51.729  0.00  0.00    -0.269 N 
ATOM      9  C   UNL d   1      48.872  34.485  51.111  0.00  0.00     0.102 A 
ATOM     10  C   UNL d   1      49.187  35.016  52.390  0.00  0.00     0.102 A 
ATOM     11  C   UNL d   1      48.128  34.841  51.147  0.00  0.00     0.100 A 
ATOM     12  N   UNL d   1      47.924  35.282  51.809  0.00  0.00    -0.301 N 
ATOM     13  C   UNL d   1      48.449  35.370  52.427  0.00  0.00     0.100 A 
ATOM     14  O   UNL d   1      50.357  33.771  51.034  0.00  0.00    -0.267 OA
BRANCH  12  15
ATOM     15  C   UNL d   1      47.195  35.633  51.848  0.00  0.00     0.064 A 
ATOM     16  C   UNL d   1      47.095  36.323  52.288  0.00  0.00     0.020 A 
ATOM     17  C   UNL d   1      46.359  36.680  52.329  0.00  0.00     0.026 A 
ATOM     18  C   UNL d   1      45.714  36.352  51.931  0.00  0.00     0.094 A 
ATOM     19  C   UNL d   1      45.824  35.657  51.490  0.00  0.00     0.026 A 
ATOM     20  C   UNL d   1      46.557  35.306  51.453  0.00  0.00     0.020 A 
BRANCH  18  21
ATOM     21  O   UNL d   1      44.977  36.709  51.972  0.00  0.00    -0.328 OA
ATOM     22  C   UNL d   1      44.331  36.352  51.607  0.00  0.00     0.181 C 
ENDBRANCH  18  21
ENDBRANCH  12  15
ENDBRANCH   1   7
BRANCH   2  23
ATOM     23  N   UNL d   1      52.276  34.562  54.183  0.00  0.00    -0.158 NA
BRANCH  23  24
ATOM     24  S   UNL d   1      52.950  34.087  54.231  0.00  0.00     0.285 S 
ATOM     25  O   UNL d   1      52.487  33.459  54.478  0.00  0.00    -0.198 OA
ATOM     26  O   UNL d   1      53.404  34.727  53.982  0.00  0.00    -0.198 OA
BRANCH  24  27
ATOM     27  C   UNL d   1      53.624  33.625  54.275  0.00  0.00     0.107 A 
ATOM     28  C   UNL d   1      53.955  33.309  53.596  0.00  0.00     0.043 A 
ATOM     29  C   UNL d   1      54.637  32.841  53.642  0.00  0.00     0.141 A 
ATOM     30  F   UNL d   1      54.977  32.519  52.955  0.00  0.00    -0.204 F 
ATOM     31  C   UNL d   1      54.983  32.694  54.378  0.00  0.00     0.030 A 
ATOM     32  C   UNL d   1      54.647  33.014  55.067  0.00  0.00     0.003 A 
ATOM     33  C   UNL d   1      53.967  33.480  55.012  0.00  0.00     0.013 A 
ENDBRANCH  24  27
ENDBRANCH  23  24
ENDBRANCH   2  23
TORSDOF 6
ENDMDL
MODEL 2
REMARK VINA RESULT:      -7.3      2.831      6.895
REMARK  6 active torsions:
REMARK  status: ('A' for Active; 'I' for Inactive)
REMARK    1  A    between atoms: N_5  and  S_1 
REMARK    2  A    between atoms: C_6  and  S_1 
REMARK    3  A    between atoms: C_2  and  C_10 
REMARK       I    between atoms: N_3  and  C_2 
REMARK    4  A    between atoms: C_11  and  N_4 
REMARK    5  A    between atoms: C_17  and  N_5 
REMARK    6  A    between atoms: O_29  and  C_23 
ROOT
ATOM      1  C   UNL d   1      50.925  34.359  52.384  0.00  0.00     0.057 A 
ATOM      2  C   UNL d   1      49.437  34.495  51.685  0.00  0.00     0.094 A 
ATOM      3  C   UNL d   1      50.858  34.406  51.560  0.00  0.00     0.006 A 
ATOM      4  C   UNL d   1      50.244  34.381  52.850  0.00  0.00     0.006 A 
ATOM      5  C   UNL d   1      50.110  34.474  51.217  0.00  0.00     0.020 A 
ATOM      6  C   UNL d   1      49.510  34.448  52.507  0.00  0.00     0.020 A 
ENDROOT
BRANCH   1   7
ATOM      7  C   UNL d   1      51.674  34.290  52.739  0.00  0.00     0.265 C 
ATOM      8  N   UNL d   1      51.981  33.543  52.928  0.00  0.00    -0.269 N 
ATOM      9  C   UNL d   1      52.715  33.479  53.276  0.00  0.00     0.102 A 
ATOM     10  C   UNL d   1      51.541  32.867  52.763  0.00  0.00     0.102 A 
ATOM     11  C   UNL d   1      53.020  32.736  53.464  0.00  0.00     0.100 A 
ATOM     12  N   UNL d   1      52.578  32.064  53.297  0.00  0.00    -0.301 N 
ATOM     13  C   UNL d   1      51.843  32.128  52.949  0.00  0.00     0.100 A 
ATOM     14  O   UNL d   1      52.110  34.968  52.903  0.00  0.00    -0.267 OA
BRANCH  12  15
ATOM     15  C   UNL d   1      52.874  31.333  53.480  0.00  0.00     0.064 A 
ATOM     16  C   UNL d   1      52.814  30.718  52.932  0.00  0.00     0.020 A 
ATOM     17  C   UNL d   1      53.113  29.978  53.115  0.00  0.00     0.026 A 
ATOM     18  C   UNL d   1      53.475  29.842  53.845  0.00  0.00     0.094 A 
ATOM     19  C   UNL d   1      53.531  30.467  54.389  0.00  0.00     0.026 A 
ATOM     20  C   UNL d   1      53.232  31.201  54.203  0.00  0.00     0.020 A 
BRANCH  18  21
ATOM     21  O   UNL d   1      53.774  29.101  54.028  0.00  0.00    -0.328 OA
ATOM     22  C   UNL d   1      53.473  28.689  54.673  0.00  0.00     0.181 C 
ENDBRANCH  18  21
ENDBRANCH  12  15
ENDBRANCH   1   7
BRANCH   2  23
ATOM     23  N   UNL d   1      48.705  34.562  51.334  0.00  0.00    -0.158 NA
BRANCH  23  24
ATOM     24  S   UNL d   1      48.149  35.105  51.616  0.00  0.00     0.285 S 
ATOM     25  O   UNL d   1      48.473  35.683  51.135  0.00  0.00    -0.198 OA
ATOM     26  O   UNL d   1      47.833  34.515  52.095  0.00  0.00    -0.198 OA
BRANCH  24  27
ATOM     27  C   UNL d   1      47.595  35.635  51.902  0.00  0.00     0.107 A 
ATOM     28  C   UNL d   1      46.854  35.685  51.558  0.00  0.00     0.043 A 
ATOM     29  C   UNL d   1      46.294  36.222  51.848  0.00  0.00     0.141 A 
ATOM     30  F   UNL d   1      45.539  36.275  51.501  0.00  0.00    -0.204 F 
ATOM     31  C   UNL d   1      46.487  36.709  52.487  0.00  0.00     0.030 A 
ATOM     32  C   UNL d   1      47.239  36.659  52.835  0.00  0.00     0.003 A 
ATOM     33  C   UNL d   1      47.792  36.121  52.540  0.00  0.00     0.013 A 
ENDBRANCH  24  27
ENDBRANCH  23  24
ENDBRANCH   2  23
TORSDOF 6
ENDMDL
MODEL 3
REMARK VINA RESULT:      -7.3      2.255      3.340
REMARK  6 active torsions:
REMARK  status: ('A' for Active; 'I' for Inactive)
REMARK    1  A    between atoms: N_5  and  S_1 
REMARK    2  A    between atoms: C_6  and  S_1 
REMARK    3  A    between atoms: C_2  and  C_10 
REMARK       I    between atoms: N_3  and  C_2 
REMARK    4  A    between atoms: C_11  and  N_4 
REMARK    5  A    between atoms: C_17  and  N_5 
REMARK    6  A    between atoms: O_29  and  C_23 
ROOT
ATOM      1  C   UNL d   1      53.013  33.838  53.855  0.00  0.00     0.057 A 
ATOM      2  C   UNL d   1      53.856  32.421  53.854  0.00  0.00     0.094 A 
ATOM      3  C   UNL d   1      53.100  33.408  54.558  0.00  0.00     0.006 A 
ATOM      4  C   UNL d   1      53.350  33.553  53.158  0.00  0.00     0.006 A 
ATOM      5  C   UNL d   1      53.523  32.700  54.550  0.00  0.00     0.020 A 
ATOM      6  C   UNL d   1      53.766  32.854  53.156  0.00  0.00     0.020 A 
ENDROOT
BRANCH   1   7
ATOM      7  C   UNL d   1      52.589  34.553  53.853  0.00  0.00     0.265 C 
ATOM      8  N   UNL d   1      51.853  34.603  53.472  0.00  0.00    -0.269 N 
ATOM      9  C   UNL d   1      51.439  35.305  53.472  0.00  0.00     0.102 A 
ATOM     10  C   UNL d   1      51.543  33.939  53.094  0.00  0.00     0.102 A 
ATOM     11  C   UNL d   1      50.708  35.353  53.093  0.00  0.00     0.100 A 
ATOM     12  N   UNL d   1      50.403  34.689  52.718  0.00  0.00    -0.301 N 
ATOM     13  C   UNL d   1      50.817  33.987  52.718  0.00  0.00     0.100 A 
ATOM     14  O   UNL d   1      52.901  35.214  54.232  0.00  0.00    -0.267 OA
BRANCH  12  15
ATOM     15  C   UNL d   1      49.686  34.733  52.345  0.00  0.00     0.064 A 
ATOM     16  C   UNL d   1      49.046  35.088  52.727  0.00  0.00     0.020 A 
ATOM     17  C   UNL d   1      48.319  35.134  52.352  0.00  0.00     0.026 A 
ATOM     18  C   UNL d   1      48.223  34.827  51.592  0.00  0.00     0.094 A 
ATOM     19  C   UNL d   1      48.872  34.471  51.215  0.00  0.00     0.026 A 
ATOM     20  C   UNL d   1      49.591  34.428  51.592  0.00  0.00     0.020 A 
BRANCH  18  21
ATOM     21  O   UNL d   1      47.495  34.872  51.216  0.00  0.00    -0.328 OA
ATOM     22  C   UNL d   1      46.983  35.492  51.393  0.00  0.00     0.181 C 
ENDBRANCH  18  21
ENDBRANCH  12  15
ENDBRANCH   1   7
BRANCH   2  23
ATOM     23  N   UNL d   1      54.272  31.720  53.859  0.00  0.00    -0.158 NA
BRANCH  23  24
ATOM     24  S   UNL d   1      53.877  30.995  53.830  0.00  0.00     0.285 S 
ATOM     25  O   UNL d   1      53.668  31.079  54.617  0.00  0.00    -0.198 OA
ATOM     26  O   UNL d   1      54.093  30.923  53.039  0.00  0.00    -0.198 OA
BRANCH  24  27
ATOM     27  C   UNL d   1      53.488  30.275  53.790  0.00  0.00     0.107 A 
ATOM     28  C   UNL d   1      53.648  29.688  54.338  0.00  0.00     0.043 A 
ATOM     29  C   UNL d   1      53.255  28.960  54.297  0.00  0.00     0.141 A 
ATOM     30  F   UNL d   1      53.414  28.360  54.851  0.00  0.00    -0.204 F 
ATOM     31  C   UNL d   1      52.698  28.829  53.700  0.00  0.00     0.030 A 
ATOM     32  C   UNL d   1      52.536  29.425  53.145  0.00  0.00     0.003 A 
ATOM     33  C   UNL d   1      52.933  30.148  53.193  0.00  0.00     0.013 A 
ENDBRANCH  24  27
ENDBRANCH  23  24
ENDBRANCH   2  23
TORSDOF 6
ENDMDL
MODEL 4
REMARK VINA RESULT:      -7.1      2.906      6.699
REMARK  6 active torsions:
REMARK  status: ('A' for Active; 'I' for Inactive)
REMARK    1  A    between atoms: N_5  and  S_1 
REMARK    2  A    between atoms: C_6  and  S_1 
REMARK    3  A    between atoms: C_2  and  C_10 
REMARK       I    between atoms: N_3  and  C_2 
REMARK    4  A    between atoms: C_11  and  N_4 
REMARK    5  A    between atoms: C_17  and  N_5 
REMARK    6  A    between atoms: O_29  and  C_23 
ROOT
ATOM      1  C   UNL d   1      47.807  35.451  51.910  0.00  0.00     0.057 A 
ATOM      2  C   UNL d   1      46.671  36.290  52.762  0.00  0.00     0.094 A 
ATOM      3  C   UNL d   1      48.021  36.139  52.319  0.00  0.00     0.006 A 
ATOM      4  C   UNL d   1      47.024  35.191  51.932  0.00  0.00     0.006 A 
ATOM      5  C   UNL d   1      47.447  36.553  52.743  0.00  0.00     0.020 A 
ATOM      6  C   UNL d   1      46.463  35.603  52.351  0.00  0.00     0.020 A 
ENDROOT
BRANCH   1   7
ATOM      7  C   UNL d   1      48.378  35.026  51.480  0.00  0.00     0.265 C 
ATOM      8  N   UNL d   1      49.094  34.805  51.837  0.00  0.00    -0.269 N 
ATOM      9  C   UNL d   1      49.651  34.389  51.413  0.00  0.00     0.102 A 
ATOM     10  C   UNL d   1      49.238  35.010  52.622  0.00  0.00     0.102 A 
ATOM     11  C   UNL d   1      50.363  34.170  51.769  0.00  0.00     0.100 A 
ATOM     12  N   UNL d   1      50.502  34.376  52.552  0.00  0.00    -0.301 N 
ATOM     13  C   UNL d   1      49.944  34.793  52.976  0.00  0.00     0.100 A 
ATOM     14  O   UNL d   1      48.230  34.823  50.696  0.00  0.00    -0.267 OA
BRANCH  12  15
ATOM     15  C   UNL d   1      51.199  34.163  52.904  0.00  0.00     0.064 A 
ATOM     16  C   UNL d   1      51.266  33.425  53.267  0.00  0.00     0.020 A 
ATOM     17  C   UNL d   1      51.971  33.207  53.624  0.00  0.00     0.026 A 
ATOM     18  C   UNL d   1      52.615  33.723  53.624  0.00  0.00     0.094 A 
ATOM     19  C   UNL d   1      52.538  34.464  53.257  0.00  0.00     0.026 A 
ATOM     20  C   UNL d   1      51.837  34.676  52.903  0.00  0.00     0.020 A 
BRANCH  18  21
ATOM     21  O   UNL d   1      53.320  33.506  53.981  0.00  0.00    -0.328 OA
ATOM     22  C   UNL d   1      53.602  32.737  53.892  0.00  0.00     0.181 C 
ENDBRANCH  18  21
ENDBRANCH  12  15
ENDBRANCH   1   7
BRANCH   2  23
ATOM     23  N   UNL d   1      46.114  36.709  53.184  0.00  0.00    -0.158 NA
BRANCH  23  24
ATOM     24  S   UNL d   1      45.716  36.361  53.819  0.00  0.00     0.285 S 
ATOM     25  O   UNL d   1      46.367  36.494  54.297  0.00  0.00    -0.198 OA
ATOM     26  O   UNL d   1      45.069  36.233  53.328  0.00  0.00    -0.198 OA
BRANCH  24  27
ATOM     27  C   UNL d   1      45.314  36.014  54.442  0.00  0.00     0.107 A 
ATOM     28  C   UNL d   1      45.051  35.241  54.387  0.00  0.00     0.043 A 
ATOM     29  C   UNL d   1      44.644  34.891  55.018  0.00  0.00     0.141 A 
ATOM     30  F   UNL d   1      44.376  34.106  54.966  0.00  0.00    -0.204 F 
ATOM     31  C   UNL d   1      44.504  35.328  55.706  0.00  0.00     0.030 A 
ATOM     32  C   UNL d   1      44.770  36.113  55.762  0.00  0.00     0.003 A 
ATOM     33  C   UNL d   1      45.175  36.454  55.128  0.00  0.00     0.013 A 
ENDBRANCH  24  27
ENDBRANCH  23  24
ENDBRANCH   2  23
TORSDOF 6
ENDMDL
