MODEL 1
REMARK VINA RESULT:      54.0      0.000      0.000
REMARK  6 active torsions:
REMARK  status: ('A' for Active; 'I' for Inactive)
REMARK    1  A    between atoms: C_3  and  N_1 
REMARK       I    between atoms: C_4  and  N_1 
REMARK    2  A    between atoms: C_6  and  N_1 
REMARK    3  A    between atoms: N_2  and  C_3 
REMARK    4  A    between atoms: C_7  and  C_4 
REMARK    5  A    between atoms: O_22  and  C_15 
REMARK    6  A    between atoms: C_24  and  O_22 
ROOT
ATOM      1  N   UNL d   1      44.473 -16.334  38.119  0.00  0.00    -0.258 N 
ATOM      2  C   UNL d   1      44.283 -16.983  38.599  0.00  0.00     0.266 C 
ATOM      3  O   UNL d   1      43.565 -17.265  38.642  0.00  0.00    -0.267 OA
ENDROOT
BRANCH   1   4
ATOM      4  C   UNL d   1      45.246 -16.046  38.086  0.00  0.00     0.171 C 
BRANCH   4   5
ATOM      5  N   UNL d   1      45.615 -15.566  37.526  0.00  0.00    -0.257 N 
ATOM      6  C   UNL d   1      46.084 -14.905  37.667  0.00  0.00     0.266 A 
ATOM      7  O   UNL d   1      46.273 -14.595  38.415  0.00  0.00    -0.267 OA
ATOM      8  C   UNL d   1      46.338 -14.596  36.936  0.00  0.00     0.063 A 
ATOM      9  C   UNL d   1      46.023 -15.072  36.339  0.00  0.00     0.024 A 
ATOM     10  C   UNL d   1      45.577 -15.672  36.692  0.00  0.00     0.085 A 
ENDBRANCH   4   5
ENDBRANCH   1   4
BRANCH   1  11
ATOM     11  C   UNL d   1      43.881 -15.968  37.667  0.00  0.00     0.068 A 
ATOM     12  C   UNL d   1      43.798 -16.153  36.861  0.00  0.00     0.018 A 
ATOM     13  C   UNL d   1      43.210 -15.783  36.430  0.00  0.00     0.002 A 
ATOM     14  C   UNL d   1      42.710 -15.242  36.777  0.00  0.00     0.000 A 
ATOM     15  C   UNL d   1      42.791 -15.060  37.570  0.00  0.00     0.002 A 
ATOM     16  C   UNL d   1      42.119 -14.875  36.333  0.00  0.00     0.000 C 
ATOM     17  C   UNL d   1      43.373 -15.418  38.022  0.00  0.00     0.018 A 
ENDBRANCH   1  11
BRANCH   2  18
ATOM     18  C   UNL d   1      44.878 -17.337  39.042  0.00  0.00     0.057 A 
ATOM     19  C   UNL d   1      44.847 -17.303  39.863  0.00  0.00     0.007 A 
ATOM     20  C   UNL d   1      45.439 -17.655  40.311  0.00  0.00     0.025 A 
ATOM     21  C   UNL d   1      46.069 -18.045  39.930  0.00  0.00     0.100 A 
ATOM     22  C   UNL d   1      46.097 -18.077  39.112  0.00  0.00     0.025 A 
ATOM     23  C   UNL d   1      45.502 -17.723  38.652  0.00  0.00     0.007 A 
BRANCH  21  24
ATOM     24  O   UNL d   1      46.647 -18.387  40.389  0.00  0.00    -0.305 OA
BRANCH  24  25
ATOM     25  C   UNL d   1      46.644 -18.309  41.212  0.00  0.00     0.123 C 
ATOM     26  C   UNL d   1      46.626 -18.979  41.688  0.00  0.00     0.029 C 
ENDBRANCH  24  25
ENDBRANCH  21  24
ENDBRANCH   2  18
TORSDOF 6
ENDMDL
MODEL 2
REMARK VINA RESULT:      56.6      2.397      5.896
REMARK  6 active torsions:
REMARK  status: ('A' for Active; 'I' for Inactive)
REMARK    1  A    between atoms: C_3  and  N_1 
REMARK       I    between atoms: C_4  and  N_1 
REMARK    2  A    between atoms: C_6  and  N_1 
REMARK    3  A    between atoms: N_2  and  C_3 
REMARK    4  A    between atoms: C_7  and  C_4 
REMARK    5  A    between atoms: O_22  and  C_15 
REMARK    6  A    between atoms: C_24  and  O_22 
ROOT
ATOM      1  N   UNL d   1      46.016 -18.632  42.199  0.00  0.00    -0.258 N 
ATOM      2  C   UNL d   1      46.142 -18.983  41.459  0.00  0.00     0.266 C 
ATOM      3  O   UNL d   1      46.406 -19.705  41.386  0.00  0.00    -0.267 OA
ENDROOT
BRANCH   1   4
ATOM      4  C   UNL d   1      45.733 -17.858  42.258  0.00  0.00     0.171 C 
BRANCH   4   5
ATOM      5  N   UNL d   1      45.844 -17.290  42.846  0.00  0.00    -0.257 N 
ATOM      6  C   UNL d   1      45.361 -16.646  43.014  0.00  0.00     0.266 A 
ATOM      7  O   UNL d   1      44.659 -16.448  42.613  0.00  0.00    -0.267 OA
ATOM      8  C   UNL d   1      45.690 -16.224  43.652  0.00  0.00     0.063 A 
ATOM      9  C   UNL d   1      46.383 -16.613  43.879  0.00  0.00     0.024 A 
ATOM     10  C   UNL d   1      46.486 -17.270  43.389  0.00  0.00     0.085 A 
ENDBRANCH   4   5
ENDBRANCH   1   4
BRANCH   1  11
ATOM     11  C   UNL d   1      46.175 -19.062  42.891  0.00  0.00     0.068 A 
ATOM     12  C   UNL d   1      46.327 -19.878  42.849  0.00  0.00     0.018 A 
ATOM     13  C   UNL d   1      46.482 -20.286  43.541  0.00  0.00     0.002 A 
ATOM     14  C   UNL d   1      46.489 -19.908  44.261  0.00  0.00     0.000 A 
ATOM     15  C   UNL d   1      46.339 -19.105  44.303  0.00  0.00     0.002 A 
ATOM     16  C   UNL d   1      46.646 -20.329  44.954  0.00  0.00     0.000 C 
ATOM     17  C   UNL d   1      46.181 -18.675  43.624  0.00  0.00     0.018 A 
ENDBRANCH   1  11
BRANCH   2  18
ATOM     18  C   UNL d   1      45.980 -18.546  40.780  0.00  0.00     0.057 A 
ATOM     19  C   UNL d   1      46.581 -18.402  40.238  0.00  0.00     0.007 A 
ATOM     20  C   UNL d   1      46.425 -17.966  39.559  0.00  0.00     0.025 A 
ATOM     21  C   UNL d   1      45.657 -17.673  39.424  0.00  0.00     0.100 A 
ATOM     22  C   UNL d   1      45.061 -17.819  39.966  0.00  0.00     0.025 A 
ATOM     23  C   UNL d   1      45.211 -18.258  40.655  0.00  0.00     0.007 A 
BRANCH  21  24
ATOM     24  O   UNL d   1      45.521 -17.244  38.746  0.00  0.00    -0.305 OA
BRANCH  24  25
ATOM     25  C   UNL d   1      45.610 -16.421  38.733  0.00  0.00     0.123 C 
ATOM     26  C   UNL d   1      45.259 -15.980  38.136  0.00  0.00     0.029 C 
ENDBRANCH  24  25
ENDBRANCH  21  24
ENDBRANCH   2  18
TORSDOF 6
ENDMDL
