MODEL 1
REMARK VINA RESULT:       1.9      0.000      0.000
REMARK  8 active torsions:
REMARK  status: ('A' for Active; 'I' for Inactive)
REMARK    1  A    between atoms: C_2  and  C_1 
REMARK    2  A    between atoms: C_3  and  C_1 
REMARK    3  A    between atoms: C_5  and  C_1 
REMARK    4  A    between atoms: N_4  and  C_6 
REMARK    5  A    between atoms: C_7  and  N_4 
REMARK    6  A    between atoms: C_8  and  N_4 
REMARK    7  A    between atoms: C_20  and  C_7 
REMARK    8  A    between atoms: C_21  and  C_8 
ROOT
ATOM      1  C   UNL d   1      29.435  17.719 -24.161  0.00  0.00     0.044 A 
ATOM      2  C   UNL d   1      31.058  17.910 -23.905  0.00  0.00     0.064 A 
ATOM      3  C   UNL d   1      29.853  18.294 -24.587  0.00  0.00     0.004 A 
ATOM      4  C   UNL d   1      29.825  17.244 -23.613  0.00  0.00     0.004 A 
ATOM      5  C   UNL d   1      30.668  18.391 -24.459  0.00  0.00     0.018 A 
ATOM      6  C   UNL d   1      30.640  17.342 -23.485  0.00  0.00     0.018 A 
ENDROOT
BRANCH   2   7
ATOM      7  N   UNL d   1      31.863  18.006 -23.779  0.00  0.00    -0.304 N 
BRANCH   7   8
ATOM      8  C   UNL d   1      32.401  17.524 -24.168  0.00  0.00     0.080 C 
BRANCH   8   9
ATOM      9  C   UNL d   1      32.678  16.839 -23.818  0.00  0.00     0.018 A 
ATOM     10  C   UNL d   1      32.847  16.840 -23.011  0.00  0.00     0.002 A 
ATOM     11  C   UNL d   1      33.130  16.148 -22.639  0.00  0.00     0.000 A 
ATOM     12  C   UNL d   1      33.240  15.454 -23.092  0.00  0.00     0.000 A 
ATOM     13  C   UNL d   1      33.072  15.453 -23.899  0.00  0.00     0.000 A 
ATOM     14  C   UNL d   1      32.789  16.151 -24.262  0.00  0.00     0.002 A 
ENDBRANCH   8   9
ENDBRANCH   7   8
BRANCH   7  15
ATOM     15  C   UNL d   1      32.133  18.583 -23.264  0.00  0.00     0.080 C 
BRANCH  15  16
ATOM     16  C   UNL d   1      32.438  19.283 -23.555  0.00  0.00     0.018 A 
ATOM     17  C   UNL d   1      32.796  19.830 -23.046  0.00  0.00     0.002 A 
ATOM     18  C   UNL d   1      33.104  20.537 -23.339  0.00  0.00     0.000 A 
ATOM     19  C   UNL d   1      33.058  20.703 -24.145  0.00  0.00     0.000 A 
ATOM     20  C   UNL d   1      32.701  20.162 -24.665  0.00  0.00     0.000 A 
ATOM     21  C   UNL d   1      32.393  19.451 -24.355  0.00  0.00     0.002 A 
ENDBRANCH  15  16
ENDBRANCH   7  15
ENDBRANCH   2   7
BRANCH   1  22
ATOM     22  C   UNL d   1      28.625  17.622 -24.288  0.00  0.00     0.297 C 
ATOM     23  O   UNL d   1      27.816  17.525 -24.415  0.00  0.00    -0.281 OA
BRANCH  22  24
ATOM     24  C   UNL d   1      28.726  16.811 -24.312  0.00  0.00     0.457 C 
ATOM     25  F   UNL d   1      29.245  16.894 -24.948  0.00  0.00    -0.163 F 
ATOM     26  F   UNL d   1      28.206  16.728 -23.676  0.00  0.00    -0.163 F 
ATOM     27  F   UNL d   1      28.827  15.993 -24.336  0.00  0.00    -0.163 F 
ENDBRANCH  22  24
BRANCH  22  28
ATOM     28  C   UNL d   1      28.523  18.449 -24.264  0.00  0.00     0.457 C 
ATOM     29  F   UNL d   1      28.422  19.259 -24.241  0.00  0.00    -0.163 F 
ATOM     30  F   UNL d   1      28.774  18.503 -25.048  0.00  0.00    -0.163 F 
ATOM     31  F   UNL d   1      28.271  18.395 -23.480  0.00  0.00    -0.163 F 
ENDBRANCH  22  28
ENDBRANCH   1  22
TORSDOF 8
ENDMDL
MODEL 2
REMARK VINA RESULT:       2.0      2.984      4.749
REMARK  8 active torsions:
REMARK  status: ('A' for Active; 'I' for Inactive)
REMARK    1  A    between atoms: C_2  and  C_1 
REMARK    2  A    between atoms: C_3  and  C_1 
REMARK    3  A    between atoms: C_5  and  C_1 
REMARK    4  A    between atoms: N_4  and  C_6 
REMARK    5  A    between atoms: C_7  and  N_4 
REMARK    6  A    between atoms: C_8  and  N_4 
REMARK    7  A    between atoms: C_20  and  C_7 
REMARK    8  A    between atoms: C_21  and  C_8 
ROOT
ATOM      1  C   UNL d   1      32.425  19.591 -23.243  0.00  0.00     0.044 A 
ATOM      2  C   UNL d   1      32.548  21.137 -22.665  0.00  0.00     0.064 A 
ATOM      3  C   UNL d   1      31.742  20.050 -23.148  0.00  0.00     0.004 A 
ATOM      4  C   UNL d   1      33.163  19.903 -23.051  0.00  0.00     0.004 A 
ATOM      5  C   UNL d   1      31.802  20.826 -22.857  0.00  0.00     0.018 A 
ATOM      6  C   UNL d   1      33.223  20.680 -22.761  0.00  0.00     0.018 A 
ENDROOT
BRANCH   2   7
ATOM      7  N   UNL d   1      32.608  21.903 -22.378  0.00  0.00    -0.304 N 
BRANCH   7   8
ATOM      8  C   UNL d   1      33.149  22.081 -21.787  0.00  0.00     0.080 C 
BRANCH   8   9
ATOM      9  C   UNL d   1      32.906  22.172 -21.012  0.00  0.00     0.018 A 
ATOM     10  C   UNL d   1      33.104  21.593 -20.458  0.00  0.00     0.002 A 
ATOM     11  C   UNL d   1      32.863  21.672 -19.663  0.00  0.00     0.000 A 
ATOM     12  C   UNL d   1      32.421  22.342 -19.431  0.00  0.00     0.000 A 
ATOM     13  C   UNL d   1      32.223  22.921 -19.985  0.00  0.00     0.000 A 
ATOM     14  C   UNL d   1      32.468  22.833 -20.779  0.00  0.00     0.002 A 
ENDBRANCH   8   9
ENDBRANCH   7   8
BRANCH   7  15
ATOM     15  C   UNL d   1      32.128  22.494 -22.680  0.00  0.00     0.080 C 
BRANCH  15  16
ATOM     16  C   UNL d   1      32.329  22.871 -23.377  0.00  0.00     0.018 A 
ATOM     17  C   UNL d   1      33.021  23.322 -23.427  0.00  0.00     0.002 A 
ATOM     18  C   UNL d   1      33.224  23.702 -24.130  0.00  0.00     0.000 A 
ATOM     19  C   UNL d   1      32.736  23.635 -24.790  0.00  0.00     0.000 A 
ATOM     20  C   UNL d   1      32.038  23.185 -24.752  0.00  0.00     0.000 A 
ATOM     21  C   UNL d   1      31.845  22.806 -24.034  0.00  0.00     0.002 A 
ENDBRANCH  15  16
ENDBRANCH   7  15
ENDBRANCH   2   7
BRANCH   1  22
ATOM     22  C   UNL d   1      32.365  18.821 -23.531  0.00  0.00     0.297 C 
ATOM     23  O   UNL d   1      32.306  18.050 -23.819  0.00  0.00    -0.281 OA
BRANCH  22  24
ATOM     24  C   UNL d   1      32.336  19.109 -24.295  0.00  0.00     0.457 C 
ATOM     25  F   UNL d   1      33.158  19.062 -24.345  0.00  0.00    -0.163 F 
ATOM     26  F   UNL d   1      31.513  19.155 -24.246  0.00  0.00    -0.163 F 
ATOM     27  F   UNL d   1      32.305  19.400 -25.067  0.00  0.00    -0.163 F 
ENDBRANCH  22  24
BRANCH  22  28
ATOM     28  C   UNL d   1      32.396  18.527 -22.751  0.00  0.00     0.457 C 
ATOM     29  F   UNL d   1      32.426  18.239 -21.988  0.00  0.00    -0.163 F 
ATOM     30  F   UNL d   1      31.575  18.585 -22.697  0.00  0.00    -0.163 F 
ATOM     31  F   UNL d   1      33.217  18.469 -22.805  0.00  0.00    -0.163 F 
ENDBRANCH  22  28
ENDBRANCH   1  22
TORSDOF 8
ENDMDL
MODEL 3
REMARK VINA RESULT:       4.1      2.334      3.963
REMARK  8 active torsions:
REMARK  status: ('A' for Active; 'I' for Inactive)
REMARK    1  A    between atoms: C_2  and  C_1 
REMARK    2  A    between atoms: C_3  and  C_1 
REMARK    3  A    between atoms: C_5  and  C_1 
REMARK    4  A    between atoms: N_4  and  C_6 
REMARK    5  A    between atoms: C_7  and  N_4 
REMARK    6  A    between atoms: C_8  and  N_4 
REMARK    7  A    between atoms: C_20  and  C_7 
REMARK    8  A    between atoms: C_21  and  C_8 
ROOT
ATOM      1  C   UNL d   1      32.133  18.964 -23.696  0.00  0.00     0.044 A 
ATOM      2  C   UNL d   1      31.175  17.662 -24.050  0.00  0.00     0.064 A 
ATOM      3  C   UNL d   1      31.904  18.824 -24.480  0.00  0.00     0.004 A 
ATOM      4  C   UNL d   1      31.885  18.458 -23.096  0.00  0.00     0.004 A 
ATOM      5  C   UNL d   1      31.423  18.171 -24.659  0.00  0.00     0.018 A 
ATOM      6  C   UNL d   1      31.404  17.805 -23.275  0.00  0.00     0.018 A 
ENDROOT
BRANCH   2   7
ATOM      7  N   UNL d   1      30.700  17.017 -24.227  0.00  0.00    -0.304 N 
BRANCH   7   8
ATOM      8  C   UNL d   1      30.931  16.262 -24.003  0.00  0.00     0.080 C 
BRANCH   8   9
ATOM      9  C   UNL d   1      31.690  15.996 -24.150  0.00  0.00     0.018 A 
ATOM     10  C   UNL d   1      31.896  15.775 -24.917  0.00  0.00     0.002 A 
ATOM     11  C   UNL d   1      32.667  15.501 -25.084  0.00  0.00     0.000 A 
ATOM     12  C   UNL d   1      33.229  15.454 -24.466  0.00  0.00     0.000 A 
ATOM     13  C   UNL d   1      33.022  15.676 -23.699  0.00  0.00     0.000 A 
ATOM     14  C   UNL d   1      32.248  15.948 -23.543  0.00  0.00     0.002 A 
ENDBRANCH   8   9
ENDBRANCH   7   8
BRANCH   7  15
ATOM     15  C   UNL d   1      29.993  17.123 -24.628  0.00  0.00     0.080 C 
BRANCH  15  16
ATOM     16  C   UNL d   1      29.307  16.779 -24.349  0.00  0.00     0.018 A 
ATOM     17  C   UNL d   1      29.339  16.110 -23.862  0.00  0.00     0.002 A 
ATOM     18  C   UNL d   1      28.646  15.762 -23.580  0.00  0.00     0.000 A 
ATOM     19  C   UNL d   1      27.914  16.080 -23.783  0.00  0.00     0.000 A 
ATOM     20  C   UNL d   1      27.869  16.751 -24.271  0.00  0.00     0.000 A 
ATOM     21  C   UNL d   1      28.578  17.093 -24.549  0.00  0.00     0.002 A 
ENDBRANCH  15  16
ENDBRANCH   7  15
ENDBRANCH   2   7
BRANCH   1  22
ATOM     22  C   UNL d   1      32.610  19.613 -23.518  0.00  0.00     0.297 C 
ATOM     23  O   UNL d   1      33.088  20.262 -23.340  0.00  0.00    -0.281 OA
BRANCH  22  24
ATOM     24  C   UNL d   1      32.840  19.659 -24.301  0.00  0.00     0.457 C 
ATOM     25  F   UNL d   1      32.499  20.408 -24.357  0.00  0.00    -0.163 F 
ATOM     26  F   UNL d   1      33.181  18.910 -24.245  0.00  0.00    -0.163 F 
ATOM     27  F   UNL d   1      33.071  19.705 -25.091  0.00  0.00    -0.163 F 
ENDBRANCH  22  24
BRANCH  22  28
ATOM     28  C   UNL d   1      32.376  19.566 -22.719  0.00  0.00     0.457 C 
ATOM     29  F   UNL d   1      32.147  19.520 -21.937  0.00  0.00    -0.163 F 
ATOM     30  F   UNL d   1      31.673  19.958 -22.902  0.00  0.00    -0.163 F 
ATOM     31  F   UNL d   1      33.079  19.175 -22.536  0.00  0.00    -0.163 F 
ENDBRANCH  22  28
ENDBRANCH   1  22
TORSDOF 8
ENDMDL
