MODEL 1
REMARK VINA RESULT:      50.6      0.000      0.000
REMARK  4 active torsions:
REMARK  status: ('A' for Active; 'I' for Inactive)
REMARK    1  A    between atoms: C_6  and  N_2 
REMARK    2  A    between atoms: C_11  and  C_6 
REMARK    3  A    between atoms: C_10  and  C_11 
REMARK       I    between atoms: N_14  and  C_10 
REMARK    4  A    between atoms: C_16  and  N_14 
ROOT
ATOM      1  C   UNL d   1      13.249  12.757  -3.800  0.00  0.00     0.082 C 
ENDROOT
BRANCH   1   2
ATOM      2  C   UNL d   1      13.383  13.451  -4.017  0.00  0.00     0.281 C 
ATOM      3  N   UNL d   1      13.335  14.207  -3.702  0.00  0.00    -0.208 NA
ATOM      4  O   UNL d   1      13.585  13.114  -4.673  0.00  0.00    -0.265 OA
BRANCH   3   5
ATOM      5  C   UNL d   1      13.552  14.858  -4.170  0.00  0.00     0.087 A 
ATOM      6  C   UNL d   1      14.233  15.277  -3.985  0.00  0.00     0.046 A 
ATOM      7  C   UNL d   1      14.450  15.927  -4.453  0.00  0.00     0.124 A 
ATOM      8  O   UNL d   1      15.131  16.347  -4.268  0.00  0.00    -0.301 OA
ATOM      9  C   UNL d   1      13.996  16.151  -5.092  0.00  0.00     0.123 A 
ATOM     10  C   UNL d   1      15.357  16.992  -4.722  0.00  0.00     0.149 A 
ATOM     11  C   UNL d   1      14.893  17.212  -5.366  0.00  0.00     0.149 A 
ATOM     12  O   UNL d   1      14.212  16.792  -5.552  0.00  0.00    -0.301 OA
ATOM     13  C   UNL d   1      13.314  15.722  -5.269  0.00  0.00     0.028 A 
ATOM     14  C   UNL d   1      13.088  15.078  -4.815  0.00  0.00     0.021 A 
ENDBRANCH   3   5
ENDBRANCH   1   2
BRANCH   1  15
ATOM     15  C   UNL d   1      13.567  12.134  -3.374  0.00  0.00     0.100 C 
BRANCH  15  16
ATOM     16  N   UNL d   1      14.101  12.048  -2.776  0.00  0.00    -0.197 N 
ATOM     17  S   UNL d   1      14.705  11.960  -2.195  0.00  0.00     0.274 S 
ATOM     18  C   UNL d   1      14.330  11.906  -1.436  0.00  0.00     0.109 A 
ATOM     19  O   UNL d   1      15.122  11.863  -1.428  0.00  0.00    -0.200 OA
ATOM     20  O   UNL d   1      15.519  11.937  -2.403  0.00  0.00    -0.200 OA
ATOM     21  C   UNL d   1      13.500  11.961  -1.553  0.00  0.00     0.069 A 
ATOM     22  C   UNL d   1      14.639  11.815  -0.663  0.00  0.00     0.013 A 
ATOM     23  C   UNL d   1      12.975  11.925  -0.896  0.00  0.00     0.005 A 
ATOM     24  C   UNL d   1      13.357  12.048  -2.376  0.00  0.00     0.275 A 
ATOM     25  C   UNL d   1      13.292  11.834  -0.130  0.00  0.00     0.000 A 
ATOM     26  C   UNL d   1      14.122  11.779  -0.014  0.00  0.00     0.001 A 
ATOM     27  O   UNL d   1      12.771  12.117  -2.764  0.00  0.00    -0.266 OA
ENDBRANCH  15  16
ENDBRANCH   1  15
TORSDOF 4
ENDMDL
