MODEL 1
REMARK VINA RESULT:      -3.0      0.000      0.000
REMARK  1 active torsions:
REMARK  status: ('A' for Active; 'I' for Inactive)
REMARK    1  A    between atoms: C_5  and  C_1 
ROOT
ATOM      1  C   UNL d   1      30.987  16.721 -23.935  0.00  0.00     0.162 A 
ATOM      2  N   UNL d   1      30.846  16.134 -23.409  0.00  0.00    -0.225 NA
ATOM      3  N   UNL d   1      30.314  16.967 -24.282  0.00  0.00    -0.225 NA
ATOM      4  C   UNL d   1      30.015  15.990 -23.418  0.00  0.00     0.101 A 
ATOM      5  C   UNL d   1      29.685  16.507 -23.961  0.00  0.00     0.101 A 
ATOM      6  C   UNL d   1      29.544  15.454 -22.999  0.00  0.00     0.021 A 
ATOM      7  C   UNL d   1      28.875  16.503 -24.098  0.00  0.00     0.021 A 
ATOM      8  C   UNL d   1      28.393  15.972 -23.684  0.00  0.00     0.002 A 
ATOM      9  C   UNL d   1      28.724  15.455 -23.142  0.00  0.00     0.002 A 
ENDROOT
BRANCH   1  10
ATOM     10  C   UNL d   1      31.726  17.027 -24.093  0.00  0.00     0.036 A 
ATOM     11  C   UNL d   1      32.203  16.691 -24.674  0.00  0.00     0.003 A 
ATOM     12  C   UNL d   1      31.922  16.035 -25.097  0.00  0.00     0.000 C 
ATOM     13  C   UNL d   1      32.952  17.001 -24.834  0.00  0.00     0.000 A 
ATOM     14  C   UNL d   1      33.241  17.655 -24.417  0.00  0.00     0.000 A 
ATOM     15  C   UNL d   1      32.758  17.985 -23.839  0.00  0.00     0.000 A 
ATOM     16  C   UNL d   1      32.009  17.675 -23.678  0.00  0.00     0.003 A 
ENDBRANCH   1  10
TORSDOF 1
ENDMDL
MODEL 2
REMARK VINA RESULT:      -2.9      0.576      3.460
REMARK  1 active torsions:
REMARK  status: ('A' for Active; 'I' for Inactive)
REMARK    1  A    between atoms: C_5  and  C_1 
ROOT
ATOM      1  C   UNL d   1      30.754  16.576 -23.982  0.00  0.00     0.162 A 
ATOM      2  N   UNL d   1      31.154  17.151 -23.595  0.00  0.00    -0.225 NA
ATOM      3  N   UNL d   1      31.180  16.285 -24.589  0.00  0.00    -0.225 NA
ATOM      4  C   UNL d   1      31.898  17.238 -23.983  0.00  0.00     0.101 A 
ATOM      5  C   UNL d   1      31.914  16.700 -24.600  0.00  0.00     0.101 A 
ATOM      6  C   UNL d   1      32.540  17.739 -23.838  0.00  0.00     0.021 A 
ATOM      7  C   UNL d   1      32.572  16.649 -25.089  0.00  0.00     0.021 A 
ATOM      8  C   UNL d   1      33.221  17.145 -24.954  0.00  0.00     0.002 A 
ATOM      9  C   UNL d   1      33.205  17.683 -24.337  0.00  0.00     0.002 A 
ENDROOT
BRANCH   1  10
ATOM     10  C   UNL d   1      30.006  16.321 -23.780  0.00  0.00     0.036 A 
ATOM     11  C   UNL d   1      29.341  16.655 -24.132  0.00  0.00     0.003 A 
ATOM     12  C   UNL d   1      29.441  17.254 -24.697  0.00  0.00     0.000 C 
ATOM     13  C   UNL d   1      28.583  16.397 -23.927  0.00  0.00     0.000 A 
ATOM     14  C   UNL d   1      28.474  15.800 -23.365  0.00  0.00     0.000 A 
ATOM     15  C   UNL d   1      29.144  15.472 -23.017  0.00  0.00     0.000 A 
ATOM     16  C   UNL d   1      29.901  15.730 -23.222  0.00  0.00     0.003 A 
ENDBRANCH   1  10
TORSDOF 1
ENDMDL
MODEL 3
REMARK VINA RESULT:      -2.8      0.633      3.457
REMARK  1 active torsions:
REMARK  status: ('A' for Active; 'I' for Inactive)
REMARK    1  A    between atoms: C_5  and  C_1 
ROOT
ATOM      1  C   UNL d   1      30.788  16.837 -24.088  0.00  0.00     0.162 A 
ATOM      2  N   UNL d   1      31.266  16.641 -24.700  0.00  0.00    -0.225 NA
ATOM      3  N   UNL d   1      31.120  17.399 -23.631  0.00  0.00    -0.225 NA
ATOM      4  C   UNL d   1      31.961  17.113 -24.632  0.00  0.00     0.101 A 
ATOM      5  C   UNL d   1      31.870  17.584 -23.969  0.00  0.00     0.101 A 
ATOM      6  C   UNL d   1      32.644  17.157 -25.096  0.00  0.00     0.021 A 
ATOM      7  C   UNL d   1      32.461  18.112 -23.751  0.00  0.00     0.021 A 
ATOM      8  C   UNL d   1      33.149  18.166 -24.207  0.00  0.00     0.002 A 
ATOM      9  C   UNL d   1      33.239  17.695 -24.871  0.00  0.00     0.002 A 
ENDROOT
BRANCH   1  10
ATOM     10  C   UNL d   1      30.057  16.505 -23.951  0.00  0.00     0.036 A 
ATOM     11  C   UNL d   1      29.987  15.811 -23.514  0.00  0.00     0.003 A 
ATOM     12  C   UNL d   1      30.673  15.453 -23.213  0.00  0.00     0.000 C 
ATOM     13  C   UNL d   1      29.246  15.473 -23.375  0.00  0.00     0.000 A 
ATOM     14  C   UNL d   1      28.557  15.823 -23.671  0.00  0.00     0.000 A 
ATOM     15  C   UNL d   1      28.635  16.516 -24.107  0.00  0.00     0.000 A 
ATOM     16  C   UNL d   1      29.376  16.853 -24.246  0.00  0.00     0.003 A 
ENDBRANCH   1  10
TORSDOF 1
ENDMDL
MODEL 4
REMARK VINA RESULT:      -2.3      2.031      3.153
REMARK  1 active torsions:
REMARK  status: ('A' for Active; 'I' for Inactive)
REMARK    1  A    between atoms: C_5  and  C_1 
ROOT
ATOM      1  C   UNL d   1      32.755  18.329 -23.236  0.00  0.00     0.162 A 
ATOM      2  N   UNL d   1      33.186  17.677 -23.064  0.00  0.00    -0.225 NA
ATOM      3  N   UNL d   1      32.153  18.157 -23.729  0.00  0.00    -0.225 NA
ATOM      4  C   UNL d   1      32.834  17.032 -23.479  0.00  0.00     0.101 A 
ATOM      5  C   UNL d   1      32.192  17.331 -23.891  0.00  0.00     0.101 A 
ATOM      6  C   UNL d   1      33.030  16.230 -23.518  0.00  0.00     0.021 A 
ATOM      7  C   UNL d   1      31.729  16.834 -24.354  0.00  0.00     0.021 A 
ATOM      8  C   UNL d   1      31.916  16.029 -24.402  0.00  0.00     0.002 A 
ATOM      9  C   UNL d   1      32.557  15.731 -23.989  0.00  0.00     0.002 A 
ENDROOT
BRANCH   1  10
ATOM     10  C   UNL d   1      32.913  19.074 -22.944  0.00  0.00     0.036 A 
ATOM     11  C   UNL d   1      33.081  19.697 -23.455  0.00  0.00     0.003 A 
ATOM     12  C   UNL d   1      33.087  19.558 -24.273  0.00  0.00     0.000 C 
ATOM     13  C   UNL d   1      33.241  20.452 -23.159  0.00  0.00     0.000 A 
ATOM     14  C   UNL d   1      33.237  20.600 -22.346  0.00  0.00     0.000 A 
ATOM     15  C   UNL d   1      33.069  19.971 -21.842  0.00  0.00     0.000 A 
ATOM     16  C   UNL d   1      32.908  19.217 -22.138  0.00  0.00     0.003 A 
ENDBRANCH   1  10
TORSDOF 1
ENDMDL
MODEL 5
REMARK VINA RESULT:      -1.5      1.370      3.449
REMARK  1 active torsions:
REMARK  status: ('A' for Active; 'I' for Inactive)
REMARK    1  A    between atoms: C_5  and  C_1 
ROOT
ATOM      1  C   UNL d   1      31.831  17.525 -24.215  0.00  0.00     0.162 A 
ATOM      2  N   UNL d   1      32.074  17.707 -23.474  0.00  0.00    -0.225 NA
ATOM      3  N   UNL d   1      32.061  18.080 -24.739  0.00  0.00    -0.225 NA
ATOM      4  C   UNL d   1      32.494  18.436 -23.523  0.00  0.00     0.101 A 
ATOM      5  C   UNL d   1      32.486  18.668 -24.309  0.00  0.00     0.101 A 
ATOM      6  C   UNL d   1      32.870  18.896 -22.947  0.00  0.00     0.021 A 
ATOM      7  C   UNL d   1      32.854  19.365 -24.539  0.00  0.00     0.021 A 
ATOM      8  C   UNL d   1      33.233  19.834 -23.972  0.00  0.00     0.002 A 
ATOM      9  C   UNL d   1      33.241  19.602 -23.187  0.00  0.00     0.002 A 
ENDROOT
BRANCH   1  10
ATOM     10  C   UNL d   1      31.403  16.859 -24.408  0.00  0.00     0.036 A 
ATOM     11  C   UNL d   1      31.786  16.146 -24.563  0.00  0.00     0.003 A 
ATOM     12  C   UNL d   1      32.614  16.115 -24.521  0.00  0.00     0.000 C 
ATOM     13  C   UNL d   1      31.353  15.470 -24.758  0.00  0.00     0.000 A 
ATOM     14  C   UNL d   1      30.527  15.492 -24.802  0.00  0.00     0.000 A 
ATOM     15  C   UNL d   1      30.153  16.208 -24.646  0.00  0.00     0.000 A 
ATOM     16  C   UNL d   1      30.586  16.883 -24.451  0.00  0.00     0.003 A 
ENDBRANCH   1  10
TORSDOF 1
ENDMDL
