MODEL 1
REMARK VINA RESULT:      -6.7      0.000      0.000
REMARK  1 active torsions:
REMARK  status: ('A' for Active; 'I' for Inactive)
REMARK    1  A    between atoms: C_2  and  CA_3 
ROOT
ATOM      1  N   UNL d   1      52.958  33.102  54.039  0.00  0.00    -0.237 NA
ATOM      2  CA  UNL d   1      53.257  32.653  53.427  0.00  0.00     0.145 A 
ATOM      3  C   UNL d   1      54.074  32.502  53.381  0.00  0.00     0.026 A 
ATOM      4  C   UNL d   1      53.461  33.406  54.610  0.00  0.00     0.106 A 
ATOM      5  C   UNL d   1      54.279  33.256  54.564  0.00  0.00     0.054 A 
ATOM      6  C   UNL d   1      54.571  32.805  53.949  0.00  0.00     0.010 A 
ATOM      7 BR   UNL d   1      54.778  33.564  55.140  0.00  0.00    -0.048 Br
ENDROOT
BRANCH   2   8
ATOM      8  C   UNL d   1      52.752  32.346  52.851  0.00  0.00     0.229 C 
ATOM      9  O   UNL d   1      52.750  31.539  52.680  0.00  0.00    -0.643 OA
ATOM     10  OXT UNL d   1      52.243  32.841  52.437  0.00  0.00    -0.643 OA
ENDBRANCH   2   8
TORSDOF 1
ENDMDL
MODEL 2
REMARK VINA RESULT:      -6.3      2.110      2.481
REMARK  1 active torsions:
REMARK  status: ('A' for Active; 'I' for Inactive)
REMARK    1  A    between atoms: C_2  and  CA_3 
ROOT
ATOM      1  N   UNL d   1      53.380  33.611  53.880  0.00  0.00    -0.237 NA
ATOM      2  CA  UNL d   1      53.876  33.443  54.505  0.00  0.00     0.145 A 
ATOM      3  C   UNL d   1      54.100  32.656  54.660  0.00  0.00     0.026 A 
ATOM      4  C   UNL d   1      53.101  33.006  53.402  0.00  0.00     0.106 A 
ATOM      5  C   UNL d   1      53.325  32.219  53.557  0.00  0.00     0.054 A 
ATOM      6  C   UNL d   1      53.822  32.059  54.185  0.00  0.00     0.010 A 
ATOM      7 BR   UNL d   1      53.041  31.618  53.073  0.00  0.00    -0.048 Br
ENDROOT
BRANCH   2   8
ATOM      8  C   UNL d   1      54.158  34.050  54.988  0.00  0.00     0.229 C 
ATOM      9  O   UNL d   1      54.948  34.068  55.224  0.00  0.00    -0.643 OA
ATOM     10  OXT UNL d   1      53.654  34.649  55.241  0.00  0.00    -0.643 OA
ENDBRANCH   2   8
TORSDOF 1
ENDMDL
MODEL 3
REMARK VINA RESULT:      -6.2      2.316      2.710
REMARK  1 active torsions:
REMARK  status: ('A' for Active; 'I' for Inactive)
REMARK    1  A    between atoms: C_2  and  CA_3 
ROOT
ATOM      1  N   UNL d   1      53.650  34.553  54.800  0.00  0.00    -0.237 NA
ATOM      2  CA  UNL d   1      54.004  33.828  54.683  0.00  0.00     0.145 A 
ATOM      3  C   UNL d   1      53.764  33.344  54.049  0.00  0.00     0.026 A 
ATOM      4  C   UNL d   1      53.058  34.808  54.294  0.00  0.00     0.106 A 
ATOM      5  C   UNL d   1      52.817  34.325  53.660  0.00  0.00     0.054 A 
ATOM      6  C   UNL d   1      53.176  33.599  53.549  0.00  0.00     0.010 A 
ATOM      7 BR   UNL d   1      52.222  34.587  53.157  0.00  0.00    -0.048 Br
ENDROOT
BRANCH   2   8
ATOM      8  C   UNL d   1      54.601  33.569  55.191  0.00  0.00     0.229 C 
ATOM      9  O   UNL d   1      55.295  34.004  55.281  0.00  0.00    -0.643 OA
ATOM     10  OXT UNL d   1      54.511  32.870  55.615  0.00  0.00    -0.643 OA
ENDBRANCH   2   8
TORSDOF 1
ENDMDL
MODEL 4
REMARK VINA RESULT:      -6.1      1.431      1.742
REMARK  1 active torsions:
REMARK  status: ('A' for Active; 'I' for Inactive)
REMARK    1  A    between atoms: C_2  and  CA_3 
ROOT
ATOM      1  N   UNL d   1      52.549  31.945  52.820  0.00  0.00    -0.237 NA
ATOM      2  CA  UNL d   1      53.071  31.432  53.179  0.00  0.00     0.145 A 
ATOM      3  C   UNL d   1      53.641  31.724  53.713  0.00  0.00     0.026 A 
ATOM      4  C   UNL d   1      52.583  32.748  52.983  0.00  0.00     0.106 A 
ATOM      5  C   UNL d   1      53.152  33.039  53.517  0.00  0.00     0.054 A 
ATOM      6  C   UNL d   1      53.672  32.520  53.873  0.00  0.00     0.010 A 
ATOM      7 BR   UNL d   1      53.179  33.845  53.675  0.00  0.00    -0.048 Br
ENDROOT
BRANCH   2   8
ATOM      8  C   UNL d   1      53.040  30.624  53.017  0.00  0.00     0.229 C 
ATOM      9  O   UNL d   1      53.134  30.069  53.620  0.00  0.00    -0.643 OA
ATOM     10  OXT UNL d   1      52.914  30.358  52.249  0.00  0.00    -0.643 OA
ENDBRANCH   2   8
TORSDOF 1
ENDMDL
MODEL 5
REMARK VINA RESULT:      -5.9      1.017      1.174
REMARK  1 active torsions:
REMARK  status: ('A' for Active; 'I' for Inactive)
REMARK    1  A    between atoms: C_2  and  CA_3 
ROOT
ATOM      1  N   UNL d   1      52.650  33.999  54.150  0.00  0.00    -0.237 NA
ATOM      2  CA  UNL d   1      52.492  33.415  53.603  0.00  0.00     0.145 A 
ATOM      3  C   UNL d   1      53.021  32.779  53.507  0.00  0.00     0.026 A 
ATOM      4  C   UNL d   1      53.330  33.962  54.606  0.00  0.00     0.106 A 
ATOM      5  C   UNL d   1      53.860  33.326  54.510  0.00  0.00     0.054 A 
ATOM      6  C   UNL d   1      53.695  32.745  53.960  0.00  0.00     0.010 A 
ATOM      7 BR   UNL d   1      54.540  33.296  54.971  0.00  0.00    -0.048 Br
ENDROOT
BRANCH   2   8
ATOM      8  C   UNL d   1      51.808  33.449  53.143  0.00  0.00     0.229 C 
ATOM      9  O   UNL d   1      51.106  33.105  53.405  0.00  0.00    -0.643 OA
ATOM     10  OXT UNL d   1      51.816  33.829  52.414  0.00  0.00    -0.643 OA
ENDBRANCH   2   8
TORSDOF 1
ENDMDL
MODEL 6
REMARK VINA RESULT:      -5.9      1.829      2.254
REMARK  1 active torsions:
REMARK  status: ('A' for Active; 'I' for Inactive)
REMARK    1  A    between atoms: C_2  and  CA_3 
ROOT
ATOM      1  N   UNL d   1      52.598  32.042  52.804  0.00  0.00    -0.237 NA
ATOM      2  CA  UNL d   1      53.093  32.482  53.280  0.00  0.00     0.145 A 
ATOM      3  C   UNL d   1      53.635  32.101  53.784  0.00  0.00     0.026 A 
ATOM      4  C   UNL d   1      52.633  31.223  52.821  0.00  0.00     0.106 A 
ATOM      5  C   UNL d   1      53.175  30.841  53.326  0.00  0.00     0.054 A 
ATOM      6  C   UNL d   1      53.668  31.289  53.799  0.00  0.00     0.010 A 
ATOM      7 BR   UNL d   1      53.204  30.020  53.337  0.00  0.00    -0.048 Br
ENDROOT
BRANCH   2   8
ATOM      8  C   UNL d   1      53.061  33.306  53.265  0.00  0.00     0.229 C 
ATOM      9  O   UNL d   1      53.655  33.758  53.616  0.00  0.00    -0.643 OA
ATOM     10  OXT UNL d   1      52.433  33.691  52.898  0.00  0.00    -0.643 OA
ENDBRANCH   2   8
TORSDOF 1
ENDMDL
MODEL 7
REMARK VINA RESULT:      -5.4      2.257      2.738
REMARK  1 active torsions:
REMARK  status: ('A' for Active; 'I' for Inactive)
REMARK    1  A    between atoms: C_2  and  CA_3 
ROOT
ATOM      1  N   UNL d   1      51.487  32.763  53.268  0.00  0.00    -0.237 NA
ATOM      2  CA  UNL d   1      52.208  33.010  52.978  0.00  0.00     0.145 A 
ATOM      3  C   UNL d   1      52.285  33.771  52.648  0.00  0.00     0.026 A 
ATOM      4  C   UNL d   1      50.837  33.262  53.235  0.00  0.00     0.106 A 
ATOM      5  C   UNL d   1      50.915  34.023  52.905  0.00  0.00     0.054 A 
ATOM      6  C   UNL d   1      51.640  34.264  52.617  0.00  0.00     0.010 A 
ATOM      7 BR   UNL d   1      50.258  34.517  52.876  0.00  0.00    -0.048 Br
ENDROOT
BRANCH   2   8
ATOM      8  C   UNL d   1      52.863  32.511  53.010  0.00  0.00     0.229 C 
ATOM      9  O   UNL d   1      52.881  31.811  52.573  0.00  0.00    -0.643 OA
ATOM     10  OXT UNL d   1      53.511  32.703  53.478  0.00  0.00    -0.643 OA
ENDBRANCH   2   8
TORSDOF 1
ENDMDL
MODEL 8
REMARK VINA RESULT:      -3.9     10.079     10.317
REMARK  1 active torsions:
REMARK  status: ('A' for Active; 'I' for Inactive)
REMARK    1  A    between atoms: C_2  and  CA_3 
ROOT
ATOM      1  N   UNL d   1      45.249  28.028  58.105  0.00  0.00    -0.237 NA
ATOM      2  CA  UNL d   1      45.108  28.026  57.302  0.00  0.00     0.145 A 
ATOM      3  C   UNL d   1      44.932  28.738  56.908  0.00  0.00     0.026 A 
ATOM      4  C   UNL d   1      45.218  28.731  58.526  0.00  0.00     0.106 A 
ATOM      5  C   UNL d   1      45.041  29.443  58.132  0.00  0.00     0.054 A 
ATOM      6  C   UNL d   1      44.901  29.433  57.328  0.00  0.00     0.010 A 
ATOM      7 BR   UNL d   1      45.011  30.143  58.561  0.00  0.00    -0.048 Br
ENDROOT
BRANCH   2   8
ATOM      8  C   UNL d   1      45.139  27.320  56.875  0.00  0.00     0.229 C 
ATOM      9  O   UNL d   1      45.864  26.970  56.693  0.00  0.00    -0.643 OA
ATOM     10  OXT UNL d   1      44.447  26.955  56.625  0.00  0.00    -0.643 OA
ENDBRANCH   2   8
TORSDOF 1
ENDMDL
MODEL 9
REMARK VINA RESULT:      -3.9     15.263     15.685
REMARK  1 active torsions:
REMARK  status: ('A' for Active; 'I' for Inactive)
REMARK    1  A    between atoms: C_2  and  CA_3 
ROOT
ATOM      1  N   UNL d   1      48.795  28.158  67.426  0.00  0.00    -0.237 NA
ATOM      2  CA  UNL d   1      49.478  27.755  67.618  0.00  0.00     0.145 A 
ATOM      3  C   UNL d   1      49.437  26.961  67.867  0.00  0.00     0.026 A 
ATOM      4  C   UNL d   1      48.068  27.784  67.477  0.00  0.00     0.106 A 
ATOM      5  C   UNL d   1      48.027  26.990  67.726  0.00  0.00     0.054 A 
ATOM      6  C   UNL d   1      48.715  26.592  67.916  0.00  0.00     0.010 A 
ATOM      7 BR   UNL d   1      47.294  26.621  67.774  0.00  0.00    -0.048 Br
ENDROOT
BRANCH   2   8
ATOM      8  C   UNL d   1      50.211  28.130  67.568  0.00  0.00     0.229 C 
ATOM      9  O   UNL d   1      50.840  27.773  67.170  0.00  0.00    -0.643 OA
ATOM     10  OXT UNL d   1      50.327  28.866  67.915  0.00  0.00    -0.643 OA
ENDBRANCH   2   8
TORSDOF 1
ENDMDL
