MODEL 1
REMARK VINA RESULT:      -0.3      0.000      0.000
REMARK  8 active torsions:
REMARK  status: ('A' for Active; 'I' for Inactive)
REMARK    1  A    between atoms: N_10  and  C_4 
REMARK    2  A    between atoms: C_17  and  N_5 
REMARK    3  A    between atoms: C_16  and  N_10 
REMARK    4  A    between atoms: C_11  and  S_19 
REMARK    5  A    between atoms: C_20  and  C_16 
REMARK    6  A    between atoms: C_21  and  C_17 
REMARK    7  A    between atoms: S_19  and  C_26 
REMARK    8  A    between atoms: C_26  and  C_21 
ROOT
ATOM      1  C   UNL d   1      58.105  -9.712  30.846  0.00  0.00     0.191 A 
ATOM      2  C   UNL d   1      58.234  -9.747  31.660  0.00  0.00     0.174 A 
ATOM      3  N   UNL d   1      58.842  -9.701  30.464  0.00  0.00    -0.042 NA
ATOM      4  C   UNL d   1      59.418  -9.731  31.067  0.00  0.00     0.722 A 
ATOM      5  N   UNL d   1      59.123  -9.762  31.835  0.00  0.00    -0.132 N 
ATOM      6  N   UNL d   1      57.337  -9.693  30.551  0.00  0.00    -0.239 N 
ATOM      7  C   UNL d   1      56.668  -9.710  31.074  0.00  0.00     0.358 A 
ATOM      8  N   UNL d   1      56.797  -9.746  31.888  0.00  0.00    -0.152 NA
ATOM      9  C   UNL d   1      57.595  -9.765  32.179  0.00  0.00     0.303 A 
ATOM     10  O   UNL d   1      55.880  -9.692  30.782  0.00  0.00    -0.244 OA
ATOM     11  O   UNL d   1      57.724  -9.800  32.993  0.00  0.00    -0.263 OA
ATOM     12  C   UNL d   1      57.207  -9.658  29.737  0.00  0.00     0.105 C 
ENDROOT
BRANCH   5  13
ATOM     13  C   UNL d   1      59.238  -9.797  32.644  0.00  0.00     0.099 C 
BRANCH  13  14
ATOM     14  C   UNL d   1      59.794  -9.299  32.987  0.00  0.00     0.027 C 
BRANCH  14  15
ATOM     15  C   UNL d   1      59.618  -8.917  33.686  0.00  0.00     0.040 C 
BRANCH  15  16
ATOM     16  S   UNL d   1      60.122  -9.003  34.338  0.00  0.00    -0.048 SA
BRANCH  16  17
ATOM     17  C   UNL d   1      60.022  -8.518  34.997  0.00  0.00     0.194 A 
ATOM     18  N   UNL d   1      59.430  -8.685  35.545  0.00  0.00    -0.220 NA
ATOM     19  C   UNL d   1      59.337  -8.202  36.193  0.00  0.00     0.103 A 
ATOM     20  C   UNL d   1      59.832  -7.549  36.303  0.00  0.00     0.041 A 
ATOM     21  C   UNL d   1      60.430  -7.378  35.753  0.00  0.00     0.103 A 
ATOM     22  N   UNL d   1      60.521  -7.870  35.097  0.00  0.00    -0.220 NA
ENDBRANCH  16  17
ENDBRANCH  15  16
ENDBRANCH  14  15
ENDBRANCH  13  14
ENDBRANCH   5  13
BRANCH   4  23
ATOM     23  N   UNL d   1      60.233  -9.732  30.938  0.00  0.00    -0.137 N 
ATOM     24  C   UNL d   1      60.750  -9.647  31.564  0.00  0.00     0.118 C 
BRANCH  23  25
ATOM     25  C   UNL d   1      60.530  -9.818  30.175  0.00  0.00     0.098 C 
BRANCH  25  26
ATOM     26  C   UNL d   1      60.730  -9.152  29.731  0.00  0.00     0.018 A 
ATOM     27  C   UNL d   1      60.750  -9.200  28.903  0.00  0.00     0.002 A 
ATOM     28  C   UNL d   1      60.949  -8.539  28.458  0.00  0.00     0.000 A 
ATOM     29  C   UNL d   1      61.130  -7.824  28.837  0.00  0.00     0.000 A 
ATOM     30  C   UNL d   1      61.108  -7.781  29.668  0.00  0.00     0.000 A 
ATOM     31  C   UNL d   1      60.909  -8.443  30.109  0.00  0.00     0.002 A 
ENDBRANCH  25  26
ENDBRANCH  23  25
ENDBRANCH   4  23
TORSDOF 8
ENDMDL
