MODEL 1
REMARK VINA RESULT:      -0.6      0.000      0.000
REMARK  3 active torsions:
REMARK  status: ('A' for Active; 'I' for Inactive)
REMARK    1  A    between atoms: N_3  and  S_1 
REMARK    2  A    between atoms: C_9  and  S_1 
REMARK    3  A    between atoms: C_2  and  N_3 
ROOT
ATOM      1  C   UNL d   1     -41.657-122.468 -51.573  0.00  0.00     0.157 A 
ATOM      2  C   UNL d   1     -41.685-123.034 -52.167  0.00  0.00     0.102 A 
ATOM      3  C   UNL d   1     -41.532-122.810 -52.947  0.00  0.00     0.110 A 
ATOM      4  C   UNL d   1     -41.351-122.021 -53.132  0.00  0.00     0.207 A 
ATOM      5  C   UNL d   1     -41.481-121.698 -51.744  0.00  0.00     0.035 A 
ATOM      6  C   UNL d   1     -41.328-121.474 -52.523  0.00  0.00     0.042 A 
ATOM      7 CL   UNL d   1     -41.863-123.817 -52.000  0.00  0.00    -0.079 Cl
ATOM      8 CL   UNL d   1     -41.557-123.370 -53.559  0.00  0.00    -0.078 Cl
ATOM      9  O   UNL d   1     -41.198-121.798 -53.911  0.00  0.00    -0.286 OA
ATOM     10  C   UNL d   1     -41.453-121.133 -51.150  0.00  0.00     0.003 A 
ATOM     11  C   UNL d   1     -41.147-120.685 -52.708  0.00  0.00     0.003 A 
ATOM     12  C   UNL d   1     -41.123-120.125 -52.096  0.00  0.00     0.000 A 
ATOM     13  C   UNL d   1     -41.276-120.349 -51.317  0.00  0.00     0.000 A 
ENDROOT
BRANCH   1  14
ATOM     14  N   UNL d   1     -41.810-122.692 -50.794  0.00  0.00    -0.316 NA
BRANCH  14  15
ATOM     15  S   UNL d   1     -41.963-122.915 -50.015  0.00  0.00     0.327 S 
ATOM     16  O   UNL d   1     -41.229-123.257 -49.968  0.00  0.00    -0.186 OA
ATOM     17  O   UNL d   1     -42.709-122.566 -50.066  0.00  0.00    -0.186 OA
BRANCH  15  18
ATOM     18  C   UNL d   1     -42.115-123.138 -49.240  0.00  0.00     0.116 A 
ATOM     19  C   UNL d   1     -41.549-123.041 -48.664  0.00  0.00     0.014 A 
ATOM     20  C   UNL d   1     -41.702-123.264 -47.885  0.00  0.00     0.001 A 
ATOM     21  C   UNL d   1     -42.434-123.589 -47.685  0.00  0.00     0.000 A 
ATOM     22  C   UNL d   1     -43.013-123.690 -48.264  0.00  0.00     0.001 A 
ATOM     23  C   UNL d   1     -42.571-123.808 -46.896  0.00  0.00     0.000 C 
ATOM     24  C   UNL d   1     -42.859-123.464 -49.052  0.00  0.00     0.014 A 
ENDBRANCH  15  18
ENDBRANCH  14  15
ENDBRANCH   1  14
TORSDOF 3
ENDMDL
MODEL 2
REMARK VINA RESULT:      -0.2      1.594      2.442
REMARK  3 active torsions:
REMARK  status: ('A' for Active; 'I' for Inactive)
REMARK    1  A    between atoms: N_3  and  S_1 
REMARK    2  A    between atoms: C_9  and  S_1 
REMARK    3  A    between atoms: C_2  and  N_3 
ROOT
ATOM      1  C   UNL d   1     -41.871-122.079 -53.078  0.00  0.00     0.157 A 
ATOM      2  C   UNL d   1     -42.149-121.322 -53.232  0.00  0.00     0.102 A 
ATOM      3  C   UNL d   1     -42.190-121.056 -54.012  0.00  0.00     0.110 A 
ATOM      4  C   UNL d   1     -41.953-121.547 -54.638  0.00  0.00     0.207 A 
ATOM      5  C   UNL d   1     -41.638-122.564 -53.682  0.00  0.00     0.035 A 
ATOM      6  C   UNL d   1     -41.680-122.298 -54.462  0.00  0.00     0.042 A 
ATOM      7 CL   UNL d   1     -42.386-120.825 -52.623  0.00  0.00    -0.079 Cl
ATOM      8 CL   UNL d   1     -42.469-120.293 -54.183  0.00  0.00    -0.078 Cl
ATOM      9  O   UNL d   1     -41.995-121.281 -55.418  0.00  0.00    -0.286 OA
ATOM     10  C   UNL d   1     -41.360-123.321 -53.529  0.00  0.00     0.003 A 
ATOM     11  C   UNL d   1     -41.443-122.789 -55.089  0.00  0.00     0.003 A 
ATOM     12  C   UNL d   1     -41.164-123.551 -54.917  0.00  0.00     0.000 A 
ATOM     13  C   UNL d   1     -41.123-123.817 -54.138  0.00  0.00     0.000 A 
ENDROOT
BRANCH   1  14
ATOM     14  N   UNL d   1     -41.829-122.345 -52.299  0.00  0.00    -0.316 NA
BRANCH  14  15
ATOM     15  S   UNL d   1     -41.788-122.611 -51.519  0.00  0.00     0.327 S 
ATOM     16  O   UNL d   1     -41.130-122.152 -51.397  0.00  0.00    -0.186 OA
ATOM     17  O   UNL d   1     -42.457-123.076 -51.647  0.00  0.00    -0.186 OA
BRANCH  15  18
ATOM     18  C   UNL d   1     -41.747-122.875 -50.744  0.00  0.00     0.116 A 
ATOM     19  C   UNL d   1     -42.258-122.586 -50.181  0.00  0.00     0.014 A 
ATOM     20  C   UNL d   1     -42.217-122.852 -49.401  0.00  0.00     0.001 A 
ATOM     21  C   UNL d   1     -41.653-123.416 -49.187  0.00  0.00     0.000 A 
ATOM     22  C   UNL d   1     -41.131-123.714 -49.753  0.00  0.00     0.001 A 
ATOM     23  C   UNL d   1     -41.626-123.672 -48.398  0.00  0.00     0.000 C 
ATOM     24  C   UNL d   1     -41.173-123.445 -50.541  0.00  0.00     0.014 A 
ENDBRANCH  15  18
ENDBRANCH  14  15
ENDBRANCH   1  14
TORSDOF 3
ENDMDL
MODEL 3
REMARK VINA RESULT:       1.2      1.433      1.933
REMARK  3 active torsions:
REMARK  status: ('A' for Active; 'I' for Inactive)
REMARK    1  A    between atoms: N_3  and  S_1 
REMARK    2  A    between atoms: C_9  and  S_1 
REMARK    3  A    between atoms: C_2  and  N_3 
ROOT
ATOM      1  C   UNL d   1     -41.787-122.516 -53.234  0.00  0.00     0.157 A 
ATOM      2  C   UNL d   1     -41.472-123.149 -53.649  0.00  0.00     0.102 A 
ATOM      3  C   UNL d   1     -41.439-123.117 -54.473  0.00  0.00     0.110 A 
ATOM      4  C   UNL d   1     -41.721-122.452 -54.881  0.00  0.00     0.207 A 
ATOM      5  C   UNL d   1     -42.064-121.864 -53.623  0.00  0.00     0.035 A 
ATOM      6  C   UNL d   1     -42.032-121.831 -54.447  0.00  0.00     0.042 A 
ATOM      7 CL   UNL d   1     -41.188-123.814 -53.260  0.00  0.00    -0.079 Cl
ATOM      8 CL   UNL d   1     -41.123-123.750 -54.908  0.00  0.00    -0.078 Cl
ATOM      9  O   UNL d   1     -41.689-122.420 -55.705  0.00  0.00    -0.286 OA
ATOM     10  C   UNL d   1     -42.380-121.230 -53.207  0.00  0.00     0.003 A 
ATOM     11  C   UNL d   1     -42.314-121.166 -54.855  0.00  0.00     0.003 A 
ATOM     12  C   UNL d   1     -42.630-120.533 -54.420  0.00  0.00     0.000 A 
ATOM     13  C   UNL d   1     -42.663-120.565 -53.596  0.00  0.00     0.000 A 
ENDROOT
BRANCH   1  14
ATOM     14  N   UNL d   1     -41.820-122.548 -52.410  0.00  0.00    -0.316 NA
BRANCH  14  15
ATOM     15  S   UNL d   1     -41.853-122.580 -51.586  0.00  0.00     0.327 S 
ATOM     16  O   UNL d   1     -42.545-122.999 -51.630  0.00  0.00    -0.186 OA
ATOM     17  O   UNL d   1     -41.148-122.153 -51.546  0.00  0.00    -0.186 OA
BRANCH  15  18
ATOM     18  C   UNL d   1     -41.885-122.611 -50.767  0.00  0.00     0.116 A 
ATOM     19  C   UNL d   1     -41.244-122.870 -50.338  0.00  0.00     0.014 A 
ATOM     20  C   UNL d   1     -41.277-122.902 -49.515  0.00  0.00     0.001 A 
ATOM     21  C   UNL d   1     -41.964-122.671 -49.120  0.00  0.00     0.000 A 
ATOM     22  C   UNL d   1     -42.618-122.407 -49.549  0.00  0.00     0.001 A 
ATOM     23  C   UNL d   1     -41.979-122.709 -48.291  0.00  0.00     0.000 C 
ATOM     24  C   UNL d   1     -42.585-122.375 -50.381  0.00  0.00     0.014 A 
ENDBRANCH  15  18
ENDBRANCH  14  15
ENDBRANCH   1  14
TORSDOF 3
ENDMDL
MODEL 4
REMARK VINA RESULT:       1.6      1.837      4.543
REMARK  3 active torsions:
REMARK  status: ('A' for Active; 'I' for Inactive)
REMARK    1  A    between atoms: N_3  and  S_1 
REMARK    2  A    between atoms: C_9  and  S_1 
REMARK    3  A    between atoms: C_2  and  N_3 
ROOT
ATOM      1  C   UNL d   1     -42.572-122.443 -50.942  0.00  0.00     0.157 A 
ATOM      2  C   UNL d   1     -43.213-121.984 -50.712  0.00  0.00     0.102 A 
ATOM      3  C   UNL d   1     -43.448-121.985 -49.921  0.00  0.00     0.110 A 
ATOM      4  C   UNL d   1     -43.044-122.445 -49.361  0.00  0.00     0.207 A 
ATOM      5  C   UNL d   1     -42.173-122.894 -50.403  0.00  0.00     0.035 A 
ATOM      6  C   UNL d   1     -42.409-122.895 -49.612  0.00  0.00     0.042 A 
ATOM      7 CL   UNL d   1     -43.622-121.524 -51.254  0.00  0.00    -0.079 Cl
ATOM      8 CL   UNL d   1     -44.094-121.526 -49.673  0.00  0.00    -0.078 Cl
ATOM      9  O   UNL d   1     -43.280-122.446 -48.570  0.00  0.00    -0.286 OA
ATOM     10  C   UNL d   1     -41.532-123.353 -50.633  0.00  0.00     0.003 A 
ATOM     11  C   UNL d   1     -42.004-123.355 -49.052  0.00  0.00     0.003 A 
ATOM     12  C   UNL d   1     -41.359-123.814 -49.300  0.00  0.00     0.000 A 
ATOM     13  C   UNL d   1     -41.123-123.813 -50.091  0.00  0.00     0.000 A 
ENDROOT
BRANCH   1  14
ATOM     14  N   UNL d   1     -42.336-122.442 -51.733  0.00  0.00    -0.316 NA
BRANCH  14  15
ATOM     15  S   UNL d   1     -42.100-122.441 -52.523  0.00  0.00     0.327 S 
ATOM     16  O   UNL d   1     -42.432-123.175 -52.623  0.00  0.00    -0.186 OA
ATOM     17  O   UNL d   1     -41.765-121.695 -52.417  0.00  0.00    -0.186 OA
BRANCH  15  18
ATOM     18  C   UNL d   1     -41.866-122.440 -53.309  0.00  0.00     0.116 A 
ATOM     19  C   UNL d   1     -41.381-123.027 -53.596  0.00  0.00     0.014 A 
ATOM     20  C   UNL d   1     -41.145-123.026 -54.387  0.00  0.00     0.001 A 
ATOM     21  C   UNL d   1     -41.402-122.427 -54.892  0.00  0.00     0.000 A 
ATOM     22  C   UNL d   1     -41.894-121.828 -54.608  0.00  0.00     0.001 A 
ATOM     23  C   UNL d   1     -41.154-122.441 -55.685  0.00  0.00     0.000 C 
ATOM     24  C   UNL d   1     -42.132-121.829 -53.809  0.00  0.00     0.014 A 
ENDBRANCH  15  18
ENDBRANCH  14  15
ENDBRANCH   1  14
TORSDOF 3
ENDMDL
MODEL 5
REMARK VINA RESULT:       2.4      1.909      4.659
REMARK  3 active torsions:
REMARK  status: ('A' for Active; 'I' for Inactive)
REMARK    1  A    between atoms: N_3  and  S_1 
REMARK    2  A    between atoms: C_9  and  S_1 
REMARK    3  A    between atoms: C_2  and  N_3 
ROOT
ATOM      1  C   UNL d   1     -41.556-122.258 -52.123  0.00  0.00     0.157 A 
ATOM      2  C   UNL d   1     -41.558-123.002 -51.776  0.00  0.00     0.102 A 
ATOM      3  C   UNL d   1     -41.414-123.072 -50.967  0.00  0.00     0.110 A 
ATOM      4  C   UNL d   1     -41.268-122.398 -50.504  0.00  0.00     0.207 A 
ATOM      5  C   UNL d   1     -41.415-121.596 -51.680  0.00  0.00     0.035 A 
ATOM      6  C   UNL d   1     -41.271-121.666 -50.871  0.00  0.00     0.042 A 
ATOM      7 CL   UNL d   1     -41.701-123.677 -52.220  0.00  0.00    -0.079 Cl
ATOM      8 CL   UNL d   1     -41.413-123.817 -50.601  0.00  0.00    -0.078 Cl
ATOM      9  O   UNL d   1     -41.124-122.468 -49.695  0.00  0.00    -0.286 OA
ATOM     10  C   UNL d   1     -41.413-120.853 -52.027  0.00  0.00     0.003 A 
ATOM     11  C   UNL d   1     -41.125-120.992 -50.408  0.00  0.00     0.003 A 
ATOM     12  C   UNL d   1     -41.126-120.247 -50.774  0.00  0.00     0.000 A 
ATOM     13  C   UNL d   1     -41.270-120.177 -51.583  0.00  0.00     0.000 A 
ENDROOT
BRANCH   1  14
ATOM     14  N   UNL d   1     -41.700-122.188 -52.932  0.00  0.00    -0.316 NA
BRANCH  14  15
ATOM     15  S   UNL d   1     -41.844-122.118 -53.741  0.00  0.00     0.327 S 
ATOM     16  O   UNL d   1     -42.511-121.683 -53.585  0.00  0.00    -0.186 OA
ATOM     17  O   UNL d   1     -41.166-122.561 -53.895  0.00  0.00    -0.186 OA
BRANCH  15  18
ATOM     18  C   UNL d   1     -41.988-122.049 -54.546  0.00  0.00     0.116 A 
ATOM     19  C   UNL d   1     -42.750-122.006 -54.828  0.00  0.00     0.014 A 
ATOM     20  C   UNL d   1     -42.894-121.936 -55.637  0.00  0.00     0.001 A 
ATOM     21  C   UNL d   1     -42.262-121.909 -56.167  0.00  0.00     0.000 A 
ATOM     22  C   UNL d   1     -41.486-121.952 -55.889  0.00  0.00     0.001 A 
ATOM     23  C   UNL d   1     -42.425-121.839 -56.978  0.00  0.00     0.000 C 
ATOM     24  C   UNL d   1     -41.340-122.023 -55.071  0.00  0.00     0.014 A 
ENDBRANCH  15  18
ENDBRANCH  14  15
ENDBRANCH   1  14
TORSDOF 3
ENDMDL
