MODEL 1
REMARK VINA RESULT:       3.2      0.000      0.000
REMARK  3 active torsions:
REMARK  status: ('A' for Active; 'I' for Inactive)
REMARK    1  A    between atoms: N_7  and  C_1 
REMARK    2  A    between atoms: C_11  and  N_3 
REMARK       I    between atoms: C_9  and  N_7 
REMARK    3  A    between atoms: C_12  and  C_9 
ROOT
ATOM      1  C   UNL d   1     -41.456-121.854 -51.450  0.00  0.00     0.169 A 
ATOM      2  C   UNL d   1     -41.349-121.117 -51.697  0.00  0.00     0.067 A 
ATOM      3  N   UNL d   1     -41.526-121.838 -50.668  0.00  0.00    -0.212 N 
ATOM      4  C   UNL d   1     -41.353-120.641 -51.065  0.00  0.00     0.116 A 
ATOM      5  N   UNL d   1     -41.462-121.088 -50.432  0.00  0.00    -0.163 NA
ATOM      6  S   UNL d   1     -41.177-119.929 -52.103  0.00  0.00     0.213 S 
ATOM      7  C   UNL d   1     -41.246-119.909 -51.318  0.00  0.00     0.120 A 
ATOM      8  C   UNL d   1     -41.240-120.675 -52.336  0.00  0.00     0.103 A 
ATOM      9  O   UNL d   1     -41.123-119.212 -51.793  0.00  0.00    -0.217 OA
ATOM     10  O   UNL d   1     -41.123-119.997 -52.777  0.00  0.00    -0.217 OA
ENDROOT
BRANCH   1  11
ATOM     11  N   UNL d   1     -41.427-122.129 -52.107  0.00  0.00    -0.187 NA
ATOM     12  C   UNL d   1     -41.806-122.947 -52.574  0.00  0.00     0.303 C 
ATOM     13  O   UNL d   1     -42.247-123.455 -52.203  0.00  0.00    -0.263 OA
BRANCH  12  14
ATOM     14  C   UNL d   1     -41.635-123.070 -53.376  0.00  0.00     0.158 A 
ATOM     15  O   UNL d   1     -41.856-122.570 -54.023  0.00  0.00    -0.300 OA
ATOM     16  C   UNL d   1     -41.565-122.914 -54.728  0.00  0.00     0.123 A 
ATOM     17  C   UNL d   1     -41.163-123.624 -54.531  0.00  0.00     0.029 A 
ATOM     18  C   UNL d   1     -41.201-123.727 -53.700  0.00  0.00     0.032 A 
ENDBRANCH  12  14
ENDBRANCH   1  11
BRANCH   3  19
ATOM     19  C   UNL d   1     -41.647-122.501 -50.170  0.00  0.00     0.085 A 
ATOM     20  C   UNL d   1     -42.305-122.510 -49.644  0.00  0.00     0.031 A 
ATOM     21  C   UNL d   1     -42.424-123.161 -49.155  0.00  0.00     0.059 A 
ATOM     22 CL   UNL d   1     -43.075-123.184 -48.626  0.00  0.00    -0.082 Cl
ATOM     23  C   UNL d   1     -41.888-123.817 -49.180  0.00  0.00     0.011 A 
ATOM     24  C   UNL d   1     -41.238-123.794 -49.708  0.00  0.00     0.002 A 
ATOM     25  C   UNL d   1     -41.125-123.140 -50.195  0.00  0.00     0.019 A 
ENDBRANCH   3  19
TORSDOF 3
ENDMDL
