MODEL 1
REMARK VINA RESULT:      -3.5      0.000      0.000
REMARK  3 active torsions:
REMARK  status: ('A' for Active; 'I' for Inactive)
REMARK    1  A    between atoms: N_2  and  C_1 
REMARK       I    between atoms: C_4  and  N_2 
REMARK    2  A    between atoms: C_8  and  C_4 
REMARK    3  A    between atoms: C_10  and  C_5 
ROOT
ATOM      1  C   UNL d   1      32.950  22.420 -20.001  0.00  0.00     0.197 A 
ATOM      2  N   UNL d   1      33.005  22.267 -19.205  0.00  0.00    -0.221 NA
ATOM      3  C   UNL d   1      32.725  22.985 -18.825  0.00  0.00     0.090 A 
ATOM      4  S   UNL d   1      32.655  23.182 -20.146  0.00  0.00    -0.046 SA
ATOM      5  C   UNL d   1      32.516  23.530 -19.427  0.00  0.00     0.058 A 
ENDROOT
BRANCH   1   6
ATOM      6  N   UNL d   1      33.167  21.870 -20.609  0.00  0.00    -0.183 NA
ATOM      7  C   UNL d   1      32.555  21.427 -20.985  0.00  0.00     0.281 C 
ATOM      8  O   UNL d   1      31.762  21.532 -20.764  0.00  0.00    -0.265 OA
BRANCH   7   9
ATOM      9  C   UNL d   1      32.729  20.883 -21.580  0.00  0.00     0.058 A 
ATOM     10  C   UNL d   1      32.704  20.088 -21.397  0.00  0.00     0.005 A 
ATOM     11  C   UNL d   1      32.880  19.527 -21.995  0.00  0.00     0.000 A 
ATOM     12  C   UNL d   1      33.076  19.760 -22.757  0.00  0.00     0.000 A 
ATOM     13  C   UNL d   1      33.099  20.582 -22.935  0.00  0.00     0.000 A 
ATOM     14  C   UNL d   1      33.238  19.269 -23.313  0.00  0.00     0.000 C 
ATOM     15  C   UNL d   1      32.924  21.140 -22.339  0.00  0.00     0.005 A 
ENDBRANCH   7   9
ENDBRANCH   1   6
BRANCH   3  16
ATOM     16  C   UNL d   1      32.664  23.130 -18.021  0.00  0.00     0.018 A 
ATOM     17  C   UNL d   1      32.023  23.545 -17.740  0.00  0.00     0.002 A 
ATOM     18  C   UNL d   1      31.946  23.701 -16.923  0.00  0.00     0.000 A 
ATOM     19  C   UNL d   1      32.517  23.439 -16.394  0.00  0.00     0.000 A 
ATOM     20  C   UNL d   1      33.177  23.013 -16.673  0.00  0.00     0.000 A 
ATOM     21  C   UNL d   1      33.239  22.865 -17.494  0.00  0.00     0.002 A 
ENDBRANCH   3  16
TORSDOF 3
ENDMDL
MODEL 2
REMARK VINA RESULT:      -3.3      1.970      5.762
REMARK  3 active torsions:
REMARK  status: ('A' for Active; 'I' for Inactive)
REMARK    1  A    between atoms: N_2  and  C_1 
REMARK       I    between atoms: C_4  and  N_2 
REMARK    2  A    between atoms: C_8  and  C_4 
REMARK    3  A    between atoms: C_10  and  C_5 
ROOT
ATOM      1  C   UNL d   1      33.119  19.788 -22.614  0.00  0.00     0.197 A 
ATOM      2  N   UNL d   1      32.869  19.036 -22.435  0.00  0.00    -0.221 NA
ATOM      3  C   UNL d   1      32.830  18.631 -23.191  0.00  0.00     0.090 A 
ATOM      4  S   UNL d   1      33.240  19.882 -23.430  0.00  0.00    -0.046 SA
ATOM      5  C   UNL d   1      33.064  19.176 -23.786  0.00  0.00     0.058 A 
ENDROOT
BRANCH   1   6
ATOM      6  N   UNL d   1      33.241  20.400 -22.040  0.00  0.00    -0.183 NA
ATOM      7  C   UNL d   1      32.564  20.756 -21.685  0.00  0.00     0.281 C 
ATOM      8  O   UNL d   1      31.799  20.512 -21.895  0.00  0.00    -0.265 OA
BRANCH   7   9
ATOM      9  C   UNL d   1      32.645  21.354 -21.122  0.00  0.00     0.058 A 
ATOM     10  C   UNL d   1      32.201  22.034 -21.213  0.00  0.00     0.005 A 
ATOM     11  C   UNL d   1      32.277  22.647 -20.646  0.00  0.00     0.000 A 
ATOM     12  C   UNL d   1      32.786  22.579 -20.005  0.00  0.00     0.000 A 
ATOM     13  C   UNL d   1      33.237  21.874 -19.922  0.00  0.00     0.000 A 
ATOM     14  C   UNL d   1      32.869  23.121 -19.481  0.00  0.00     0.000 C 
ATOM     15  C   UNL d   1      33.162  21.264 -20.486  0.00  0.00     0.005 A 
ENDBRANCH   7   9
ENDBRANCH   1   6
BRANCH   3  16
ATOM     16  C   UNL d   1      32.609  17.855 -23.330  0.00  0.00     0.018 A 
ATOM     17  C   UNL d   1      33.137  17.258 -23.174  0.00  0.00     0.002 A 
ATOM     18  C   UNL d   1      32.926  16.460 -23.310  0.00  0.00     0.000 A 
ATOM     19  C   UNL d   1      32.183  16.272 -23.602  0.00  0.00     0.000 A 
ATOM     20  C   UNL d   1      31.635  16.878 -23.765  0.00  0.00     0.000 A 
ATOM     21  C   UNL d   1      31.861  17.670 -23.624  0.00  0.00     0.002 A 
ENDBRANCH   3  16
TORSDOF 3
ENDMDL
MODEL 3
REMARK VINA RESULT:      -1.6      1.355      2.244
REMARK  3 active torsions:
REMARK  status: ('A' for Active; 'I' for Inactive)
REMARK    1  A    between atoms: N_2  and  C_1 
REMARK       I    between atoms: C_4  and  N_2 
REMARK    2  A    between atoms: C_8  and  C_4 
REMARK    3  A    between atoms: C_10  and  C_5 
ROOT
ATOM      1  C   UNL d   1      32.941  21.497 -22.010  0.00  0.00     0.197 A 
ATOM      2  N   UNL d   1      33.038  21.566 -21.206  0.00  0.00    -0.221 NA
ATOM      3  C   UNL d   1      32.763  22.358 -21.020  0.00  0.00     0.090 A 
ATOM      4  S   UNL d   1      32.624  22.190 -22.339  0.00  0.00    -0.046 SA
ATOM      5  C   UNL d   1      32.513  22.718 -21.735  0.00  0.00     0.058 A 
ENDROOT
BRANCH   1   6
ATOM      6  N   UNL d   1      33.139  20.804 -22.457  0.00  0.00    -0.183 NA
ATOM      7  C   UNL d   1      32.595  20.158 -22.455  0.00  0.00     0.281 C 
ATOM      8  O   UNL d   1      31.887  20.204 -22.026  0.00  0.00    -0.265 OA
BRANCH   7   9
ATOM      9  C   UNL d   1      32.755  19.468 -22.878  0.00  0.00     0.058 A 
ATOM     10  C   UNL d   1      32.966  18.799 -22.461  0.00  0.00     0.005 A 
ATOM     11  C   UNL d   1      33.130  18.093 -22.883  0.00  0.00     0.000 A 
ATOM     12  C   UNL d   1      33.084  18.061 -23.702  0.00  0.00     0.000 A 
ATOM     13  C   UNL d   1      32.866  18.757 -24.121  0.00  0.00     0.000 A 
ATOM     14  C   UNL d   1      33.228  17.433 -24.102  0.00  0.00     0.000 C 
ATOM     15  C   UNL d   1      32.702  19.460 -23.701  0.00  0.00     0.005 A 
ENDBRANCH   7   9
ENDBRANCH   1   6
BRANCH   3  16
ATOM     16  C   UNL d   1      32.738  22.716 -20.283  0.00  0.00     0.018 A 
ATOM     17  C   UNL d   1      33.241  22.456 -19.699  0.00  0.00     0.002 A 
ATOM     18  C   UNL d   1      33.228  22.811 -18.942  0.00  0.00     0.000 A 
ATOM     19  C   UNL d   1      32.709  23.425 -18.780  0.00  0.00     0.000 A 
ATOM     20  C   UNL d   1      32.191  23.698 -19.373  0.00  0.00     0.000 A 
ATOM     21  C   UNL d   1      32.215  23.333 -20.125  0.00  0.00     0.002 A 
ENDBRANCH   3  16
TORSDOF 3
ENDMDL
MODEL 4
REMARK VINA RESULT:      -1.1      5.447      7.279
REMARK  3 active torsions:
REMARK  status: ('A' for Active; 'I' for Inactive)
REMARK    1  A    between atoms: N_2  and  C_1 
REMARK       I    between atoms: C_4  and  N_2 
REMARK    2  A    between atoms: C_8  and  C_4 
REMARK    3  A    between atoms: C_10  and  C_5 
ROOT
ATOM      1  C   UNL d   1      31.193  16.858 -23.916  0.00  0.00     0.197 A 
ATOM      2  N   UNL d   1      31.263  17.664 -23.992  0.00  0.00    -0.221 NA
ATOM      3  C   UNL d   1      32.102  17.801 -24.116  0.00  0.00     0.090 A 
ATOM      4  S   UNL d   1      31.930  16.481 -23.984  0.00  0.00    -0.046 SA
ATOM      5  C   UNL d   1      32.488  17.055 -24.106  0.00  0.00     0.058 A 
ENDROOT
BRANCH   1   6
ATOM      6  N   UNL d   1      30.460  16.453 -23.784  0.00  0.00    -0.183 NA
ATOM      7  C   UNL d   1      29.741  16.867 -23.937  0.00  0.00     0.281 C 
ATOM      8  O   UNL d   1      29.755  17.651 -24.209  0.00  0.00    -0.265 OA
BRANCH   7   9
ATOM      9  C   UNL d   1      29.010  16.504 -23.820  0.00  0.00     0.058 A 
ATOM     10  C   UNL d   1      28.512  16.811 -23.249  0.00  0.00     0.005 A 
ATOM     11  C   UNL d   1      27.767  16.448 -23.123  0.00  0.00     0.000 A 
ATOM     12  C   UNL d   1      27.528  15.795 -23.559  0.00  0.00     0.000 A 
ATOM     13  C   UNL d   1      28.048  15.488 -24.144  0.00  0.00     0.000 A 
ATOM     14  C   UNL d   1      26.858  15.453 -23.461  0.00  0.00     0.000 C 
ATOM     15  C   UNL d   1      28.790  15.849 -24.269  0.00  0.00     0.005 A 
ENDBRANCH   7   9
ENDBRANCH   1   6
BRANCH   3  16
ATOM     16  C   UNL d   1      32.478  18.520 -24.226  0.00  0.00     0.018 A 
ATOM     17  C   UNL d   1      32.671  18.970 -23.577  0.00  0.00     0.002 A 
ATOM     18  C   UNL d   1      33.055  19.707 -23.672  0.00  0.00     0.000 A 
ATOM     19  C   UNL d   1      33.241  19.984 -24.422  0.00  0.00     0.000 A 
ATOM     20  C   UNL d   1      33.047  19.529 -25.093  0.00  0.00     0.000 A 
ATOM     21  C   UNL d   1      32.663  18.795 -24.981  0.00  0.00     0.002 A 
ENDBRANCH   3  16
TORSDOF 3
ENDMDL
