MODEL 1
REMARK VINA RESULT:      -8.2      0.000      0.000
REMARK  3 active torsions:
REMARK  status: ('A' for Active; 'I' for Inactive)
REMARK    1  A    between atoms: C_2  and  C_1 
REMARK    2  A    between atoms: C_5  and  C_2 
REMARK    3  A    between atoms: C_4  and  C_3 
ROOT
ATOM      1  C   UNL d   1     -49.114  12.510  22.538  0.00  0.00     0.045 A 
ATOM      2  C   UNL d   1     -49.932  12.548  22.432  0.00  0.00     0.068 A 
ATOM      3  C   UNL d   1     -48.794  12.089  23.168  0.00  0.00     0.003 A 
ATOM      4  C   UNL d   1     -50.432  12.159  22.963  0.00  0.00     0.006 A 
ATOM      5  C   UNL d   1     -49.288  11.701  23.698  0.00  0.00     0.000 A 
ATOM      6  C   UNL d   1     -50.117  11.737  23.594  0.00  0.00     0.000 A 
ENDROOT
BRANCH   1   7
ATOM      7  C   UNL d   1     -48.609  12.901  22.006  0.00  0.00     0.196 C 
ATOM      8  O   UNL d   1     -48.788  12.903  21.202  0.00  0.00    -0.287 OA
BRANCH   7   9
ATOM      9  C   UNL d   1     -47.931  13.284  22.281  0.00  0.00     0.039 A 
ATOM     10  C   UNL d   1     -47.983  14.052  22.594  0.00  0.00     0.005 A 
ATOM     11  C   UNL d   1     -47.300  14.431  22.868  0.00  0.00     0.030 A 
ATOM     12  C   UNL d   1     -46.574  14.051  22.831  0.00  0.00     0.140 A 
ATOM     13  C   UNL d   1     -46.522  13.291  22.522  0.00  0.00     0.030 A 
ATOM     14  F   UNL d   1     -45.896  14.443  23.110  0.00  0.00    -0.204 F 
ATOM     15  C   UNL d   1     -47.196  12.904  22.245  0.00  0.00     0.005 A 
ENDBRANCH   7   9
ENDBRANCH   1   7
BRANCH   2  16
ATOM     16  C   UNL d   1     -50.240  12.972  21.798  0.00  0.00     0.211 C 
ATOM     17  O   UNL d   1     -50.456  13.766  21.896  0.00  0.00    -0.644 OA
ATOM     18  O   UNL d   1     -50.329  12.599  21.072  0.00  0.00    -0.644 OA
ENDBRANCH   2  16
TORSDOF 3
ENDMDL
MODEL 2
REMARK VINA RESULT:      -8.0      2.008      3.230
REMARK  3 active torsions:
REMARK  status: ('A' for Active; 'I' for Inactive)
REMARK    1  A    between atoms: C_2  and  C_1 
REMARK    2  A    between atoms: C_5  and  C_2 
REMARK    3  A    between atoms: C_4  and  C_3 
ROOT
ATOM      1  C   UNL d   1     -47.509  12.713  23.136  0.00  0.00     0.045 A 
ATOM      2  C   UNL d   1     -46.684  12.725  23.135  0.00  0.00     0.068 A 
ATOM      3  C   UNL d   1     -47.917  12.055  23.417  0.00  0.00     0.003 A 
ATOM      4  C   UNL d   1     -46.264  12.071  23.417  0.00  0.00     0.006 A 
ATOM      5  C   UNL d   1     -47.502  11.404  23.698  0.00  0.00     0.000 A 
ATOM      6  C   UNL d   1     -46.666  11.412  23.698  0.00  0.00     0.000 A 
ENDROOT
BRANCH   1   7
ATOM      7  C   UNL d   1     -47.934  13.369  22.853  0.00  0.00     0.196 C 
ATOM      8  O   UNL d   1     -47.621  14.125  22.941  0.00  0.00    -0.287 OA
BRANCH   7   9
ATOM      9  C   UNL d   1     -48.666  13.264  22.485  0.00  0.00     0.039 A 
ATOM     10  C   UNL d   1     -48.703  13.048  21.683  0.00  0.00     0.005 A 
ATOM     11  C   UNL d   1     -49.439  12.944  21.319  0.00  0.00     0.030 A 
ATOM     12  C   UNL d   1     -50.130  13.052  21.748  0.00  0.00     0.140 A 
ATOM     13  C   UNL d   1     -50.094  13.265  22.541  0.00  0.00     0.030 A 
ATOM     14  F   UNL d   1     -50.864  12.944  21.372  0.00  0.00    -0.204 F 
ATOM     15  C   UNL d   1     -49.366  13.372  22.914  0.00  0.00     0.005 A 
ENDBRANCH   7   9
ENDBRANCH   1   7
BRANCH   2  16
ATOM     16  C   UNL d   1     -46.288  13.389  22.852  0.00  0.00     0.211 C 
ATOM     17  O   UNL d   1     -46.169  14.042  23.346  0.00  0.00    -0.644 OA
ATOM     18  O   UNL d   1     -46.016  13.392  22.077  0.00  0.00    -0.644 OA
ENDBRANCH   2  16
TORSDOF 3
ENDMDL
MODEL 3
REMARK VINA RESULT:      -7.9      1.741      2.071
REMARK  3 active torsions:
REMARK  status: ('A' for Active; 'I' for Inactive)
REMARK    1  A    between atoms: C_2  and  C_1 
REMARK    2  A    between atoms: C_5  and  C_2 
REMARK    3  A    between atoms: C_4  and  C_3 
ROOT
ATOM      1  C   UNL d   1     -48.675  13.810  22.191  0.00  0.00     0.045 A 
ATOM      2  C   UNL d   1     -49.397  14.190  22.314  0.00  0.00     0.068 A 
ATOM      3  C   UNL d   1     -48.616  13.190  21.653  0.00  0.00     0.003 A 
ATOM      4  C   UNL d   1     -50.066  13.946  21.893  0.00  0.00     0.006 A 
ATOM      5  C   UNL d   1     -49.278  12.946  21.233  0.00  0.00     0.000 A 
ATOM      6  C   UNL d   1     -50.012  13.328  21.354  0.00  0.00     0.000 A 
ENDROOT
BRANCH   1   7
ATOM      7  C   UNL d   1     -48.001  14.053  22.613  0.00  0.00     0.196 C 
ATOM      8  O   UNL d   1     -47.921  14.843  22.831  0.00  0.00    -0.287 OA
BRANCH   7   9
ATOM      9  C   UNL d   1     -47.416  13.506  22.813  0.00  0.00     0.039 A 
ATOM     10  C   UNL d   1     -47.559  12.937  23.401  0.00  0.00     0.005 A 
ATOM     11  C   UNL d   1     -46.968  12.391  23.597  0.00  0.00     0.030 A 
ATOM     12  C   UNL d   1     -46.244  12.410  23.212  0.00  0.00     0.140 A 
ATOM     13  C   UNL d   1     -46.102  12.973  22.630  0.00  0.00     0.030 A 
ATOM     14  F   UNL d   1     -45.659  11.857  23.418  0.00  0.00    -0.204 F 
ATOM     15  C   UNL d   1     -46.683  13.522  22.426  0.00  0.00     0.005 A 
ENDBRANCH   7   9
ENDBRANCH   1   7
BRANCH   2  16
ATOM     16  C   UNL d   1     -49.444  14.809  22.855  0.00  0.00     0.211 C 
ATOM     17  O   UNL d   1     -49.272  15.582  22.616  0.00  0.00    -0.644 OA
ATOM     18  O   UNL d   1     -49.661  14.646  23.630  0.00  0.00    -0.644 OA
ENDBRANCH   2  16
TORSDOF 3
ENDMDL
