MODEL 1
REMARK VINA RESULT:       2.6      0.000      0.000
REMARK  1 active torsions:
REMARK  status: ('A' for Active; 'I' for Inactive)
REMARK    1  A    between atoms: C_4  and  C_1 
ROOT
ATOM      1  C   UNL d   1      46.589 -19.117  42.783  0.00  0.00     0.024 A 
ATOM      2  C   UNL d   1      46.639 -19.941  42.808  0.00  0.00     0.002 A 
ATOM      3  C   UNL d   1      46.523 -18.683  43.479  0.00  0.00     0.002 A 
ATOM      4  C   UNL d   1      46.622 -20.330  43.527  0.00  0.00     0.000 A 
ATOM      5  C   UNL d   1      46.505 -19.073  44.206  0.00  0.00     0.000 A 
ATOM      6  C   UNL d   1      46.555 -19.896  44.225  0.00  0.00     0.000 A 
ATOM      7  C   UNL d   1      46.537 -20.294  44.954  0.00  0.00     0.000 C 
ENDROOT
BRANCH   1   8
ATOM      8  C   UNL d   1      46.607 -18.728  42.056  0.00  0.00     0.111 A 
ATOM      9  N   UNL d   1      46.627 -17.903  42.029  0.00  0.00    -0.237 NA
ATOM     10  C   UNL d   1      46.642 -17.949  40.600  0.00  0.00     0.106 A 
ATOM     11  C   UNL d   1      46.622 -18.774  40.627  0.00  0.00     0.058 A 
ATOM     12  S   UNL d   1      46.604 -19.163  41.354  0.00  0.00    -0.066 SA
ENDBRANCH   1   8
TORSDOF 1
ENDMDL
MODEL 2
REMARK VINA RESULT:       3.7      7.537      7.823
REMARK  1 active torsions:
REMARK  status: ('A' for Active; 'I' for Inactive)
REMARK    1  A    between atoms: C_4  and  C_1 
ROOT
ATOM      1  C   UNL d   1      44.406 -15.411  36.695  0.00  0.00     0.024 A 
ATOM      2  C   UNL d   1      44.490 -14.725  37.145  0.00  0.00     0.002 A 
ATOM      3  C   UNL d   1      45.065 -15.777  36.367  0.00  0.00     0.002 A 
ATOM      4  C   UNL d   1      45.232 -14.405  37.268  0.00  0.00     0.000 A 
ATOM      5  C   UNL d   1      45.816 -15.457  36.489  0.00  0.00     0.000 A 
ATOM      6  C   UNL d   1      45.894 -14.770  36.940  0.00  0.00     0.000 A 
ATOM      7  C   UNL d   1      46.647 -14.443  37.066  0.00  0.00     0.000 C 
ENDROOT
BRANCH   1   8
ATOM      8  C   UNL d   1      43.655 -15.732  36.574  0.00  0.00     0.111 A 
ATOM      9  N   UNL d   1      43.575 -16.517  36.332  0.00  0.00    -0.237 NA
ATOM     10  C   UNL d   1      42.152 -16.372  36.331  0.00  0.00     0.106 A 
ATOM     11  C   UNL d   1      42.232 -15.588  36.572  0.00  0.00     0.058 A 
ATOM     12  S   UNL d   1      42.983 -15.267  36.694  0.00  0.00    -0.066 SA
ENDBRANCH   1   8
TORSDOF 1
ENDMDL
