MODEL 1
REMARK VINA RESULT:      82.4      0.000      0.000
REMARK  6 active torsions:
REMARK  status: ('A' for Active; 'I' for Inactive)
REMARK    1  A    between atoms: C_6  and  C_1 
REMARK    2  A    between atoms: C_9  and  C_2 
REMARK    3  A    between atoms: N_8  and  C_3 
REMARK       I    between atoms: N_7  and  C_6 
REMARK    4  A    between atoms: C_13  and  N_7 
REMARK    5  A    between atoms: C_12  and  N_8 
REMARK    6  A    between atoms: O_19  and  C_14 
ROOT
ATOM      1  C   UNL d   1     -48.844  30.040  34.164  0.00  0.00     0.108 A 
ATOM      2  C   UNL d   1     -48.709  29.418  34.694  0.00  0.00     0.094 A 
ATOM      3  C   UNL d   1     -49.755  29.115  33.940  0.00  0.00     0.194 A 
ATOM      4  N   UNL d   1     -49.280  28.840  34.551  0.00  0.00    -0.221 NA
ATOM      5  S   UNL d   1     -49.496  29.832  33.707  0.00  0.00    -0.042 SA
ENDROOT
BRANCH   1   6
ATOM      6  C   UNL d   1     -48.415  30.737  34.098  0.00  0.00     0.287 C 
ATOM      7  N   UNL d   1     -48.794  31.447  33.911  0.00  0.00    -0.206 NA
ATOM      8  O   UNL d   1     -47.590  30.743  34.219  0.00  0.00    -0.265 OA
BRANCH   7   9
ATOM      9  C   UNL d   1     -48.370  32.144  33.845  0.00  0.00     0.104 A 
ATOM     10  C   UNL d   1     -47.685  32.221  34.268  0.00  0.00     0.118 A 
ATOM     11  N   UNL d   1     -47.262  32.922  34.199  0.00  0.00    -0.241 NA
ATOM     12  C   UNL d   1     -47.524  33.504  33.728  0.00  0.00     0.099 A 
ATOM     13  C   UNL d   1     -48.209  33.427  33.306  0.00  0.00     0.022 A 
ATOM     14  C   UNL d   1     -48.653  32.730  33.358  0.00  0.00     0.022 A 
ENDBRANCH   7   9
ENDBRANCH   1   6
BRANCH   2  15
ATOM     15  C   UNL d   1     -48.099  29.458  35.223  0.00  0.00     0.018 A 
ATOM     16  C   UNL d   1     -48.232  29.728  35.994  0.00  0.00     0.002 A 
ATOM     17  C   UNL d   1     -47.599  29.765  36.527  0.00  0.00     0.000 A 
ATOM     18  C   UNL d   1     -46.838  29.530  36.283  0.00  0.00     0.000 A 
ATOM     19  C   UNL d   1     -46.712  29.273  35.551  0.00  0.00     0.000 A 
ATOM     20  C   UNL d   1     -47.336  29.228  34.996  0.00  0.00     0.002 A 
ENDBRANCH   2  15
BRANCH   3  21
ATOM     21  N   UNL d   1     -50.385  28.713  33.629  0.00  0.00    -0.221 NA
BRANCH  21  22
ATOM     22  C   UNL d   1     -50.344  27.890  33.548  0.00  0.00     0.084 A 
ATOM     23  C   UNL d   1     -51.039  27.458  33.417  0.00  0.00     0.021 A 
ATOM     24  C   UNL d   1     -51.009  26.654  33.337  0.00  0.00     0.026 A 
ATOM     25  C   UNL d   1     -50.268  26.272  33.389  0.00  0.00     0.094 A 
ATOM     26  C   UNL d   1     -49.609  26.682  33.513  0.00  0.00     0.026 A 
ATOM     27  C   UNL d   1     -49.632  27.511  33.597  0.00  0.00     0.021 A 
BRANCH  25  28
ATOM     28  O   UNL d   1     -50.214  25.430  33.308  0.00  0.00    -0.328 OA
ATOM     29  C   UNL d   1     -50.888  24.947  33.332  0.00  0.00     0.181 C 
ENDBRANCH  25  28
ENDBRANCH  21  22
ENDBRANCH   3  21
TORSDOF 6
ENDMDL
MODEL 2
REMARK VINA RESULT:      84.2      2.269      3.454
REMARK  6 active torsions:
REMARK  status: ('A' for Active; 'I' for Inactive)
REMARK    1  A    between atoms: C_6  and  C_1 
REMARK    2  A    between atoms: C_9  and  C_2 
REMARK    3  A    between atoms: N_8  and  C_3 
REMARK       I    between atoms: N_7  and  C_6 
REMARK    4  A    between atoms: C_13  and  N_7 
REMARK    5  A    between atoms: C_12  and  N_8 
REMARK    6  A    between atoms: O_19  and  C_14 
ROOT
ATOM      1  C   UNL d   1     -49.824  27.282  34.923  0.00  0.00     0.108 A 
ATOM      2  C   UNL d   1     -50.409  26.837  35.303  0.00  0.00     0.094 A 
ATOM      3  C   UNL d   1     -50.409  26.527  34.016  0.00  0.00     0.194 A 
ATOM      4  N   UNL d   1     -50.774  26.366  34.734  0.00  0.00    -0.221 NA
ATOM      5  S   UNL d   1     -49.841  27.075  34.126  0.00  0.00    -0.042 SA
ENDROOT
BRANCH   1   6
ATOM      6  C   UNL d   1     -49.316  27.830  35.265  0.00  0.00     0.287 C 
ATOM      7  N   UNL d   1     -48.816  28.290  34.795  0.00  0.00    -0.206 NA
ATOM      8  O   UNL d   1     -49.295  27.933  36.092  0.00  0.00    -0.265 OA
BRANCH   7   9
ATOM      9  C   UNL d   1     -48.309  28.837  35.133  0.00  0.00     0.104 A 
ATOM     10  C   UNL d   1     -47.729  28.570  35.629  0.00  0.00     0.118 A 
ATOM     11  N   UNL d   1     -47.222  29.122  35.965  0.00  0.00    -0.241 NA
ATOM     12  C   UNL d   1     -47.304  29.893  35.804  0.00  0.00     0.099 A 
ATOM     13  C   UNL d   1     -47.885  30.160  35.308  0.00  0.00     0.022 A 
ATOM     14  C   UNL d   1     -48.408  29.624  34.957  0.00  0.00     0.022 A 
ENDBRANCH   7   9
ENDBRANCH   1   6
BRANCH   2  15
ATOM     15  C   UNL d   1     -50.530  26.917  36.099  0.00  0.00     0.018 A 
ATOM     16  C   UNL d   1     -50.335  26.301  36.616  0.00  0.00     0.002 A 
ATOM     17  C   UNL d   1     -50.463  26.394  37.428  0.00  0.00     0.000 A 
ATOM     18  C   UNL d   1     -50.786  27.106  37.717  0.00  0.00     0.000 A 
ATOM     19  C   UNL d   1     -50.971  27.691  37.226  0.00  0.00     0.000 A 
ATOM     20  C   UNL d   1     -50.850  27.618  36.403  0.00  0.00     0.002 A 
ENDBRANCH   2  15
BRANCH   3  21
ATOM     21  N   UNL d   1     -50.604  26.180  33.310  0.00  0.00    -0.221 NA
BRANCH  21  22
ATOM     22  C   UNL d   1     -51.064  25.491  33.309  0.00  0.00     0.084 A 
ATOM     23  C   UNL d   1     -51.890  25.554  33.310  0.00  0.00     0.021 A 
ATOM     24  C   UNL d   1     -52.349  24.888  33.309  0.00  0.00     0.026 A 
ATOM     25  C   UNL d   1     -51.974  24.142  33.307  0.00  0.00     0.094 A 
ATOM     26  C   UNL d   1     -51.189  24.083  33.307  0.00  0.00     0.026 A 
ATOM     27  C   UNL d   1     -50.710  24.765  33.308  0.00  0.00     0.021 A 
BRANCH  25  28
ATOM     28  O   UNL d   1     -52.436  23.431  33.306  0.00  0.00    -0.328 OA
ATOM     29  C   UNL d   1     -52.861  23.188  33.975  0.00  0.00     0.181 C 
ENDBRANCH  25  28
ENDBRANCH  21  22
ENDBRANCH   3  21
TORSDOF 6
ENDMDL
