MODEL 1
REMARK VINA RESULT:      13.9      0.000      0.000
REMARK  1 active torsions:
REMARK  status: ('A' for Active; 'I' for Inactive)
REMARK    1  A    between atoms: N_2  and  C_1 
ROOT
ATOM      1  C   UNL d   1      58.715  49.694  50.427  0.00  0.00     0.148 A 
ATOM      2  C   UNL d   1      58.229  49.687  49.734  0.00  0.00     0.051 A 
ATOM      3  C   UNL d   1      58.356  49.700  51.170  0.00  0.00     0.127 A 
ATOM      4  C   UNL d   1      57.412  49.684  49.797  0.00  0.00     0.121 A 
ATOM      5  C   UNL d   1      57.510  49.697  51.220  0.00  0.00     0.049 A 
ATOM      6  C   UNL d   1      57.053  49.689  50.540  0.00  0.00     0.121 A 
ATOM      7  O   UNL d   1      56.800  49.677  49.208  0.00  0.00    -0.299 OA
ATOM      8  O   UNL d   1      56.211  49.685  50.428  0.00  0.00    -0.299 OA
ATOM      9  C   UNL d   1      56.087  49.678  49.608  0.00  0.00     0.304 A 
ATOM     10  N   UNL d   1      58.879  49.707  51.854  0.00  0.00    -0.146 N 
ENDROOT
BRANCH   1  11
ATOM     11  N   UNL d   1      59.576  49.697  50.412  0.00  0.00    -0.112 N 
ATOM     12  O   UNL d   1      60.020  49.698  51.119  0.00  0.00    -0.532 OA
ATOM     13  O   UNL d   1      59.999  49.700  49.666  0.00  0.00    -0.532 OA
ENDBRANCH   1  11
TORSDOF 1
ENDMDL
MODEL 2
REMARK VINA RESULT:      14.4      0.557      1.390
REMARK  1 active torsions:
REMARK  status: ('A' for Active; 'I' for Inactive)
REMARK    1  A    between atoms: N_2  and  C_1 
ROOT
ATOM      1  C   UNL d   1      58.778  49.702  50.636  0.00  0.00     0.148 A 
ATOM      2  C   UNL d   1      58.015  49.701  51.003  0.00  0.00     0.051 A 
ATOM      3  C   UNL d   1      58.828  49.705  49.813  0.00  0.00     0.127 A 
ATOM      4  C   UNL d   1      57.333  49.703  50.548  0.00  0.00     0.121 A 
ATOM      5  C   UNL d   1      58.116  49.707  49.355  0.00  0.00     0.049 A 
ATOM      6  C   UNL d   1      57.384  49.706  49.724  0.00  0.00     0.121 A 
ATOM      7  O   UNL d   1      56.512  49.703  50.763  0.00  0.00    -0.299 OA
ATOM      8  O   UNL d   1      56.594  49.708  49.410  0.00  0.00    -0.299 OA
ATOM      9  C   UNL d   1      56.086  49.706  50.064  0.00  0.00     0.304 A 
ATOM     10  N   UNL d   1      59.619  49.705  49.472  0.00  0.00    -0.146 N 
ENDROOT
BRANCH   1  11
ATOM     11  N   UNL d   1      59.522  49.699  51.070  0.00  0.00    -0.112 N 
ATOM     12  O   UNL d   1      60.255  49.695  50.671  0.00  0.00    -0.532 OA
ATOM     13  O   UNL d   1      59.525  49.702  51.928  0.00  0.00    -0.532 OA
ENDBRANCH   1  11
TORSDOF 1
ENDMDL
MODEL 3
REMARK VINA RESULT:      14.6      1.283      3.069
REMARK  1 active torsions:
REMARK  status: ('A' for Active; 'I' for Inactive)
REMARK    1  A    between atoms: N_2  and  C_1 
ROOT
ATOM      1  C   UNL d   1      58.308  49.703  50.462  0.00  0.00     0.148 A 
ATOM      2  C   UNL d   1      58.766  49.702  51.174  0.00  0.00     0.051 A 
ATOM      3  C   UNL d   1      58.695  49.706  49.734  0.00  0.00     0.127 A 
ATOM      4  C   UNL d   1      59.585  49.703  51.142  0.00  0.00     0.121 A 
ATOM      5  C   UNL d   1      59.542  49.707  49.717  0.00  0.00     0.049 A 
ATOM      6  C   UNL d   1      59.973  49.705  50.414  0.00  0.00     0.121 A 
ATOM      7  O   UNL d   1      60.173  49.702  51.756  0.00  0.00    -0.299 OA
ATOM      8  O   UNL d   1      60.809  49.706  50.560  0.00  0.00    -0.299 OA
ATOM      9  C   UNL d   1      60.901  49.704  51.383  0.00  0.00     0.304 A 
ATOM     10  N   UNL d   1      58.199  49.707  49.030  0.00  0.00    -0.146 N 
ENDROOT
BRANCH   1  11
ATOM     11  N   UNL d   1      57.446  49.702  50.443  0.00  0.00    -0.112 N 
ATOM     12  O   UNL d   1      56.998  49.703  51.148  0.00  0.00    -0.532 OA
ATOM     13  O   UNL d   1      57.027  49.700  49.695  0.00  0.00    -0.532 OA
ENDBRANCH   1  11
TORSDOF 1
ENDMDL
