MODEL 1
REMARK VINA RESULT:      -3.4      0.000      0.000
REMARK  4 active torsions:
REMARK  status: ('A' for Active; 'I' for Inactive)
REMARK    1  A    between atoms: N_8  and  S_1 
REMARK    2  A    between atoms: C_12  and  S_1 
REMARK    3  A    between atoms: C_5  and  C_9 
REMARK    4  A    between atoms: C_15  and  N_8 
ROOT
ATOM      1  C   UNL d   1      33.005  19.733 -23.474  0.00  0.00     0.021 A 
ATOM      2  C   UNL d   1      32.680  18.524 -24.156  0.00  0.00     0.094 A 
ATOM      3  C   UNL d   1      32.727  18.960 -23.458  0.00  0.00     0.021 A 
ATOM      4  C   UNL d   1      33.241  20.087 -24.184  0.00  0.00     0.002 A 
ATOM      5  C   UNL d   1      33.194  19.650 -24.889  0.00  0.00     0.002 A 
ATOM      6  C   UNL d   1      32.914  18.866 -24.882  0.00  0.00     0.020 A 
ENDROOT
BRANCH   2   7
ATOM      7  N   UNL d   1      32.402  17.752 -24.139  0.00  0.00    -0.158 NA
BRANCH   7   8
ATOM      8  S   UNL d   1      31.681  17.568 -24.495  0.00  0.00     0.285 S 
ATOM      9  O   UNL d   1      31.524  18.201 -25.002  0.00  0.00    -0.198 OA
ATOM     10  O   UNL d   1      30.991  17.575 -24.952  0.00  0.00    -0.198 OA
BRANCH   8  11
ATOM     11  C   UNL d   1      31.297  16.865 -24.298  0.00  0.00     0.105 A 
ATOM     12  C   UNL d   1      30.659  16.875 -23.780  0.00  0.00     0.013 A 
ATOM     13  C   UNL d   1      30.279  16.174 -23.586  0.00  0.00     0.001 A 
ATOM     14  C   UNL d   1      30.538  15.454 -23.913  0.00  0.00     0.000 A 
ATOM     15  C   UNL d   1      31.183  15.457 -24.435  0.00  0.00     0.001 A 
ATOM     16  C   UNL d   1      31.557  16.155 -24.625  0.00  0.00     0.013 A 
ENDBRANCH   8  11
ENDBRANCH   7   8
ENDBRANCH   2   7
BRANCH   1  17
ATOM     17  C   UNL d   1      33.053  20.171 -22.774  0.00  0.00     0.118 A 
ATOM     18  N   UNL d   1      33.033  19.876 -22.003  0.00  0.00    -0.059 NA
ATOM     19  C   UNL d   1      33.097  20.509 -21.484  0.00  0.00     0.735 A 
ATOM     20  N   UNL d   1      33.109  20.538 -20.654  0.00  0.00    -0.059 NA
ATOM     21  N   UNL d   1      33.157  21.200 -21.927  0.00  0.00    -0.136 N 
ATOM     22  C   UNL d   1      33.180  21.266 -20.274  0.00  0.00     0.119 A 
ATOM     23  C   UNL d   1      33.241  21.960 -20.712  0.00  0.00     0.041 A 
ATOM     24  C   UNL d   1      33.230  21.931 -21.533  0.00  0.00     0.100 A 
ATOM     25  C   UNL d   1      33.130  20.995 -22.724  0.00  0.00     0.118 A 
ENDBRANCH   1  17
TORSDOF 4
ENDMDL
MODEL 2
REMARK VINA RESULT:      -3.1      1.293      2.104
REMARK  4 active torsions:
REMARK  status: ('A' for Active; 'I' for Inactive)
REMARK    1  A    between atoms: N_8  and  S_1 
REMARK    2  A    between atoms: C_12  and  S_1 
REMARK    3  A    between atoms: C_5  and  C_9 
REMARK    4  A    between atoms: C_15  and  N_8 
ROOT
ATOM      1  C   UNL d   1      32.622  17.800 -23.420  0.00  0.00     0.021 A 
ATOM      2  C   UNL d   1      31.739  16.706 -23.660  0.00  0.00     0.094 A 
ATOM      3  C   UNL d   1      31.882  17.451 -23.339  0.00  0.00     0.021 A 
ATOM      4  C   UNL d   1      33.233  17.414 -23.822  0.00  0.00     0.002 A 
ATOM      5  C   UNL d   1      33.093  16.662 -24.147  0.00  0.00     0.002 A 
ATOM      6  C   UNL d   1      32.346  16.302 -24.069  0.00  0.00     0.020 A 
ENDROOT
BRANCH   2   7
ATOM      7  N   UNL d   1      31.000  16.358 -23.579  0.00  0.00    -0.158 NA
BRANCH   7   8
ATOM      8  S   UNL d   1      30.447  16.427 -24.186  0.00  0.00     0.285 S 
ATOM      9  O   UNL d   1      30.841  16.824 -24.793  0.00  0.00    -0.198 OA
ATOM     10  O   UNL d   1      30.056  16.596 -24.896  0.00  0.00    -0.198 OA
BRANCH   8  11
ATOM     11  C   UNL d   1      29.688  16.119 -24.082  0.00  0.00     0.105 A 
ATOM     12  C   UNL d   1      29.159  16.107 -24.710  0.00  0.00     0.013 A 
ATOM     13  C   UNL d   1      28.404  15.800 -24.605  0.00  0.00     0.001 A 
ATOM     14  C   UNL d   1      28.176  15.501 -23.863  0.00  0.00     0.000 A 
ATOM     15  C   UNL d   1      28.719  15.518 -23.236  0.00  0.00     0.001 A 
ATOM     16  C   UNL d   1      29.467  15.823 -23.345  0.00  0.00     0.013 A 
ENDBRANCH   8  11
ENDBRANCH   7   8
ENDBRANCH   2   7
BRANCH   1  17
ATOM     17  C   UNL d   1      32.765  18.548 -23.098  0.00  0.00     0.118 A 
ATOM     18  N   UNL d   1      32.840  19.259 -23.512  0.00  0.00    -0.059 NA
ATOM     19  C   UNL d   1      32.979  19.859 -22.968  0.00  0.00     0.735 A 
ATOM     20  N   UNL d   1      33.097  20.675 -23.070  0.00  0.00    -0.059 NA
ATOM     21  N   UNL d   1      32.991  19.527 -22.215  0.00  0.00    -0.136 N 
ATOM     22  C   UNL d   1      33.227  21.152 -22.411  0.00  0.00     0.119 A 
ATOM     23  C   UNL d   1      33.239  20.825 -21.656  0.00  0.00     0.041 A 
ATOM     24  C   UNL d   1      33.123  20.017 -21.555  0.00  0.00     0.100 A 
ATOM     25  C   UNL d   1      32.859  18.717 -22.292  0.00  0.00     0.118 A 
ENDBRANCH   1  17
TORSDOF 4
ENDMDL
MODEL 3
REMARK VINA RESULT:      -2.6      1.336      1.642
REMARK  4 active torsions:
REMARK  status: ('A' for Active; 'I' for Inactive)
REMARK    1  A    between atoms: N_8  and  S_1 
REMARK    2  A    between atoms: C_12  and  S_1 
REMARK    3  A    between atoms: C_5  and  C_9 
REMARK    4  A    between atoms: C_15  and  N_8 
ROOT
ATOM      1  C   UNL d   1      33.202  20.543 -22.493  0.00  0.00     0.021 A 
ATOM      2  C   UNL d   1      33.218  19.261 -23.116  0.00  0.00     0.094 A 
ATOM      3  C   UNL d   1      33.224  19.724 -22.434  0.00  0.00     0.021 A 
ATOM      4  C   UNL d   1      33.174  20.917 -23.230  0.00  0.00     0.002 A 
ATOM      5  C   UNL d   1      33.169  20.454 -23.920  0.00  0.00     0.002 A 
ATOM      6  C   UNL d   1      33.191  19.623 -23.869  0.00  0.00     0.020 A 
ENDROOT
BRANCH   2   7
ATOM      7  N   UNL d   1      33.240  18.442 -23.057  0.00  0.00    -0.158 NA
BRANCH   7   8
ATOM      8  S   UNL d   1      32.624  17.993 -23.370  0.00  0.00     0.285 S 
ATOM      9  O   UNL d   1      31.973  18.500 -23.383  0.00  0.00    -0.198 OA
ATOM     10  O   UNL d   1      31.894  17.727 -23.654  0.00  0.00    -0.198 OA
BRANCH   8  11
ATOM     11  C   UNL d   1      32.761  17.208 -23.586  0.00  0.00     0.105 A 
ATOM     12  C   UNL d   1      32.915  17.018 -24.369  0.00  0.00     0.013 A 
ATOM     13  C   UNL d   1      33.051  16.236 -24.582  0.00  0.00     0.001 A 
ATOM     14  C   UNL d   1      33.032  15.638 -24.004  0.00  0.00     0.000 A 
ATOM     15  C   UNL d   1      32.875  15.843 -23.216  0.00  0.00     0.001 A 
ATOM     16  C   UNL d   1      32.741  16.619 -23.010  0.00  0.00     0.013 A 
ENDBRANCH   8  11
ENDBRANCH   7   8
ENDBRANCH   2   7
BRANCH   1  17
ATOM     17  C   UNL d   1      33.207  21.008 -21.809  0.00  0.00     0.118 A 
ATOM     18  N   UNL d   1      33.196  20.739 -21.028  0.00  0.00    -0.059 NA
ATOM     19  C   UNL d   1      33.207  21.393 -20.531  0.00  0.00     0.735 A 
ATOM     20  N   UNL d   1      33.203  21.453 -19.703  0.00  0.00    -0.059 NA
ATOM     21  N   UNL d   1      33.225  22.071 -20.998  0.00  0.00    -0.136 N 
ATOM     22  C   UNL d   1      33.216  22.196 -19.348  0.00  0.00     0.119 A 
ATOM     23  C   UNL d   1      33.234  22.877 -19.811  0.00  0.00     0.041 A 
ATOM     24  C   UNL d   1      33.239  22.818 -20.630  0.00  0.00     0.100 A 
ATOM     25  C   UNL d   1      33.225  21.837 -21.788  0.00  0.00     0.118 A 
ENDBRANCH   1  17
TORSDOF 4
ENDMDL
MODEL 4
REMARK VINA RESULT:      -1.7      2.691      5.232
REMARK  4 active torsions:
REMARK  status: ('A' for Active; 'I' for Inactive)
REMARK    1  A    between atoms: N_8  and  S_1 
REMARK    2  A    between atoms: C_12  and  S_1 
REMARK    3  A    between atoms: C_5  and  C_9 
REMARK    4  A    between atoms: C_15  and  N_8 
ROOT
ATOM      1  C   UNL d   1      33.026  21.089 -24.103  0.00  0.00     0.021 A 
ATOM      2  C   UNL d   1      33.140  22.422 -23.611  0.00  0.00     0.094 A 
ATOM      3  C   UNL d   1      33.127  21.609 -23.476  0.00  0.00     0.021 A 
ATOM      4  C   UNL d   1      32.935  21.366 -24.877  0.00  0.00     0.002 A 
ATOM      5  C   UNL d   1      32.948  22.185 -25.018  0.00  0.00     0.002 A 
ATOM      6  C   UNL d   1      33.050  22.720 -24.388  0.00  0.00     0.020 A 
ENDROOT
BRANCH   2   7
ATOM      7  N   UNL d   1      33.241  22.942 -22.984  0.00  0.00    -0.158 NA
BRANCH   7   8
ATOM      8  S   UNL d   1      32.582  23.236 -22.586  0.00  0.00     0.285 S 
ATOM      9  O   UNL d   1      32.044  23.439 -23.179  0.00  0.00    -0.198 OA
ATOM     10  O   UNL d   1      31.844  23.555 -22.389  0.00  0.00    -0.198 OA
BRANCH   8  11
ATOM     11  C   UNL d   1      32.585  23.268 -21.761  0.00  0.00     0.105 A 
ATOM     12  C   UNL d   1      31.979  22.914 -21.333  0.00  0.00     0.013 A 
ATOM     13  C   UNL d   1      31.984  22.947 -20.512  0.00  0.00     0.001 A 
ATOM     14  C   UNL d   1      32.602  23.338 -20.115  0.00  0.00     0.000 A 
ATOM     15  C   UNL d   1      33.207  23.691 -20.558  0.00  0.00     0.001 A 
ATOM     16  C   UNL d   1      33.198  23.656 -21.372  0.00  0.00     0.013 A 
ENDBRANCH   8  11
ENDBRANCH   7   8
ENDBRANCH   2   7
BRANCH   1  17
ATOM     17  C   UNL d   1      33.013  20.273 -23.967  0.00  0.00     0.118 A 
ATOM     18  N   UNL d   1      32.913  19.894 -23.240  0.00  0.00    -0.059 NA
ATOM     19  C   UNL d   1      32.937  19.083 -23.368  0.00  0.00     0.735 A 
ATOM     20  N   UNL d   1      32.868  18.443 -22.844  0.00  0.00    -0.059 NA
ATOM     21  N   UNL d   1      33.053  18.952 -24.172  0.00  0.00    -0.136 N 
ATOM     22  C   UNL d   1      32.915  17.673 -23.133  0.00  0.00     0.119 A 
ATOM     23  C   UNL d   1      33.031  17.537 -23.936  0.00  0.00     0.041 A 
ATOM     24  C   UNL d   1      33.099  18.170 -24.455  0.00  0.00     0.100 A 
ATOM     25  C   UNL d   1      33.100  19.685 -24.546  0.00  0.00     0.118 A 
ENDBRANCH   1  17
TORSDOF 4
ENDMDL
MODEL 5
REMARK VINA RESULT:      -0.7      3.158      5.201
REMARK  4 active torsions:
REMARK  status: ('A' for Active; 'I' for Inactive)
REMARK    1  A    between atoms: N_8  and  S_1 
REMARK    2  A    between atoms: C_12  and  S_1 
REMARK    3  A    between atoms: C_5  and  C_9 
REMARK    4  A    between atoms: C_15  and  N_8 
ROOT
ATOM      1  C   UNL d   1      32.677  22.970 -19.114  0.00  0.00     0.021 A 
ATOM      2  C   UNL d   1      32.838  22.307 -20.366  0.00  0.00     0.094 A 
ATOM      3  C   UNL d   1      32.890  22.303 -19.544  0.00  0.00     0.021 A 
ATOM      4  C   UNL d   1      32.408  23.653 -19.494  0.00  0.00     0.002 A 
ATOM      5  C   UNL d   1      32.354  23.662 -20.323  0.00  0.00     0.002 A 
ATOM      6  C   UNL d   1      32.568  22.990 -20.766  0.00  0.00     0.020 A 
ENDROOT
BRANCH   2   7
ATOM      7  N   UNL d   1      33.051  21.640 -20.795  0.00  0.00    -0.158 NA
BRANCH   7   8
ATOM      8  S   UNL d   1      32.511  21.299 -21.316  0.00  0.00     0.285 S 
ATOM      9  O   UNL d   1      31.816  21.735 -21.222  0.00  0.00    -0.198 OA
ATOM     10  O   UNL d   1      31.837  21.111 -21.758  0.00  0.00    -0.198 OA
BRANCH   8  11
ATOM     11  C   UNL d   1      32.742  20.657 -21.780  0.00  0.00     0.105 A 
ATOM     12  C   UNL d   1      32.758  19.901 -21.459  0.00  0.00     0.013 A 
ATOM     13  C   UNL d   1      32.989  19.263 -21.923  0.00  0.00     0.001 A 
ATOM     14  C   UNL d   1      33.206  19.383 -22.717  0.00  0.00     0.000 A 
ATOM     15  C   UNL d   1      33.186  20.151 -23.030  0.00  0.00     0.001 A 
ATOM     16  C   UNL d   1      32.957  20.780 -22.566  0.00  0.00     0.013 A 
ENDBRANCH   8  11
ENDBRANCH   7   8
ENDBRANCH   2   7
BRANCH   1  17
ATOM     17  C   UNL d   1      32.730  22.965 -18.288  0.00  0.00     0.118 A 
ATOM     18  N   UNL d   1      33.072  22.380 -17.817  0.00  0.00    -0.059 NA
ATOM     19  C   UNL d   1      32.999  22.607 -17.032  0.00  0.00     0.735 A 
ATOM     20  N   UNL d   1      33.240  22.236 -16.329  0.00  0.00    -0.059 NA
ATOM     21  N   UNL d   1      32.611  23.332 -17.008  0.00  0.00    -0.136 N 
ATOM     22  C   UNL d   1      33.089  22.599 -15.605  0.00  0.00     0.119 A 
ATOM     23  C   UNL d   1      32.702  23.325 -15.576  0.00  0.00     0.041 A 
ATOM     24  C   UNL d   1      32.463  23.692 -16.272  0.00  0.00     0.100 A 
ATOM     25  C   UNL d   1      32.443  23.557 -17.783  0.00  0.00     0.118 A 
ENDBRANCH   1  17
TORSDOF 4
ENDMDL
