MODEL 1
REMARK VINA RESULT:      17.7      0.000      0.000
REMARK  2 active torsions:
REMARK  status: ('A' for Active; 'I' for Inactive)
REMARK    1  A    between atoms: O_3  and  C_1 
REMARK       I    between atoms: N_6  and  C_1 
REMARK    2  A    between atoms: C_5  and  O_3 
ROOT
ATOM      1  C   UNL d   1     -51.319  25.312  33.321  0.00  0.00     0.105 A 
ATOM      2  C   UNL d   1     -50.537  25.567  33.329  0.00  0.00     0.030 A 
ATOM      3  C   UNL d   1     -51.492  24.492  33.320  0.00  0.00     0.122 A 
ATOM      4  N   UNL d   1     -51.939  25.864  33.314  0.00  0.00    -0.242 NA
ATOM      5  C   UNL d   1     -49.921  25.016  33.337  0.00  0.00     0.059 A 
ATOM      6  C   UNL d   1     -50.880  23.945  33.327  0.00  0.00     0.027 A 
ATOM      7  C   UNL d   1     -50.094  24.196  33.336  0.00  0.00     0.013 A 
ATOM      8 CL   UNL d   1     -49.130  25.270  33.345  0.00  0.00    -0.082 Cl
ATOM      9  C   UNL d   1     -50.366  26.375  33.331  0.00  0.00     0.004 A 
ATOM     10  C   UNL d   1     -51.768  26.671  33.315  0.00  0.00     0.099 A 
ATOM     11  C   UNL d   1     -50.978  26.926  33.323  0.00  0.00     0.021 A 
ENDROOT
BRANCH   3  12
ATOM     12  O   UNL d   1     -52.284  24.230  33.311  0.00  0.00    -0.257 OA
BRANCH  12  13
ATOM     13  C   UNL d   1     -52.577  23.741  33.922  0.00  0.00     0.378 C 
ATOM     14  N   UNL d   1     -53.380  23.674  34.057  0.00  0.00    -0.249 N 
ATOM     15  C   UNL d   1     -53.663  23.190  34.662  0.00  0.00     0.104 C 
ATOM     16  C   UNL d   1     -53.913  24.094  33.586  0.00  0.00     0.104 C 
ATOM     17  O   UNL d   1     -52.036  23.316  34.399  0.00  0.00    -0.237 OA
ENDBRANCH  12  13
ENDBRANCH   3  12
TORSDOF 2
ENDMDL
MODEL 2
REMARK VINA RESULT:      20.2      1.894      3.412
REMARK  2 active torsions:
REMARK  status: ('A' for Active; 'I' for Inactive)
REMARK    1  A    between atoms: O_3  and  C_1 
REMARK       I    between atoms: N_6  and  C_1 
REMARK    2  A    between atoms: C_5  and  O_3 
ROOT
ATOM      1  C   UNL d   1     -51.068  24.719  33.322  0.00  0.00     0.105 A 
ATOM      2  C   UNL d   1     -51.572  24.069  33.325  0.00  0.00     0.030 A 
ATOM      3  C   UNL d   1     -51.384  25.495  33.312  0.00  0.00     0.122 A 
ATOM      4  N   UNL d   1     -50.245  24.609  33.328  0.00  0.00    -0.242 NA
ATOM      5  C   UNL d   1     -52.391  24.180  33.318  0.00  0.00     0.059 A 
ATOM      6  C   UNL d   1     -52.197  25.604  33.306  0.00  0.00     0.027 A 
ATOM      7  C   UNL d   1     -52.707  24.956  33.309  0.00  0.00     0.013 A 
ATOM      8 CL   UNL d   1     -52.903  23.526  33.321  0.00  0.00    -0.082 Cl
ATOM      9  C   UNL d   1     -51.260  23.305  33.334  0.00  0.00     0.004 A 
ATOM     10  C   UNL d   1     -49.933  23.845  33.337  0.00  0.00     0.099 A 
ATOM     11  C   UNL d   1     -50.445  23.191  33.340  0.00  0.00     0.021 A 
ENDROOT
BRANCH   3  12
ATOM     12  O   UNL d   1     -50.874  26.156  33.309  0.00  0.00    -0.257 OA
BRANCH  12  13
ATOM     13  C   UNL d   1     -51.159  26.912  33.521  0.00  0.00     0.378 C 
ATOM     14  N   UNL d   1     -50.659  27.558  33.539  0.00  0.00    -0.249 N 
ATOM     15  C   UNL d   1     -50.945  28.303  33.748  0.00  0.00     0.104 C 
ATOM     16  C   UNL d   1     -49.861  27.467  33.346  0.00  0.00     0.104 C 
ATOM     17  O   UNL d   1     -51.968  27.005  33.716  0.00  0.00    -0.237 OA
ENDBRANCH  12  13
ENDBRANCH   3  12
TORSDOF 2
ENDMDL
