MODEL 1
REMARK VINA RESULT:     101.8      0.000      0.000
REMARK  6 active torsions:
REMARK  status: ('A' for Active; 'I' for Inactive)
REMARK    1  A    between atoms: C_10  and  N_3 
REMARK    2  A    between atoms: C_12  and  C_6 
REMARK    3  A    between atoms: C_20  and  C_10 
REMARK    4  A    between atoms: C_11  and  C_17 
REMARK    5  A    between atoms: O_27  and  C_11 
REMARK    6  A    between atoms: N_13  and  C_20 
ROOT
ATOM      1  C   UNL d   1      46.022 -17.498  42.861  0.00  0.00     0.083 A 
ATOM      2  C   UNL d   1      46.226 -17.852  43.589  0.00  0.00     0.161 A 
ATOM      3  N   UNL d   1      46.325 -18.777  42.623  0.00  0.00    -0.270 N 
ATOM      4  C   UNL d   1      46.412 -18.640  43.438  0.00  0.00     0.288 A 
ATOM      5  C   UNL d   1      45.806 -16.695  42.842  0.00  0.00     0.201 A 
ATOM      6  C   UNL d   1      46.085 -18.072  42.273  0.00  0.00     0.072 A 
ATOM      7  O   UNL d   1      46.213 -17.407  44.281  0.00  0.00    -0.302 OA
ATOM      8  C   UNL d   1      45.796 -16.258  43.543  0.00  0.00     0.063 A 
ATOM      9  C   UNL d   1      46.000 -16.611  44.267  0.00  0.00     0.103 A 
ATOM     10  O   UNL d   1      46.646 -19.202  43.999  0.00  0.00    -0.264 OA
ATOM     11  O   UNL d   1      45.604 -16.341  42.126  0.00  0.00    -0.286 OA
ATOM     12  C   UNL d   1      45.582 -15.462  43.520  0.00  0.00     0.017 A 
ATOM     13  C   UNL d   1      45.985 -16.161  44.953  0.00  0.00     0.026 A 
ATOM     14  C   UNL d   1      45.569 -15.019  44.211  0.00  0.00     0.058 A 
ATOM     15  C   UNL d   1      45.771 -15.369  44.928  0.00  0.00     0.013 A 
ATOM     16 CL   UNL d   1      45.355 -14.228  44.185  0.00  0.00    -0.082 Cl
ENDROOT
BRANCH   6  17
ATOM     17  C   UNL d   1      45.923 -17.917  41.478  0.00  0.00     0.016 A 
ATOM     18  C   UNL d   1      45.150 -17.976  41.190  0.00  0.00     0.002 A 
ATOM     19  C   UNL d   1      44.988 -17.821  40.395  0.00  0.00     0.005 A 
ATOM     20  C   UNL d   1      45.601 -17.605  39.881  0.00  0.00     0.063 A 
ATOM     21  C   UNL d   1      46.378 -17.547  40.174  0.00  0.00     0.005 A 
ATOM     22  C   UNL d   1      46.536 -17.702  40.967  0.00  0.00     0.002 A 
BRANCH  20  23
ATOM     23  C   UNL d   1      45.439 -17.450  39.087  0.00  0.00     0.296 C 
ATOM     24  O   UNL d   1      45.049 -18.012  38.632  0.00  0.00    -0.259 OA
BRANCH  23  25
ATOM     25  O   UNL d   1      45.670 -16.735  38.760  0.00  0.00    -0.296 OA
ATOM     26  C   UNL d   1      46.316 -16.693  38.249  0.00  0.00     0.185 C 
ENDBRANCH  23  25
ENDBRANCH  20  23
ENDBRANCH   6  17
BRANCH   3  27
ATOM     27  C   UNL d   1      46.456 -19.492  42.238  0.00  0.00     0.102 C 
BRANCH  27  28
ATOM     28  C   UNL d   1      46.190 -20.200  42.566  0.00  0.00     0.100 C 
BRANCH  28  29
ATOM     29  N   UNL d   1      45.997 -20.244  43.365  0.00  0.00    -0.298 N 
ATOM     30  C   UNL d   1      46.594 -20.275  43.923  0.00  0.00     0.107 A 
ATOM     31  C   UNL d   1      46.401 -20.319  44.721  0.00  0.00     0.142 A 
ATOM     32  O   UNL d   1      45.614 -20.330  44.954  0.00  0.00    -0.300 OA
ATOM     33  C   UNL d   1      45.020 -20.298  44.389  0.00  0.00     0.142 A 
ATOM     34  C   UNL d   1      45.212 -20.255  43.591  0.00  0.00     0.107 A 
ENDBRANCH  28  29
ENDBRANCH  27  28
ENDBRANCH   3  27
TORSDOF 6
ENDMDL
MODEL 2
REMARK VINA RESULT:     104.5      3.740      6.452
REMARK  6 active torsions:
REMARK  status: ('A' for Active; 'I' for Inactive)
REMARK    1  A    between atoms: C_10  and  N_3 
REMARK    2  A    between atoms: C_12  and  C_6 
REMARK    3  A    between atoms: C_20  and  C_10 
REMARK    4  A    between atoms: C_11  and  C_17 
REMARK    5  A    between atoms: O_27  and  C_11 
REMARK    6  A    between atoms: N_13  and  C_20 
ROOT
ATOM      1  C   UNL d   1      44.682 -16.686  38.235  0.00  0.00     0.083 A 
ATOM      2  C   UNL d   1      45.510 -16.789  38.276  0.00  0.00     0.161 A 
ATOM      3  N   UNL d   1      45.222 -16.105  37.160  0.00  0.00    -0.270 N 
ATOM      4  C   UNL d   1      45.838 -16.429  37.611  0.00  0.00     0.288 A 
ATOM      5  C   UNL d   1      44.200 -16.995  38.838  0.00  0.00     0.201 A 
ATOM      6  C   UNL d   1      44.513 -16.265  37.547  0.00  0.00     0.072 A 
ATOM      7  O   UNL d   1      45.843 -17.194  38.911  0.00  0.00    -0.302 OA
ATOM      8  C   UNL d   1      44.545 -17.400  39.470  0.00  0.00     0.063 A 
ATOM      9  C   UNL d   1      45.369 -17.502  39.511  0.00  0.00     0.103 A 
ATOM     10  O   UNL d   1      46.644 -16.396  37.424  0.00  0.00    -0.264 OA
ATOM     11  O   UNL d   1      43.384 -16.895  38.802  0.00  0.00    -0.286 OA
ATOM     12  C   UNL d   1      44.064 -17.704  40.067  0.00  0.00     0.017 A 
ATOM     13  C   UNL d   1      45.694 -17.907  40.146  0.00  0.00     0.026 A 
ATOM     14  C   UNL d   1      44.397 -18.108  40.698  0.00  0.00     0.058 A 
ATOM     15  C   UNL d   1      45.213 -18.209  40.738  0.00  0.00     0.013 A 
ATOM     16 CL   UNL d   1      43.916 -18.410  41.290  0.00  0.00    -0.082 Cl
ENDROOT
BRANCH   6  17
ATOM     17  C   UNL d   1      43.744 -16.061  37.325  0.00  0.00     0.016 A 
ATOM     18  C   UNL d   1      43.481 -16.202  36.553  0.00  0.00     0.002 A 
ATOM     19  C   UNL d   1      42.712 -15.998  36.332  0.00  0.00     0.005 A 
ATOM     20  C   UNL d   1      42.199 -15.651  36.882  0.00  0.00     0.063 A 
ATOM     21  C   UNL d   1      42.467 -15.511  37.658  0.00  0.00     0.005 A 
ATOM     22  C   UNL d   1      43.235 -15.716  37.876  0.00  0.00     0.002 A 
BRANCH  20  23
ATOM     23  C   UNL d   1      41.431 -15.448  36.661  0.00  0.00     0.296 C 
ATOM     24  O   UNL d   1      40.877 -16.037  36.517  0.00  0.00    -0.259 OA
BRANCH  23  25
ATOM     25  O   UNL d   1      41.228 -14.657  36.587  0.00  0.00    -0.296 OA
ATOM     26  C   UNL d   1      40.437 -14.422  36.583  0.00  0.00     0.185 C 
ENDBRANCH  23  25
ENDBRANCH  20  23
ENDBRANCH   6  17
BRANCH   3  27
ATOM     27  C   UNL d   1      45.307 -15.696  36.451  0.00  0.00     0.102 C 
BRANCH  27  28
ATOM     28  C   UNL d   1      45.950 -15.193  36.333  0.00  0.00     0.100 C 
BRANCH  28  29
ATOM     29  N   UNL d   1      45.942 -14.427  36.634  0.00  0.00    -0.298 N 
ATOM     30  C   UNL d   1      45.230 -14.081  36.837  0.00  0.00     0.107 A 
ATOM     31  C   UNL d   1      45.222 -13.316  37.138  0.00  0.00     0.142 A 
ATOM     32  O   UNL d   1      45.926 -12.903  37.233  0.00  0.00    -0.300 OA
ATOM     33  C   UNL d   1      46.637 -13.258  37.027  0.00  0.00     0.142 A 
ATOM     34  C   UNL d   1      46.645 -14.022  36.726  0.00  0.00     0.107 A 
ENDBRANCH  28  29
ENDBRANCH  27  28
ENDBRANCH   3  27
TORSDOF 6
ENDMDL
