MODEL 1
REMARK VINA RESULT:      -9.1      0.000      0.000
REMARK  4 active torsions:
REMARK  status: ('A' for Active; 'I' for Inactive)
REMARK    1  A    between atoms: C_7  and  C_1 
REMARK    2  A    between atoms: N_4  and  C_9 
REMARK    3  A    between atoms: O_17  and  C_7 
REMARK    4  A    between atoms: C_18  and  O_17 
ROOT
ATOM      1  C   UNL d   1      53.378  31.236  53.502  0.00  0.00     0.127 A 
ATOM      2  C   UNL d   1      52.911  31.495  52.898  0.00  0.00     0.305 A 
ATOM      3  C   UNL d   1      53.674  31.770  54.060  0.00  0.00     0.013 A 
ATOM      4  O   UNL d   1      52.724  32.298  52.830  0.00  0.00    -0.273 OA
ATOM      5  C   UNL d   1      53.485  32.550  53.984  0.00  0.00     0.025 A 
ATOM      6  C   UNL d   1      53.018  32.810  53.380  0.00  0.00     0.103 A 
ATOM      7  C   UNL d   1      53.593  33.884  54.472  0.00  0.00     0.127 A 
ATOM      8  C   UNL d   1      53.781  33.083  54.541  0.00  0.00     0.025 A 
ATOM      9  O   UNL d   1      52.615  30.964  52.341  0.00  0.00    -0.259 OA
ATOM     10  C   UNL d   1      52.830  33.611  53.311  0.00  0.00     0.026 A 
ATOM     11  C   UNL d   1      53.127  34.143  53.868  0.00  0.00     0.026 A 
ENDROOT
BRANCH   1  12
ATOM     12  C   UNL d   1      53.566  30.436  53.572  0.00  0.00     0.305 C 
ATOM     13  O   UNL d   1      54.081  30.077  53.031  0.00  0.00    -0.259 OA
BRANCH  12  14
ATOM     14  O   UNL d   1      53.237  29.997  54.182  0.00  0.00    -0.271 OA
BRANCH  14  15
ATOM     15  C   UNL d   1      53.437  29.214  54.272  0.00  0.00     0.126 C 
ATOM     16  C   UNL d   1      53.253  28.825  54.957  0.00  0.00     0.029 C 
ENDBRANCH  14  15
ENDBRANCH  12  14
ENDBRANCH   1  12
BRANCH   7  17
ATOM     17  N   UNL d   1      53.873  34.429  55.009  0.00  0.00    -0.114 N 
ATOM     18  O   UNL d   1      54.669  34.459  55.161  0.00  0.00    -0.532 OA
ATOM     19  O   UNL d   1      53.349  34.921  55.372  0.00  0.00    -0.532 OA
ENDBRANCH   7  17
TORSDOF 4
ENDMDL
MODEL 2
REMARK VINA RESULT:      -8.6      1.706      2.441
REMARK  4 active torsions:
REMARK  status: ('A' for Active; 'I' for Inactive)
REMARK    1  A    between atoms: C_7  and  C_1 
REMARK    2  A    between atoms: N_4  and  C_9 
REMARK    3  A    between atoms: O_17  and  C_7 
REMARK    4  A    between atoms: C_18  and  O_17 
ROOT
ATOM      1  C   UNL d   1      53.442  32.234  53.595  0.00  0.00     0.127 A 
ATOM      2  C   UNL d   1      53.782  32.803  54.053  0.00  0.00     0.305 A 
ATOM      3  C   UNL d   1      52.768  32.406  53.147  0.00  0.00     0.013 A 
ATOM      4  O   UNL d   1      53.462  33.565  54.080  0.00  0.00    -0.273 OA
ATOM      5  C   UNL d   1      52.464  33.153  53.181  0.00  0.00     0.025 A 
ATOM      6  C   UNL d   1      52.805  33.722  53.639  0.00  0.00     0.103 A 
ATOM      7  C   UNL d   1      51.472  34.085  52.761  0.00  0.00     0.127 A 
ATOM      8  C   UNL d   1      51.791  33.324  52.733  0.00  0.00     0.025 A 
ATOM      9  O   UNL d   1      54.454  32.633  54.500  0.00  0.00    -0.259 OA
ATOM     10  C   UNL d   1      52.485  34.483  53.667  0.00  0.00     0.026 A 
ATOM     11  C   UNL d   1      51.813  34.654  53.220  0.00  0.00     0.026 A 
ENDROOT
BRANCH   1  12
ATOM     12  C   UNL d   1      53.760  31.474  53.566  0.00  0.00     0.305 C 
ATOM     13  O   UNL d   1      54.505  31.343  53.230  0.00  0.00    -0.259 OA
BRANCH  12  14
ATOM     14  O   UNL d   1      53.331  30.847  53.876  0.00  0.00    -0.271 OA
BRANCH  14  15
ATOM     15  C   UNL d   1      53.533  30.083  53.682  0.00  0.00     0.126 C 
ATOM     16  C   UNL d   1      53.191  29.463  54.072  0.00  0.00     0.029 C 
ENDBRANCH  14  15
ENDBRANCH  12  14
ENDBRANCH   1  12
BRANCH   7  17
ATOM     17  N   UNL d   1      50.809  34.279  52.329  0.00  0.00    -0.114 N 
ATOM     18  O   UNL d   1      50.105  34.388  52.717  0.00  0.00    -0.532 OA
ATOM     19  O   UNL d   1      50.875  34.356  51.531  0.00  0.00    -0.532 OA
ENDBRANCH   7  17
TORSDOF 4
ENDMDL
MODEL 3
REMARK VINA RESULT:      -8.5      1.660      3.805
REMARK  4 active torsions:
REMARK  status: ('A' for Active; 'I' for Inactive)
REMARK    1  A    between atoms: C_7  and  C_1 
REMARK    2  A    between atoms: N_4  and  C_9 
REMARK    3  A    between atoms: O_17  and  C_7 
REMARK    4  A    between atoms: C_18  and  O_17 
ROOT
ATOM      1  C   UNL d   1      53.423  32.231  53.478  0.00  0.00     0.127 A 
ATOM      2  C   UNL d   1      52.959  32.116  52.829  0.00  0.00     0.305 A 
ATOM      3  C   UNL d   1      53.606  31.598  53.979  0.00  0.00     0.013 A 
ATOM      4  O   UNL d   1      52.660  31.364  52.657  0.00  0.00    -0.273 OA
ATOM      5  C   UNL d   1      53.309  30.869  53.801  0.00  0.00     0.025 A 
ATOM      6  C   UNL d   1      52.845  30.755  53.152  0.00  0.00     0.103 A 
ATOM      7  C   UNL d   1      53.193  29.488  54.128  0.00  0.00     0.127 A 
ATOM      8  C   UNL d   1      53.492  30.238  54.301  0.00  0.00     0.025 A 
ATOM      9  O   UNL d   1      52.776  32.746  52.329  0.00  0.00    -0.259 OA
ATOM     10  C   UNL d   1      52.546  30.005  52.979  0.00  0.00     0.026 A 
ATOM     11  C   UNL d   1      52.729  29.374  53.479  0.00  0.00     0.026 A 
ENDROOT
BRANCH   1  12
ATOM     12  C   UNL d   1      53.722  32.980  53.651  0.00  0.00     0.305 C 
ATOM     13  O   UNL d   1      54.426  33.242  53.303  0.00  0.00    -0.259 OA
BRANCH  12  14
ATOM     14  O   UNL d   1      53.314  33.464  54.173  0.00  0.00    -0.271 OA
BRANCH  14  15
ATOM     15  C   UNL d   1      53.681  34.117  54.492  0.00  0.00     0.126 C 
ATOM     16  C   UNL d   1      53.262  34.632  54.952  0.00  0.00     0.029 C 
ENDBRANCH  14  15
ENDBRANCH  12  14
ENDBRANCH   1  12
BRANCH   7  17
ATOM     17  N   UNL d   1      53.359  28.849  54.605  0.00  0.00    -0.114 N 
ATOM     18  O   UNL d   1      53.031  28.816  55.346  0.00  0.00    -0.532 OA
ATOM     19  O   UNL d   1      53.844  28.271  54.326  0.00  0.00    -0.532 OA
ENDBRANCH   7  17
TORSDOF 4
ENDMDL
MODEL 4
REMARK VINA RESULT:      -8.5      1.911      4.012
REMARK  4 active torsions:
REMARK  status: ('A' for Active; 'I' for Inactive)
REMARK    1  A    between atoms: C_7  and  C_1 
REMARK    2  A    between atoms: N_4  and  C_9 
REMARK    3  A    between atoms: O_17  and  C_7 
REMARK    4  A    between atoms: C_18  and  O_17 
ROOT
ATOM      1  C   UNL d   1      52.128  33.669  52.834  0.00  0.00     0.127 A 
ATOM      2  C   UNL d   1      52.759  34.030  53.181  0.00  0.00     0.305 A 
ATOM      3  C   UNL d   1      52.084  32.843  52.802  0.00  0.00     0.013 A 
ATOM      4  O   UNL d   1      53.371  33.579  53.508  0.00  0.00    -0.273 OA
ATOM      5  C   UNL d   1      52.686  32.414  53.124  0.00  0.00     0.025 A 
ATOM      6  C   UNL d   1      53.318  32.775  53.470  0.00  0.00     0.103 A 
ATOM      7  C   UNL d   1      53.253  31.141  53.417  0.00  0.00     0.127 A 
ATOM      8  C   UNL d   1      52.642  31.590  53.091  0.00  0.00     0.025 A 
ATOM      9  O   UNL d   1      52.804  34.853  53.214  0.00  0.00    -0.259 OA
ATOM     10  C   UNL d   1      53.929  32.325  53.797  0.00  0.00     0.026 A 
ATOM     11  C   UNL d   1      53.884  31.502  53.764  0.00  0.00     0.026 A 
ENDROOT
BRANCH   1  12
ATOM     12  C   UNL d   1      51.517  34.117  52.508  0.00  0.00     0.305 C 
ATOM     13  O   UNL d   1      51.584  34.422  51.741  0.00  0.00    -0.259 OA
BRANCH  12  14
ATOM     14  O   UNL d   1      50.841  34.258  52.951  0.00  0.00    -0.271 OA
BRANCH  14  15
ATOM     15  C   UNL d   1      50.158  34.501  52.582  0.00  0.00     0.126 C 
ATOM     16  C   UNL d   1      49.547  34.801  53.018  0.00  0.00     0.029 C 
ENDBRANCH  14  15
ENDBRANCH  12  14
ENDBRANCH   1  12
BRANCH   7  17
ATOM     17  N   UNL d   1      53.233  30.326  53.397  0.00  0.00    -0.114 N 
ATOM     18  O   UNL d   1      53.342  29.913  54.087  0.00  0.00    -0.532 OA
ATOM     19  O   UNL d   1      53.105  29.958  52.693  0.00  0.00    -0.532 OA
ENDBRANCH   7  17
TORSDOF 4
ENDMDL
MODEL 5
REMARK VINA RESULT:      -8.3      1.653      3.108
REMARK  4 active torsions:
REMARK  status: ('A' for Active; 'I' for Inactive)
REMARK    1  A    between atoms: C_7  and  C_1 
REMARK    2  A    between atoms: N_4  and  C_9 
REMARK    3  A    between atoms: O_17  and  C_7 
REMARK    4  A    between atoms: C_18  and  O_17 
ROOT
ATOM      1  C   UNL d   1      52.261  33.414  52.989  0.00  0.00     0.127 A 
ATOM      2  C   UNL d   1      52.371  32.620  52.901  0.00  0.00     0.305 A 
ATOM      3  C   UNL d   1      52.751  33.851  53.491  0.00  0.00     0.013 A 
ATOM      4  O   UNL d   1      52.976  32.234  53.313  0.00  0.00    -0.273 OA
ATOM      5  C   UNL d   1      53.338  33.464  53.887  0.00  0.00     0.025 A 
ATOM      6  C   UNL d   1      53.449  32.671  53.800  0.00  0.00     0.103 A 
ATOM      7  C   UNL d   1      54.431  33.516  54.798  0.00  0.00     0.127 A 
ATOM      8  C   UNL d   1      53.828  33.901  54.388  0.00  0.00     0.025 A 
ATOM      9  O   UNL d   1      51.882  32.183  52.401  0.00  0.00    -0.259 OA
ATOM     10  C   UNL d   1      54.052  32.285  54.210  0.00  0.00     0.026 A 
ATOM     11  C   UNL d   1      54.542  32.722  54.711  0.00  0.00     0.026 A 
ENDROOT
BRANCH   1  12
ATOM     12  C   UNL d   1      51.658  33.800  52.579  0.00  0.00     0.305 C 
ATOM     13  O   UNL d   1      51.746  33.982  51.776  0.00  0.00    -0.259 OA
BRANCH  12  14
ATOM     14  O   UNL d   1      50.968  34.002  52.975  0.00  0.00    -0.271 OA
BRANCH  14  15
ATOM     15  C   UNL d   1      50.398  34.441  52.598  0.00  0.00     0.126 C 
ATOM     16  C   UNL d   1      49.754  34.708  53.008  0.00  0.00     0.029 C 
ENDBRANCH  14  15
ENDBRANCH  12  14
ENDBRANCH   1  12
BRANCH   7  17
ATOM     17  N   UNL d   1      54.928  33.924  55.299  0.00  0.00    -0.114 N 
ATOM     18  O   UNL d   1      55.674  34.115  55.044  0.00  0.00    -0.532 OA
ATOM     19  O   UNL d   1      54.661  34.126  56.031  0.00  0.00    -0.532 OA
ENDBRANCH   7  17
TORSDOF 4
ENDMDL
MODEL 6
REMARK VINA RESULT:      -7.5      1.971      3.087
REMARK  4 active torsions:
REMARK  status: ('A' for Active; 'I' for Inactive)
REMARK    1  A    between atoms: C_7  and  C_1 
REMARK    2  A    between atoms: N_4  and  C_9 
REMARK    3  A    between atoms: O_17  and  C_7 
REMARK    4  A    between atoms: C_18  and  O_17 
ROOT
ATOM      1  C   UNL d   1      53.542  32.825  53.617  0.00  0.00     0.127 A 
ATOM      2  C   UNL d   1      53.260  32.076  53.520  0.00  0.00     0.305 A 
ATOM      3  C   UNL d   1      53.046  33.477  53.500  0.00  0.00     0.013 A 
ATOM      4  O   UNL d   1      52.471  31.951  53.303  0.00  0.00    -0.273 OA
ATOM      5  C   UNL d   1      52.279  33.343  53.289  0.00  0.00     0.025 A 
ATOM      6  C   UNL d   1      51.997  32.594  53.192  0.00  0.00     0.103 A 
ATOM      7  C   UNL d   1      50.998  33.868  52.956  0.00  0.00     0.127 A 
ATOM      8  C   UNL d   1      51.784  33.994  53.173  0.00  0.00     0.025 A 
ATOM      9  O   UNL d   1      53.753  31.425  53.636  0.00  0.00    -0.259 OA
ATOM     10  C   UNL d   1      51.210  32.468  52.975  0.00  0.00     0.026 A 
ATOM     11  C   UNL d   1      50.716  33.119  52.859  0.00  0.00     0.026 A 
ENDROOT
BRANCH   1  12
ATOM     12  C   UNL d   1      54.328  32.951  53.833  0.00  0.00     0.305 C 
ATOM     13  O   UNL d   1      54.937  32.838  53.285  0.00  0.00    -0.259 OA
BRANCH  12  14
ATOM     14  O   UNL d   1      54.500  33.190  54.599  0.00  0.00    -0.271 OA
BRANCH  14  15
ATOM     15  C   UNL d   1      55.203  33.567  54.757  0.00  0.00     0.126 C 
ATOM     16  C   UNL d   1      55.322  33.917  55.476  0.00  0.00     0.029 C 
ENDBRANCH  14  15
ENDBRANCH  12  14
ENDBRANCH   1  12
BRANCH   7  17
ATOM     17  N   UNL d   1      50.490  34.494  52.836  0.00  0.00    -0.114 N 
ATOM     18  O   UNL d   1      50.053  34.520  52.153  0.00  0.00    -0.532 OA
ATOM     19  O   UNL d   1      50.438  35.066  53.399  0.00  0.00    -0.532 OA
ENDBRANCH   7  17
TORSDOF 4
ENDMDL
