MODEL 1
REMARK VINA RESULT:      -7.6      0.000      0.000
REMARK  4 active torsions:
REMARK  status: ('A' for Active; 'I' for Inactive)
REMARK    1  A    between atoms: C_3  and  N_1 
REMARK    2  A    between atoms: C_6  and  C_3 
REMARK    3  A    between atoms: C_9  and  C_3 
REMARK    4  A    between atoms: N_5  and  C_6 
ROOT
ATOM      1  C   UNL d   1     -48.553  13.132  22.608  0.00  0.00     0.106 C 
ENDROOT
BRANCH   1   2
ATOM      2  N   UNL d   1     -47.739  13.062  22.731  0.00  0.00    -0.228 N 
ATOM      3  N   UNL d   1     -47.093  13.477  22.412  0.00  0.00    -0.165 NA
ATOM      4  C   UNL d   1     -46.410  13.155  22.748  0.00  0.00     0.103 A 
ATOM      5  C   UNL d   1     -45.629  13.410  22.582  0.00  0.00     0.022 C 
ATOM      6  C   UNL d   1     -46.618  12.565  23.256  0.00  0.00     0.040 A 
ATOM      7  C   UNL d   1     -47.440  12.502  23.250  0.00  0.00     0.085 A 
ATOM      8  C   UNL d   1     -47.902  11.960  23.696  0.00  0.00     0.021 C 
ENDBRANCH   1   2
BRANCH   1   9
ATOM      9  C   UNL d   1     -48.963  12.509  22.264  0.00  0.00     0.167 C 
BRANCH   9  10
ATOM     10  N   UNL d   1     -49.225  12.545  21.481  0.00  0.00    -0.111 N 
ATOM     11  O   UNL d   1     -48.680  12.567  20.858  0.00  0.00    -0.532 OA
ATOM     12  O   UNL d   1     -50.036  12.560  21.327  0.00  0.00    -0.532 OA
ENDBRANCH   9  10
ENDBRANCH   1   9
BRANCH   1  13
ATOM     13  C   UNL d   1     -48.937  13.828  22.834  0.00  0.00     0.019 A 
ATOM     14  C   UNL d   1     -49.471  13.806  23.453  0.00  0.00     0.002 A 
ATOM     15  C   UNL d   1     -49.870  14.494  23.698  0.00  0.00     0.011 A 
ATOM     16  C   UNL d   1     -49.701  15.214  23.284  0.00  0.00     0.058 A 
ATOM     17  C   UNL d   1     -49.174  15.220  22.679  0.00  0.00     0.011 A 
ATOM     18 CL   UNL d   1     -50.073  15.919  23.494  0.00  0.00    -0.082 Cl
ATOM     19  C   UNL d   1     -48.793  14.539  22.451  0.00  0.00     0.002 A 
ENDBRANCH   1  13
TORSDOF 4
ENDMDL
MODEL 2
REMARK VINA RESULT:      -7.3      1.782      3.143
REMARK  4 active torsions:
REMARK  status: ('A' for Active; 'I' for Inactive)
REMARK    1  A    between atoms: C_3  and  N_1 
REMARK    2  A    between atoms: C_6  and  C_3 
REMARK    3  A    between atoms: C_9  and  C_3 
REMARK    4  A    between atoms: N_5  and  C_6 
ROOT
ATOM      1  C   UNL d   1     -48.755  13.152  22.530  0.00  0.00     0.106 C 
ENDROOT
BRANCH   1   2
ATOM      2  N   UNL d   1     -49.203  13.829  22.677  0.00  0.00    -0.228 N 
ATOM      3  N   UNL d   1     -49.245  14.335  23.335  0.00  0.00    -0.165 NA
ATOM      4  C   UNL d   1     -49.798  14.922  23.155  0.00  0.00     0.103 A 
ATOM      5  C   UNL d   1     -50.014  15.550  23.666  0.00  0.00     0.022 C 
ATOM      6  C   UNL d   1     -50.091  14.792  22.415  0.00  0.00     0.040 A 
ATOM      7  C   UNL d   1     -49.727  14.116  22.113  0.00  0.00     0.085 A 
ATOM      8  C   UNL d   1     -49.861  13.772  21.359  0.00  0.00     0.021 C 
ENDBRANCH   1   2
BRANCH   1   9
ATOM      9  C   UNL d   1     -49.136  12.438  22.394  0.00  0.00     0.167 C 
BRANCH   9  10
ATOM     10  N   UNL d   1     -49.151  11.842  22.967  0.00  0.00    -0.111 N 
ATOM     11  O   UNL d   1     -49.520  11.971  23.697  0.00  0.00    -0.532 OA
ATOM     12  O   UNL d   1     -48.794  11.115  22.803  0.00  0.00    -0.532 OA
ENDBRANCH   9  10
ENDBRANCH   1   9
BRANCH   1  13
ATOM     13  C   UNL d   1     -47.930  13.208  22.522  0.00  0.00     0.019 A 
ATOM     14  C   UNL d   1     -47.533  13.158  21.808  0.00  0.00     0.002 A 
ATOM     15  C   UNL d   1     -46.704  13.212  21.776  0.00  0.00     0.011 A 
ATOM     16  C   UNL d   1     -46.289  13.321  22.507  0.00  0.00     0.058 A 
ATOM     17  C   UNL d   1     -46.692  13.368  23.199  0.00  0.00     0.011 A 
ATOM     18 CL   UNL d   1     -45.466  13.379  22.521  0.00  0.00    -0.082 Cl
ATOM     19  C   UNL d   1     -47.503  13.313  23.214  0.00  0.00     0.002 A 
ENDBRANCH   1  13
TORSDOF 4
ENDMDL
MODEL 3
REMARK VINA RESULT:      -7.2      2.042      3.281
REMARK  4 active torsions:
REMARK  status: ('A' for Active; 'I' for Inactive)
REMARK    1  A    between atoms: C_3  and  N_1 
REMARK    2  A    between atoms: C_6  and  C_3 
REMARK    3  A    between atoms: C_9  and  C_3 
REMARK    4  A    between atoms: N_5  and  C_6 
ROOT
ATOM      1  C   UNL d   1     -48.611  13.626  22.395  0.00  0.00     0.106 C 
ENDROOT
BRANCH   1   2
ATOM      2  N   UNL d   1     -49.174  13.050  22.578  0.00  0.00    -0.228 N 
ATOM      3  N   UNL d   1     -49.386  12.691  23.297  0.00  0.00    -0.165 NA
ATOM      4  C   UNL d   1     -49.991  12.153  23.130  0.00  0.00     0.103 A 
ATOM      5  C   UNL d   1     -50.370  11.668  23.698  0.00  0.00     0.022 C 
ATOM      6  C   UNL d   1     -50.152  12.174  22.341  0.00  0.00     0.040 A 
ATOM      7  C   UNL d   1     -49.650  12.728  21.992  0.00  0.00     0.085 A 
ATOM      8  C   UNL d   1     -49.622  12.933  21.179  0.00  0.00     0.021 C 
ENDBRANCH   1   2
BRANCH   1   9
ATOM      9  C   UNL d   1     -48.858  14.359  22.120  0.00  0.00     0.167 C 
BRANCH   9  10
ATOM     10  N   UNL d   1     -48.822  15.033  22.599  0.00  0.00    -0.111 N 
ATOM     11  O   UNL d   1     -49.218  15.052  23.326  0.00  0.00    -0.532 OA
ATOM     12  O   UNL d   1     -48.388  15.686  22.341  0.00  0.00    -0.532 OA
ENDBRANCH   9  10
ENDBRANCH   1   9
BRANCH   1  13
ATOM     13  C   UNL d   1     -47.809  13.450  22.492  0.00  0.00     0.019 A 
ATOM     14  C   UNL d   1     -47.351  13.297  21.831  0.00  0.00     0.002 A 
ATOM     15  C   UNL d   1     -46.542  13.118  21.904  0.00  0.00     0.011 A 
ATOM     16  C   UNL d   1     -46.213  13.100  22.684  0.00  0.00     0.058 A 
ATOM     17  C   UNL d   1     -46.674  13.253  23.323  0.00  0.00     0.011 A 
ATOM     18 CL   UNL d   1     -45.415  12.927  22.803  0.00  0.00    -0.082 Cl
ATOM     19  C   UNL d   1     -47.463  13.426  23.235  0.00  0.00     0.002 A 
ENDBRANCH   1  13
TORSDOF 4
ENDMDL
MODEL 4
REMARK VINA RESULT:      -5.9      1.568      2.233
REMARK  4 active torsions:
REMARK  status: ('A' for Active; 'I' for Inactive)
REMARK    1  A    between atoms: C_3  and  N_1 
REMARK    2  A    between atoms: C_6  and  C_3 
REMARK    3  A    between atoms: C_9  and  C_3 
REMARK    4  A    between atoms: N_5  and  C_6 
ROOT
ATOM      1  C   UNL d   1     -48.045  13.631  22.393  0.00  0.00     0.106 C 
ENDROOT
BRANCH   1   2
ATOM      2  N   UNL d   1     -48.206  12.842  22.575  0.00  0.00    -0.228 N 
ATOM      3  N   UNL d   1     -48.244  12.436  23.299  0.00  0.00    -0.165 NA
ATOM      4  C   UNL d   1     -48.429  11.649  23.127  0.00  0.00     0.103 A 
ATOM      5  C   UNL d   1     -48.522  11.043  23.698  0.00  0.00     0.022 C 
ATOM      6  C   UNL d   1     -48.504  11.564  22.329  0.00  0.00     0.040 A 
ATOM      7  C   UNL d   1     -48.366  12.299  21.980  0.00  0.00     0.085 A 
ATOM      8  C   UNL d   1     -48.385  12.473  21.159  0.00  0.00     0.021 C 
ENDBRANCH   1   2
BRANCH   1   9
ATOM      9  C   UNL d   1     -47.322  13.828  22.057  0.00  0.00     0.167 C 
BRANCH   9  10
ATOM     10  N   UNL d   1     -46.645  13.929  22.521  0.00  0.00    -0.111 N 
ATOM     11  O   UNL d   1     -46.652  14.447  23.166  0.00  0.00    -0.532 OA
ATOM     12  O   UNL d   1     -45.961  13.506  22.331  0.00  0.00    -0.532 OA
ENDBRANCH   9  10
ENDBRANCH   1   9
BRANCH   1  13
ATOM     13  C   UNL d   1     -48.617  14.206  22.553  0.00  0.00     0.019 A 
ATOM     14  C   UNL d   1     -49.019  14.553  21.931  0.00  0.00     0.002 A 
ATOM     15  C   UNL d   1     -49.598  15.134  22.068  0.00  0.00     0.011 A 
ATOM     16  C   UNL d   1     -49.755  15.350  22.872  0.00  0.00     0.058 A 
ATOM     17  C   UNL d   1     -49.353  15.001  23.472  0.00  0.00     0.011 A 
ATOM     18 CL   UNL d   1     -50.322  15.922  23.053  0.00  0.00    -0.082 Cl
ATOM     19  C   UNL d   1     -48.789  14.435  23.322  0.00  0.00     0.002 A 
ENDBRANCH   1  13
TORSDOF 4
ENDMDL
MODEL 5
REMARK VINA RESULT:      -5.7      8.564      9.838
REMARK  4 active torsions:
REMARK  status: ('A' for Active; 'I' for Inactive)
REMARK    1  A    between atoms: C_3  and  N_1 
REMARK    2  A    between atoms: C_6  and  C_3 
REMARK    3  A    between atoms: C_9  and  C_3 
REMARK    4  A    between atoms: N_5  and  C_6 
ROOT
ATOM      1  C   UNL d   1     -39.978  14.987  17.928  0.00  0.00     0.106 C 
ENDROOT
BRANCH   1   2
ATOM      2  N   UNL d   1     -39.413  14.426  17.708  0.00  0.00    -0.228 N 
ATOM      3  N   UNL d   1     -39.428  13.595  17.706  0.00  0.00    -0.165 NA
ATOM      4  C   UNL d   1     -38.694  13.340  17.425  0.00  0.00     0.103 A 
ATOM      5  C   UNL d   1     -38.469  12.538  17.332  0.00  0.00     0.022 C 
ATOM      6  C   UNL d   1     -38.237  13.983  17.259  0.00  0.00     0.040 A 
ATOM      7  C   UNL d   1     -38.676  14.659  17.432  0.00  0.00     0.085 A 
ATOM      8  C   UNL d   1     -38.422  15.454  17.344  0.00  0.00     0.021 C 
ENDBRANCH   1   2
BRANCH   1   9
ATOM      9  C   UNL d   1     -40.289  15.490  17.359  0.00  0.00     0.167 C 
BRANCH   9  10
ATOM     10  N   UNL d   1     -41.047  15.374  17.049  0.00  0.00    -0.111 N 
ATOM     11  O   UNL d   1     -41.209  14.717  16.572  0.00  0.00    -0.532 OA
ATOM     12  O   UNL d   1     -41.640  15.922  17.222  0.00  0.00    -0.532 OA
ENDBRANCH   9  10
ENDBRANCH   1   9
BRANCH   1  13
ATOM     13  C   UNL d   1     -40.217  15.030  18.718  0.00  0.00     0.019 A 
ATOM     14  C   UNL d   1     -40.010  15.684  19.163  0.00  0.00     0.002 A 
ATOM     15  C   UNL d   1     -40.240  15.749  19.960  0.00  0.00     0.011 A 
ATOM     16  C   UNL d   1     -40.694  15.115  20.290  0.00  0.00     0.058 A 
ATOM     17  C   UNL d   1     -40.890  14.479  19.841  0.00  0.00     0.011 A 
ATOM     18 CL   UNL d   1     -40.943  15.138  21.076  0.00  0.00    -0.082 Cl
ATOM     19  C   UNL d   1     -40.658  14.431  19.064  0.00  0.00     0.002 A 
ENDBRANCH   1  13
TORSDOF 4
ENDMDL
MODEL 6
REMARK VINA RESULT:      -5.2      9.026     10.125
REMARK  4 active torsions:
REMARK  status: ('A' for Active; 'I' for Inactive)
REMARK    1  A    between atoms: C_3  and  N_1 
REMARK    2  A    between atoms: C_6  and  C_3 
REMARK    3  A    between atoms: C_9  and  C_3 
REMARK    4  A    between atoms: N_5  and  C_6 
ROOT
ATOM      1  C   UNL d   1     -39.235  14.466  18.363  0.00  0.00     0.106 C 
ENDROOT
BRANCH   1   2
ATOM      2  N   UNL d   1     -39.292  14.522  19.185  0.00  0.00    -0.228 N 
ATOM      3  N   UNL d   1     -39.866  14.249  19.722  0.00  0.00    -0.165 NA
ATOM      4  C   UNL d   1     -39.617  14.473  20.477  0.00  0.00     0.103 A 
ATOM      5  C   UNL d   1     -40.033  14.310  21.186  0.00  0.00     0.022 C 
ATOM      6  C   UNL d   1     -38.918  14.870  20.419  0.00  0.00     0.040 A 
ATOM      7  C   UNL d   1     -38.710  14.904  19.621  0.00  0.00     0.085 A 
ATOM      8  C   UNL d   1     -38.024  15.264  19.300  0.00  0.00     0.021 C 
ENDBRANCH   1   2
BRANCH   1   9
ATOM      9  C   UNL d   1     -38.612  14.048  18.030  0.00  0.00     0.167 C 
BRANCH   9  10
ATOM     10  N   UNL d   1     -38.734  13.327  17.644  0.00  0.00    -0.111 N 
ATOM     11  O   UNL d   1     -39.080  12.690  18.044  0.00  0.00    -0.532 OA
ATOM     12  O   UNL d   1     -38.507  13.251  16.853  0.00  0.00    -0.532 OA
ENDBRANCH   9  10
ENDBRANCH   1   9
BRANCH   1  13
ATOM     13  C   UNL d   1     -39.807  14.833  17.894  0.00  0.00     0.019 A 
ATOM     14  C   UNL d   1     -39.622  15.533  17.513  0.00  0.00     0.002 A 
ATOM     15  C   UNL d   1     -40.182  15.921  17.035  0.00  0.00     0.011 A 
ATOM     16  C   UNL d   1     -40.947  15.565  16.959  0.00  0.00     0.058 A 
ATOM     17  C   UNL d   1     -41.114  14.878  17.339  0.00  0.00     0.011 A 
ATOM     18 CL   UNL d   1     -41.532  15.915  16.496  0.00  0.00    -0.082 Cl
ATOM     19  C   UNL d   1     -40.556  14.511  17.803  0.00  0.00     0.002 A 
ENDBRANCH   1  13
TORSDOF 4
ENDMDL
MODEL 7
REMARK VINA RESULT:      -5.1      8.615      9.481
REMARK  4 active torsions:
REMARK  status: ('A' for Active; 'I' for Inactive)
REMARK    1  A    between atoms: C_3  and  N_1 
REMARK    2  A    between atoms: C_6  and  C_3 
REMARK    3  A    between atoms: C_9  and  C_3 
REMARK    4  A    between atoms: N_5  and  C_6 
ROOT
ATOM      1  C   UNL d   1     -39.927  15.133  20.069  0.00  0.00     0.106 C 
ENDROOT
BRANCH   1   2
ATOM      2  N   UNL d   1     -39.261  14.707  20.308  0.00  0.00    -0.228 N 
ATOM      3  N   UNL d   1     -39.093  13.893  20.303  0.00  0.00    -0.165 NA
ATOM      4  C   UNL d   1     -38.332  13.801  20.612  0.00  0.00     0.103 A 
ATOM      5  C   UNL d   1     -37.940  13.067  20.708  0.00  0.00     0.022 C 
ATOM      6  C   UNL d   1     -38.035  14.526  20.803  0.00  0.00     0.040 A 
ATOM      7  C   UNL d   1     -38.606  15.092  20.617  0.00  0.00     0.085 A 
ATOM      8  C   UNL d   1     -38.537  15.922  20.723  0.00  0.00     0.021 C 
ENDBRANCH   1   2
BRANCH   1   9
ATOM      9  C   UNL d   1     -40.364  15.546  20.629  0.00  0.00     0.167 C 
BRANCH   9  10
ATOM     10  N   UNL d   1     -41.100  15.273  20.887  0.00  0.00    -0.111 N 
ATOM     11  O   UNL d   1     -41.203  14.479  21.098  0.00  0.00    -0.532 OA
ATOM     12  O   UNL d   1     -41.732  15.803  20.932  0.00  0.00    -0.532 OA
ENDBRANCH   9  10
ENDBRANCH   1   9
BRANCH   1  13
ATOM     13  C   UNL d   1     -40.139  15.136  19.270  0.00  0.00     0.019 A 
ATOM     14  C   UNL d   1     -40.047  15.822  18.835  0.00  0.00     0.002 A 
ATOM     15  C   UNL d   1     -40.254  15.848  18.029  0.00  0.00     0.011 A 
ATOM     16  C   UNL d   1     -40.561  15.140  17.680  0.00  0.00     0.058 A 
ATOM     17  C   UNL d   1     -40.646  14.475  18.120  0.00  0.00     0.011 A 
ATOM     18 CL   UNL d   1     -40.779  15.121  16.884  0.00  0.00    -0.082 Cl
ATOM     19  C   UNL d   1     -40.439  14.465  18.906  0.00  0.00     0.002 A 
ENDBRANCH   1  13
TORSDOF 4
ENDMDL
