MODEL 1
REMARK VINA RESULT:      -8.9      0.000      0.000
REMARK  2 active torsions:
REMARK  status: ('A' for Active; 'I' for Inactive)
REMARK    1  A    between atoms: C_4  and  C_1 
REMARK    2  A    between atoms: N_2  and  C_9 
REMARK       I    between atoms: N_7  and  C_4 
ROOT
ATOM      1  C   UNL d   1     -48.402  14.031  22.938  0.00  0.00     0.086 A 
ATOM      2  S   UNL d   1     -47.725  14.293  22.606  0.00  0.00    -0.082 SA
ATOM      3  C   UNL d   1     -48.294  13.304  23.287  0.00  0.00     0.012 A 
ATOM      4  C   UNL d   1     -47.502  13.092  23.169  0.00  0.00     0.008 A 
ATOM      5  C   UNL d   1     -47.149  13.707  22.747  0.00  0.00     0.030 A 
ATOM      6  C   UNL d   1     -46.258  12.385  23.181  0.00  0.00     0.127 A 
ATOM      7  C   UNL d   1     -47.059  12.444  23.381  0.00  0.00     0.024 A 
ATOM      8  C   UNL d   1     -46.353  13.672  22.536  0.00  0.00     0.008 A 
ATOM      9  C   UNL d   1     -45.905  13.000  22.758  0.00  0.00     0.024 A 
ENDROOT
BRANCH   1  10
ATOM     10  C   UNL d   1     -49.129  14.461  22.922  0.00  0.00     0.271 C 
ATOM     11  N   UNL d   1     -49.737  14.231  22.433  0.00  0.00    -0.272 N 
ATOM     12  C   UNL d   1     -49.644  13.572  21.947  0.00  0.00     0.083 A 
ATOM     13  C   UNL d   1     -50.456  14.657  22.418  0.00  0.00     0.083 A 
ATOM     14  C   UNL d   1     -50.251  13.329  21.447  0.00  0.00     0.019 A 
ATOM     15  C   UNL d   1     -50.963  13.746  21.430  0.00  0.00     0.003 A 
ATOM     16  C   UNL d   1     -51.064  14.410  21.915  0.00  0.00     0.019 A 
ATOM     17  O   UNL d   1     -49.208  15.120  23.415  0.00  0.00    -0.266 OA
ENDBRANCH   1  10
BRANCH   6  18
ATOM     18  N   UNL d   1     -45.808  11.713  23.403  0.00  0.00    -0.114 N 
ATOM     19  O   UNL d   1     -44.974  11.727  23.320  0.00  0.00    -0.532 OA
ATOM     20  O   UNL d   1     -46.182  11.046  23.698  0.00  0.00    -0.532 OA
ENDBRANCH   6  18
TORSDOF 2
ENDMDL
MODEL 2
REMARK VINA RESULT:      -8.0      1.293      4.199
REMARK  2 active torsions:
REMARK  status: ('A' for Active; 'I' for Inactive)
REMARK    1  A    between atoms: C_4  and  C_1 
REMARK    2  A    between atoms: N_2  and  C_9 
REMARK       I    between atoms: N_7  and  C_4 
ROOT
ATOM      1  C   UNL d   1     -47.288  13.627  22.527  0.00  0.00     0.086 A 
ATOM      2  S   UNL d   1     -47.478  14.292  22.924  0.00  0.00    -0.082 SA
ATOM      3  C   UNL d   1     -47.915  13.364  22.080  0.00  0.00     0.012 A 
ATOM      4  C   UNL d   1     -48.539  13.895  22.200  0.00  0.00     0.008 A 
ATOM      5  C   UNL d   1     -48.268  14.471  22.724  0.00  0.00     0.030 A 
ATOM      6  C   UNL d   1     -49.811  14.549  22.140  0.00  0.00     0.127 A 
ATOM      7  C   UNL d   1     -49.300  13.937  21.915  0.00  0.00     0.024 A 
ATOM      8  C   UNL d   1     -48.756  15.089  22.963  0.00  0.00     0.008 A 
ATOM      9  C   UNL d   1     -49.539  15.125  22.664  0.00  0.00     0.024 A 
ENDROOT
BRANCH   1  10
ATOM     10  C   UNL d   1     -46.532  13.252  22.573  0.00  0.00     0.271 C 
ATOM     11  N   UNL d   1     -46.447  12.532  22.942  0.00  0.00    -0.272 N 
ATOM     12  C   UNL d   1     -47.104  12.163  23.275  0.00  0.00     0.083 A 
ATOM     13  C   UNL d   1     -45.699  12.163  22.988  0.00  0.00     0.083 A 
ATOM     14  C   UNL d   1     -47.032  11.434  23.651  0.00  0.00     0.019 A 
ATOM     15  C   UNL d   1     -46.295  11.066  23.698  0.00  0.00     0.003 A 
ATOM     16  C   UNL d   1     -45.629  11.431  23.366  0.00  0.00     0.019 A 
ATOM     17  O   UNL d   1     -45.882  13.635  22.236  0.00  0.00    -0.266 OA
ENDBRANCH   1  10
BRANCH   6  18
ATOM     18  N   UNL d   1     -50.594  14.585  21.842  0.00  0.00    -0.114 N 
ATOM     19  O   UNL d   1     -50.892  13.950  21.383  0.00  0.00    -0.532 OA
ATOM     20  O   UNL d   1     -51.064  15.237  21.998  0.00  0.00    -0.532 OA
ENDBRANCH   6  18
TORSDOF 2
ENDMDL
MODEL 3
REMARK VINA RESULT:      -6.4      8.525      9.661
REMARK  2 active torsions:
REMARK  status: ('A' for Active; 'I' for Inactive)
REMARK    1  A    between atoms: C_4  and  C_1 
REMARK    2  A    between atoms: N_2  and  C_9 
REMARK       I    between atoms: N_7  and  C_4 
ROOT
ATOM      1  C   UNL d   1     -40.370  15.365  20.159  0.00  0.00     0.086 A 
ATOM      2  S   UNL d   1     -40.173  14.685  19.793  0.00  0.00    -0.082 SA
ATOM      3  C   UNL d   1     -40.640  15.917  19.624  0.00  0.00     0.012 A 
ATOM      4  C   UNL d   1     -40.611  15.565  18.875  0.00  0.00     0.008 A 
ATOM      5  C   UNL d   1     -40.322  14.800  18.980  0.00  0.00     0.030 A 
ATOM      6  C   UNL d   1     -40.714  15.334  17.467  0.00  0.00     0.127 A 
ATOM      7  C   UNL d   1     -40.803  15.824  18.129  0.00  0.00     0.024 A 
ATOM      8  C   UNL d   1     -40.223  14.293  18.338  0.00  0.00     0.008 A 
ATOM      9  C   UNL d   1     -40.424  14.568  17.572  0.00  0.00     0.024 A 
ENDROOT
BRANCH   1  10
ATOM     10  C   UNL d   1     -40.304  15.486  20.993  0.00  0.00     0.271 C 
ATOM     11  N   UNL d   1     -39.579  15.620  21.336  0.00  0.00    -0.272 N 
ATOM     12  C   UNL d   1     -38.901  15.639  20.868  0.00  0.00     0.083 A 
ATOM     13  C   UNL d   1     -39.514  15.740  22.160  0.00  0.00     0.083 A 
ATOM     14  C   UNL d   1     -38.161  15.773  21.203  0.00  0.00     0.019 A 
ATOM     15  C   UNL d   1     -38.093  15.892  22.016  0.00  0.00     0.003 A 
ATOM     16  C   UNL d   1     -38.770  15.875  22.495  0.00  0.00     0.019 A 
ATOM     17  O   UNL d   1     -40.992  15.465  21.449  0.00  0.00    -0.266 OA
ENDBRANCH   1  10
BRANCH   6  18
ATOM     18  N   UNL d   1     -40.914  15.608  16.700  0.00  0.00    -0.114 N 
ATOM     19  O   UNL d   1     -41.711  15.576  16.444  0.00  0.00    -0.532 OA
ATOM     20  O   UNL d   1     -40.333  15.905  16.204  0.00  0.00    -0.532 OA
ENDBRANCH   6  18
TORSDOF 2
ENDMDL
MODEL 4
REMARK VINA RESULT:      -6.3      8.641     10.388
REMARK  2 active torsions:
REMARK  status: ('A' for Active; 'I' for Inactive)
REMARK    1  A    between atoms: C_4  and  C_1 
REMARK    2  A    between atoms: N_2  and  C_9 
REMARK       I    between atoms: N_7  and  C_4 
ROOT
ATOM      1  C   UNL d   1     -39.922  14.146  18.342  0.00  0.00     0.086 A 
ATOM      2  S   UNL d   1     -39.289  13.663  18.374  0.00  0.00    -0.082 SA
ATOM      3  C   UNL d   1     -39.967  14.520  17.621  0.00  0.00     0.012 A 
ATOM      4  C   UNL d   1     -39.324  14.259  17.169  0.00  0.00     0.008 A 
ATOM      5  C   UNL d   1     -38.903  13.726  17.637  0.00  0.00     0.030 A 
ATOM      6  C   UNL d   1     -38.385  14.068  16.107  0.00  0.00     0.127 A 
ATOM      7  C   UNL d   1     -39.066  14.424  16.416  0.00  0.00     0.024 A 
ATOM      8  C   UNL d   1     -38.223  13.359  17.353  0.00  0.00     0.008 A 
ATOM      9  C   UNL d   1     -37.964  13.535  16.575  0.00  0.00     0.024 A 
ENDROOT
BRANCH   1  10
ATOM     10  C   UNL d   1     -40.468  14.248  18.979  0.00  0.00     0.271 C 
ATOM     11  N   UNL d   1     -40.327  14.796  19.563  0.00  0.00    -0.272 N 
ATOM     12  C   UNL d   1     -39.645  15.258  19.534  0.00  0.00     0.083 A 
ATOM     13  C   UNL d   1     -40.866  14.896  20.192  0.00  0.00     0.083 A 
ATOM     14  C   UNL d   1     -39.489  15.816  20.119  0.00  0.00     0.019 A 
ATOM     15  C   UNL d   1     -40.020  15.918  20.742  0.00  0.00     0.003 A 
ATOM     16  C   UNL d   1     -40.709  15.458  20.778  0.00  0.00     0.019 A 
ATOM     17  O   UNL d   1     -41.147  13.778  18.994  0.00  0.00    -0.266 OA
ENDBRANCH   1  10
BRANCH   6  18
ATOM     18  N   UNL d   1     -38.125  14.243  15.329  0.00  0.00    -0.114 N 
ATOM     19  O   UNL d   1     -37.940  15.034  15.123  0.00  0.00    -0.532 OA
ATOM     20  O   UNL d   1     -38.052  13.645  14.774  0.00  0.00    -0.532 OA
ENDBRANCH   6  18
TORSDOF 2
ENDMDL
MODEL 5
REMARK VINA RESULT:      -6.2      8.397     10.289
REMARK  2 active torsions:
REMARK  status: ('A' for Active; 'I' for Inactive)
REMARK    1  A    between atoms: C_4  and  C_1 
REMARK    2  A    between atoms: N_2  and  C_9 
REMARK       I    between atoms: N_7  and  C_4 
ROOT
ATOM      1  C   UNL d   1     -39.530  15.258  17.655  0.00  0.00     0.086 A 
ATOM      2  S   UNL d   1     -39.148  15.683  18.211  0.00  0.00    -0.082 SA
ATOM      3  C   UNL d   1     -40.198  14.908  17.962  0.00  0.00     0.012 A 
ATOM      4  C   UNL d   1     -40.242  15.124  18.760  0.00  0.00     0.008 A 
ATOM      5  C   UNL d   1     -39.590  15.606  18.915  0.00  0.00     0.030 A 
ATOM      6  C   UNL d   1     -40.667  15.262  20.119  0.00  0.00     0.127 A 
ATOM      7  C   UNL d   1     -40.770  14.958  19.356  0.00  0.00     0.024 A 
ATOM      8  C   UNL d   1     -39.466  15.921  19.666  0.00  0.00     0.008 A 
ATOM      9  C   UNL d   1     -40.015  15.743  20.274  0.00  0.00     0.024 A 
ENDROOT
BRANCH   1  10
ATOM     10  C   UNL d   1     -39.266  15.186  16.856  0.00  0.00     0.271 C 
ATOM     11  N   UNL d   1     -38.829  14.542  16.618  0.00  0.00    -0.272 N 
ATOM     12  C   UNL d   1     -38.642  13.952  17.162  0.00  0.00     0.083 A 
ATOM     13  C   UNL d   1     -38.568  14.472  15.828  0.00  0.00     0.083 A 
ATOM     14  C   UNL d   1     -38.201  13.295  16.935  0.00  0.00     0.019 A 
ATOM     15  C   UNL d   1     -37.942  13.222  16.156  0.00  0.00     0.003 A 
ATOM     16  C   UNL d   1     -38.126  13.812  15.602  0.00  0.00     0.019 A 
ATOM     17  O   UNL d   1     -39.461  15.786  16.322  0.00  0.00    -0.266 OA
ENDBRANCH   1  10
BRANCH   6  18
ATOM     18  N   UNL d   1     -41.215  15.085  20.729  0.00  0.00    -0.114 N 
ATOM     19  O   UNL d   1     -41.670  15.702  21.068  0.00  0.00    -0.532 OA
ATOM     20  O   UNL d   1     -41.306  14.314  20.991  0.00  0.00    -0.532 OA
ENDBRANCH   6  18
TORSDOF 2
ENDMDL
MODEL 6
REMARK VINA RESULT:      -6.1      8.687      9.595
REMARK  2 active torsions:
REMARK  status: ('A' for Active; 'I' for Inactive)
REMARK    1  A    between atoms: C_4  and  C_1 
REMARK    2  A    between atoms: N_2  and  C_9 
REMARK       I    between atoms: N_7  and  C_4 
ROOT
ATOM      1  C   UNL d   1     -39.665  15.234  20.981  0.00  0.00     0.086 A 
ATOM      2  S   UNL d   1     -39.216  15.631  20.455  0.00  0.00    -0.082 SA
ATOM      3  C   UNL d   1     -40.242  14.801  20.603  0.00  0.00     0.012 A 
ATOM      4  C   UNL d   1     -40.152  14.931  19.791  0.00  0.00     0.008 A 
ATOM      5  C   UNL d   1     -39.515  15.447  19.699  0.00  0.00     0.030 A 
ATOM      6  C   UNL d   1     -40.327  14.894  18.371  0.00  0.00     0.127 A 
ATOM      7  C   UNL d   1     -40.549  14.661  19.134  0.00  0.00     0.024 A 
ATOM      8  C   UNL d   1     -39.274  15.692  18.950  0.00  0.00     0.008 A 
ATOM      9  C   UNL d   1     -39.689  15.409  18.279  0.00  0.00     0.024 A 
ENDROOT
BRANCH   1  10
ATOM     10  C   UNL d   1     -39.549  15.267  21.817  0.00  0.00     0.271 C 
ATOM     11  N   UNL d   1     -39.159  14.668  22.206  0.00  0.00    -0.272 N 
ATOM     12  C   UNL d   1     -38.873  14.022  21.781  0.00  0.00     0.083 A 
ATOM     13  C   UNL d   1     -39.044  14.701  23.032  0.00  0.00     0.083 A 
ATOM     14  C   UNL d   1     -38.477  13.409  22.161  0.00  0.00     0.019 A 
ATOM     15  C   UNL d   1     -38.362  13.438  22.978  0.00  0.00     0.003 A 
ATOM     16  C   UNL d   1     -38.646  14.084  23.413  0.00  0.00     0.019 A 
ATOM     17  O   UNL d   1     -39.840  15.920  22.230  0.00  0.00    -0.266 OA
ENDBRANCH   1  10
BRANCH   6  18
ATOM     18  N   UNL d   1     -40.741  14.611  17.699  0.00  0.00    -0.114 N 
ATOM     19  O   UNL d   1     -40.629  13.820  17.446  0.00  0.00    -0.532 OA
ATOM     20  O   UNL d   1     -41.252  15.105  17.292  0.00  0.00    -0.532 OA
ENDBRANCH   6  18
TORSDOF 2
ENDMDL
MODEL 7
REMARK VINA RESULT:      -6.1      8.592      9.480
REMARK  2 active torsions:
REMARK  status: ('A' for Active; 'I' for Inactive)
REMARK    1  A    between atoms: C_4  and  C_1 
REMARK    2  A    between atoms: N_2  and  C_9 
REMARK       I    between atoms: N_7  and  C_4 
ROOT
ATOM      1  C   UNL d   1     -40.146  14.458  19.125  0.00  0.00     0.086 A 
ATOM      2  S   UNL d   1     -40.541  14.892  19.664  0.00  0.00    -0.082 SA
ATOM      3  C   UNL d   1     -39.524  14.061  19.468  0.00  0.00     0.012 A 
ATOM      4  C   UNL d   1     -39.525  14.255  20.273  0.00  0.00     0.008 A 
ATOM      5  C   UNL d   1     -40.157  14.771  20.395  0.00  0.00     0.030 A 
ATOM      6  C   UNL d   1     -39.193  14.334  21.663  0.00  0.00     0.127 A 
ATOM      7  C   UNL d   1     -39.053  14.043  20.900  0.00  0.00     0.024 A 
ATOM      8  C   UNL d   1     -40.317  15.075  21.144  0.00  0.00     0.008 A 
ATOM      9  C   UNL d   1     -39.825  14.850  21.784  0.00  0.00     0.024 A 
ENDROOT
BRANCH   1  10
ATOM     10  C   UNL d   1     -40.354  14.422  18.306  0.00  0.00     0.271 C 
ATOM     11  N   UNL d   1     -39.986  14.902  17.763  0.00  0.00    -0.272 N 
ATOM     12  C   UNL d   1     -39.403  15.429  18.011  0.00  0.00     0.083 A 
ATOM     13  C   UNL d   1     -40.193  14.866  16.954  0.00  0.00     0.083 A 
ATOM     14  C   UNL d   1     -39.022  15.920  17.471  0.00  0.00     0.019 A 
ATOM     15  C   UNL d   1     -39.224  15.888  16.672  0.00  0.00     0.003 A 
ATOM     16  C   UNL d   1     -39.809  15.360  16.414  0.00  0.00     0.019 A 
ATOM     17  O   UNL d   1     -40.940  13.888  18.073  0.00  0.00    -0.266 OA
ENDBRANCH   1  10
BRANCH   6  18
ATOM     18  N   UNL d   1     -38.702  14.110  22.305  0.00  0.00    -0.114 N 
ATOM     19  O   UNL d   1     -38.930  13.470  22.796  0.00  0.00    -0.532 OA
ATOM     20  O   UNL d   1     -38.005  14.514  22.450  0.00  0.00    -0.532 OA
ENDBRANCH   6  18
TORSDOF 2
ENDMDL
