MODEL 1
REMARK VINA RESULT:      -6.2      0.000      0.000
REMARK  1 active torsions:
REMARK  status: ('A' for Active; 'I' for Inactive)
REMARK    1  A    between atoms: C_9  and  C_3 
ROOT
ATOM      1  N   UNL d   1     -42.434-121.940 -53.886  0.00  0.00    -0.145 NA
ATOM      2  N   UNL d   1     -42.655-121.687 -54.638  0.00  0.00    -0.106 NA
ATOM      3  C   UNL d   1     -41.788-122.449 -53.794  0.00  0.00     0.103 A 
ATOM      4  C   UNL d   1     -42.233-121.941 -55.300  0.00  0.00     0.297 A 
ATOM      5  C   UNL d   1     -41.362-122.706 -54.452  0.00  0.00     0.026 A 
ATOM      6  C   UNL d   1     -41.588-122.449 -55.208  0.00  0.00     0.066 A 
ATOM      7  O   UNL d   1     -42.455-121.687 -56.051  0.00  0.00    -0.264 OA
ENDROOT
BRANCH   3   8
ATOM      8  C   UNL d   1     -41.567-122.702 -53.042  0.00  0.00     0.022 A 
ATOM      9  C   UNL d   1     -41.496-123.513 -52.880  0.00  0.00     0.022 A 
ATOM     10  C   UNL d   1     -41.274-123.766 -52.128  0.00  0.00     0.099 A 
ATOM     11  N   UNL d   1     -41.123-123.213 -51.534  0.00  0.00    -0.242 NA
ATOM     12  C   UNL d   1     -41.196-122.399 -51.699  0.00  0.00     0.099 A 
ATOM     13  C   UNL d   1     -41.417-122.146 -52.451  0.00  0.00     0.022 A 
ENDBRANCH   3   8
TORSDOF 1
ENDMDL
MODEL 2
REMARK VINA RESULT:      -5.4      1.748      3.219
REMARK  1 active torsions:
REMARK  status: ('A' for Active; 'I' for Inactive)
REMARK    1  A    between atoms: C_9  and  C_3 
ROOT
ATOM      1  N   UNL d   1     -41.697-123.561 -52.877  0.00  0.00    -0.145 NA
ATOM      2  N   UNL d   1     -41.583-123.817 -52.104  0.00  0.00    -0.106 NA
ATOM      3  C   UNL d   1     -41.524-122.778 -53.083  0.00  0.00     0.103 A 
ATOM      4  C   UNL d   1     -41.296-123.296 -51.533  0.00  0.00     0.297 A 
ATOM      5  C   UNL d   1     -41.236-122.251 -52.518  0.00  0.00     0.026 A 
ATOM      6  C   UNL d   1     -41.123-122.514 -51.738  0.00  0.00     0.066 A 
ATOM      7  O   UNL d   1     -41.181-123.553 -50.759  0.00  0.00    -0.264 OA
ENDROOT
BRANCH   3   8
ATOM      8  C   UNL d   1     -41.639-122.521 -53.857  0.00  0.00     0.022 A 
ATOM      9  C   UNL d   1     -42.247-121.984 -54.032  0.00  0.00     0.022 A 
ATOM     10  C   UNL d   1     -42.362-121.727 -54.806  0.00  0.00     0.099 A 
ATOM     11  N   UNL d   1     -41.872-122.002 -55.410  0.00  0.00    -0.242 NA
ATOM     12  C   UNL d   1     -41.261-122.542 -55.232  0.00  0.00     0.099 A 
ATOM     13  C   UNL d   1     -41.146-122.799 -54.458  0.00  0.00     0.022 A 
ENDBRANCH   3   8
TORSDOF 1
ENDMDL
MODEL 3
REMARK VINA RESULT:      -5.0      2.039      3.088
REMARK  1 active torsions:
REMARK  status: ('A' for Active; 'I' for Inactive)
REMARK    1  A    between atoms: C_9  and  C_3 
ROOT
ATOM      1  N   UNL d   1     -41.831-123.246 -51.539  0.00  0.00    -0.145 NA
ATOM      2  N   UNL d   1     -41.654-123.086 -52.326  0.00  0.00    -0.106 NA
ATOM      3  C   UNL d   1     -41.654-122.689 -50.954  0.00  0.00     0.103 A 
ATOM      4  C   UNL d   1     -41.300-122.370 -52.533  0.00  0.00     0.297 A 
ATOM      5  C   UNL d   1     -41.300-121.971 -51.153  0.00  0.00     0.026 A 
ATOM      6  C   UNL d   1     -41.123-121.814 -51.949  0.00  0.00     0.066 A 
ATOM      7  O   UNL d   1     -41.123-122.211 -53.322  0.00  0.00    -0.264 OA
ENDROOT
BRANCH   3   8
ATOM      8  C   UNL d   1     -41.832-122.849 -50.165  0.00  0.00     0.022 A 
ATOM      9  C   UNL d   1     -42.594-122.702 -49.872  0.00  0.00     0.022 A 
ATOM     10  C   UNL d   1     -42.772-122.862 -49.084  0.00  0.00     0.099 A 
ATOM     11  N   UNL d   1     -42.192-123.169 -48.584  0.00  0.00    -0.242 NA
ATOM     12  C   UNL d   1     -41.427-123.316 -48.881  0.00  0.00     0.099 A 
ATOM     13  C   UNL d   1     -41.249-123.156 -49.669  0.00  0.00     0.022 A 
ENDBRANCH   3   8
TORSDOF 1
ENDMDL
MODEL 4
REMARK VINA RESULT:      -4.3      2.842      4.206
REMARK  1 active torsions:
REMARK  status: ('A' for Active; 'I' for Inactive)
REMARK    1  A    between atoms: C_9  and  C_3 
ROOT
ATOM      1  N   UNL d   1     -42.665-122.691 -50.224  0.00  0.00    -0.145 NA
ATOM      2  N   UNL d   1     -42.914-122.802 -49.448  0.00  0.00    -0.106 NA
ATOM      3  C   UNL d   1     -41.876-122.831 -50.429  0.00  0.00     0.103 A 
ATOM      4  C   UNL d   1     -42.378-123.053 -48.873  0.00  0.00     0.297 A 
ATOM      5  C   UNL d   1     -41.334-123.082 -49.860  0.00  0.00     0.026 A 
ATOM      6  C   UNL d   1     -41.590-123.193 -49.078  0.00  0.00     0.066 A 
ATOM      7  O   UNL d   1     -42.629-123.163 -48.096  0.00  0.00    -0.264 OA
ENDROOT
BRANCH   3   8
ATOM      8  C   UNL d   1     -41.626-122.720 -51.206  0.00  0.00     0.022 A 
ATOM      9  C   UNL d   1     -41.417-123.374 -51.674  0.00  0.00     0.022 A 
ATOM     10  C   UNL d   1     -41.168-123.263 -52.451  0.00  0.00     0.099 A 
ATOM     11  N   UNL d   1     -41.124-122.502 -52.767  0.00  0.00    -0.242 NA
ATOM     12  C   UNL d   1     -41.334-121.847 -52.295  0.00  0.00     0.099 A 
ATOM     13  C   UNL d   1     -41.584-121.957 -51.518  0.00  0.00     0.022 A 
ENDBRANCH   3   8
TORSDOF 1
ENDMDL
