MODEL 1
REMARK VINA RESULT:      72.3      0.000      0.000
REMARK  6 active torsions:
REMARK  status: ('A' for Active; 'I' for Inactive)
REMARK    1  A    between atoms: N_5  and  S_1 
REMARK    2  A    between atoms: C_6  and  S_1 
REMARK    3  A    between atoms: C_2  and  C_14 
REMARK    4  A    between atoms: C_8  and  N_5 
REMARK    5  A    between atoms: C_7  and  C_8 
REMARK       I    between atoms: N_11  and  C_7 
REMARK    6  A    between atoms: C_20  and  N_11 
ROOT
ATOM      1  C   UNL d   1     -49.024  28.735  34.118  0.00  0.00     0.298 C 
ATOM      2  N   UNL d   1     -49.528  28.583  33.489  0.00  0.00    -0.207 NA
ATOM      3  O   UNL d   1     -48.960  28.194  34.737  0.00  0.00    -0.264 OA
ENDROOT
BRANCH   1   4
ATOM      4  C   UNL d   1     -48.586  29.429  34.124  0.00  0.00     0.151 C 
ATOM      5  C   UNL d   1     -47.761  29.400  34.030  0.00  0.00     0.027 C 
BRANCH   4   6
ATOM      6  N   UNL d   1     -48.950  30.153  34.221  0.00  0.00    -0.153 NA
BRANCH   6   7
ATOM      7  S   UNL d   1     -48.506  30.847  34.275  0.00  0.00     0.285 S 
ATOM      8  O   UNL d   1     -48.711  31.039  33.500  0.00  0.00    -0.198 OA
ATOM      9  O   UNL d   1     -48.299  30.655  35.051  0.00  0.00    -0.198 OA
BRANCH   7  10
ATOM     10  C   UNL d   1     -48.064  31.537  34.328  0.00  0.00     0.105 A 
ATOM     11  C   UNL d   1     -47.500  31.610  34.919  0.00  0.00     0.012 A 
ATOM     12  C   UNL d   1     -47.050  32.309  34.975  0.00  0.00     0.001 A 
ATOM     13  C   UNL d   1     -47.380  30.984  35.461  0.00  0.00     0.001 C 
ATOM     14  C   UNL d   1     -47.171  32.920  34.443  0.00  0.00     0.000 A 
ATOM     15  C   UNL d   1     -47.739  32.844  33.848  0.00  0.00     0.001 A 
ATOM     16  C   UNL d   1     -48.185  32.147  33.796  0.00  0.00     0.013 A 
ATOM     17  C   UNL d   1     -47.861  33.466  33.307  0.00  0.00     0.000 C 
ENDBRANCH   7  10
ENDBRANCH   6   7
ENDBRANCH   4   6
ENDBRANCH   1   4
BRANCH   2  18
ATOM     18  C   UNL d   1     -49.970  27.887  33.478  0.00  0.00     0.085 A 
ATOM     19  C   UNL d   1     -50.791  27.931  33.459  0.00  0.00     0.019 A 
ATOM     20  C   UNL d   1     -51.251  27.236  33.448  0.00  0.00     0.004 A 
ATOM     21  C   UNL d   1     -50.884  26.501  33.457  0.00  0.00     0.024 A 
ATOM     22  C   UNL d   1     -50.059  26.454  33.475  0.00  0.00     0.004 A 
ATOM     23  C   UNL d   1     -49.599  27.140  33.486  0.00  0.00     0.019 A 
BRANCH  21  24
ATOM     24  C   UNL d   1     -51.353  25.816  33.445  0.00  0.00     0.111 A 
ATOM     25  N   UNL d   1     -51.037  25.059  33.467  0.00  0.00    -0.239 NA
ATOM     26  C   UNL d   1     -51.659  24.515  33.448  0.00  0.00     0.088 A 
ATOM     27  C   UNL d   1     -51.677  23.693  33.457  0.00  0.00     0.020 A 
ATOM     28  C   UNL d   1     -52.364  24.943  33.415  0.00  0.00     0.049 A 
ATOM     29  C   UNL d   1     -52.399  23.297  33.432  0.00  0.00     0.002 A 
ATOM     30  C   UNL d   1     -53.103  23.725  33.399  0.00  0.00     0.001 A 
ATOM     31  C   UNL d   1     -53.086  24.549  33.390  0.00  0.00     0.008 A 
ATOM     32  S   UNL d   1     -52.173  25.749  33.413  0.00  0.00    -0.066 SA
ENDBRANCH  21  24
ENDBRANCH   2  18
TORSDOF 6
ENDMDL
