MODEL 1
REMARK VINA RESULT:      29.4      0.000      0.000
REMARK  2 active torsions:
REMARK  status: ('A' for Active; 'I' for Inactive)
REMARK    1  A    between atoms: N_2  and  N_1 
REMARK    2  A    between atoms: N_8  and  C_10 
ROOT
ATOM      1  N   UNL d   1      14.222  12.824  -1.872  0.00  0.00    -0.171 N 
ATOM      2  C   UNL d   1      13.909  12.569  -2.582  0.00  0.00     0.283 A 
ATOM      3  C   UNL d   1      13.804  13.242  -3.068  0.00  0.00     0.085 A 
ATOM      4  C   UNL d   1      14.317  13.643  -1.897  0.00  0.00     0.282 A 
ATOM      5  C   UNL d   1      14.059  13.913  -2.640  0.00  0.00     0.064 A 
ATOM      6  C   UNL d   1      13.514  13.331  -3.832  0.00  0.00     0.131 A 
ATOM      7  O   UNL d   1      13.738  11.779  -2.760  0.00  0.00    -0.265 OA
ATOM      8  O   UNL d   1      14.625  14.116  -1.270  0.00  0.00    -0.265 OA
ATOM      9  C   UNL d   1      14.019  14.662  -2.983  0.00  0.00     0.005 A 
ATOM     10  C   UNL d   1      13.473  14.074  -4.175  0.00  0.00     0.024 A 
ATOM     11  C   UNL d   1      13.723  14.730  -3.756  0.00  0.00     0.002 A 
ENDROOT
BRANCH   1  12
ATOM     12  N   UNL d   1      14.440  12.418  -1.190  0.00  0.00    -0.189 N 
ATOM     13  C   UNL d   1      14.030  12.152  -0.535  0.00  0.00     0.169 A 
ATOM     14  S   UNL d   1      14.568  11.781  -0.037  0.00  0.00    -0.051 SA
ATOM     15  S   UNL d   1      13.192  12.242  -0.391  0.00  0.00    -0.050 SA
ATOM     16  C   UNL d   1      15.313  11.817  -0.383  0.00  0.00     0.100 A 
ATOM     17  C   UNL d   1      15.242  12.207  -1.091  0.00  0.00     0.287 A 
ATOM     18  O   UNL d   1      15.857  12.361  -1.611  0.00  0.00    -0.265 OA
ENDBRANCH   1  12
BRANCH   6  19
ATOM     19  N   UNL d   1      13.256  12.653  -4.264  0.00  0.00    -0.114 N 
ATOM     20  O   UNL d   1      12.769  12.097  -3.902  0.00  0.00    -0.532 OA
ATOM     21  O   UNL d   1      13.492  12.550  -5.042  0.00  0.00    -0.532 OA
ENDBRANCH   6  19
TORSDOF 2
ENDMDL
