MODEL 1
REMARK VINA RESULT:      44.9      0.000      0.000
REMARK  2 active torsions:
REMARK  status: ('A' for Active; 'I' for Inactive)
REMARK    1  A    between atoms: N_11  and  C_2 
REMARK    2  A    between atoms: C_16  and  N_11 
ROOT
ATOM      1  C   UNL d   1      14.214  13.386  -2.029  0.00  0.00     0.024 A 
ATOM      2  C   UNL d   1      13.807  12.988  -2.616  0.00  0.00     0.139 A 
ATOM      3  C   UNL d   1      14.471  12.989  -1.355  0.00  0.00     0.022 A 
ATOM      4  C   UNL d   1      13.648  12.184  -2.542  0.00  0.00     0.297 A 
ATOM      5  C   UNL d   1      14.373  14.199  -2.109  0.00  0.00     0.005 A 
ATOM      6  C   UNL d   1      14.881  13.390  -0.764  0.00  0.00     0.041 A 
ATOM      7  C   UNL d   1      15.043  14.197  -0.834  0.00  0.00     0.196 A 
ATOM      8  N   UNL d   1      13.903  11.788  -1.869  0.00  0.00    -0.207 NA
ATOM      9  C   UNL d   1      14.311  12.186  -1.282  0.00  0.00     0.085 A 
ATOM     10  C   UNL d   1      14.784  14.600  -1.517  0.00  0.00     0.039 A 
ATOM     11  O   UNL d   1      13.240  11.786  -3.129  0.00  0.00    -0.264 OA
ATOM     12  O   UNL d   1      15.462  14.606  -0.232  0.00  0.00    -0.287 OA
ATOM     13  C   UNL d   1      15.140  12.997  -0.087  0.00  0.00     0.003 A 
ATOM     14  C   UNL d   1      14.117  14.595  -2.782  0.00  0.00     0.000 A 
ATOM     15  C   UNL d   1      14.567  11.785  -0.605  0.00  0.00     0.019 A 
ATOM     16  C   UNL d   1      14.946  15.405  -1.587  0.00  0.00     0.003 A 
ATOM     17  C   UNL d   1      14.978  12.186  -0.014  0.00  0.00     0.002 A 
ATOM     18  C   UNL d   1      14.277  15.404  -2.859  0.00  0.00     0.000 A 
ATOM     19  C   UNL d   1      14.687  15.805  -2.268  0.00  0.00     0.000 A 
ENDROOT
BRANCH   2  20
ATOM     20  N   UNL d   1      13.550  13.394  -3.295  0.00  0.00    -0.241 NA
BRANCH  20  21
ATOM     21  C   UNL d   1      13.438  12.989  -3.997  0.00  0.00     0.082 A 
ATOM     22  C   UNL d   1      13.911  13.184  -4.646  0.00  0.00     0.019 A 
ATOM     23  C   UNL d   1      13.817  12.789  -5.369  0.00  0.00     0.002 A 
ATOM     24  C   UNL d   1      13.229  12.181  -5.437  0.00  0.00     0.000 A 
ATOM     25  C   UNL d   1      12.769  11.996  -4.796  0.00  0.00     0.002 A 
ATOM     26  C   UNL d   1      12.864  12.394  -4.068  0.00  0.00     0.019 A 
ENDBRANCH  20  21
ENDBRANCH   2  20
TORSDOF 2
ENDMDL
MODEL 2
REMARK VINA RESULT:      46.4      1.097      3.426
REMARK  2 active torsions:
REMARK  status: ('A' for Active; 'I' for Inactive)
REMARK    1  A    between atoms: N_11  and  C_2 
REMARK    2  A    between atoms: C_16  and  N_11 
ROOT
ATOM      1  C   UNL d   1      13.658  13.350  -3.221  0.00  0.00     0.024 A 
ATOM      2  C   UNL d   1      13.726  12.959  -2.505  0.00  0.00     0.139 A 
ATOM      3  C   UNL d   1      13.362  12.961  -3.883  0.00  0.00     0.022 A 
ATOM      4  C   UNL d   1      13.499  12.172  -2.437  0.00  0.00     0.297 A 
ATOM      5  C   UNL d   1      13.889  14.147  -3.285  0.00  0.00     0.005 A 
ATOM      6  C   UNL d   1      13.293  13.355  -4.603  0.00  0.00     0.041 A 
ATOM      7  C   UNL d   1      13.520  14.145  -4.677  0.00  0.00     0.196 A 
ATOM      8  N   UNL d   1      13.203  11.783  -3.098  0.00  0.00    -0.207 NA
ATOM      9  C   UNL d   1      13.135  12.174  -3.813  0.00  0.00     0.085 A 
ATOM     10  C   UNL d   1      13.820  14.540  -4.006  0.00  0.00     0.039 A 
ATOM     11  O   UNL d   1      13.567  11.781  -1.721  0.00  0.00    -0.264 OA
ATOM     12  O   UNL d   1      13.450  14.547  -5.412  0.00  0.00    -0.287 OA
ATOM     13  C   UNL d   1      12.997  12.969  -5.269  0.00  0.00     0.003 A 
ATOM     14  C   UNL d   1      14.185  14.535  -2.624  0.00  0.00     0.000 A 
ATOM     15  C   UNL d   1      12.837  11.781  -4.477  0.00  0.00     0.019 A 
ATOM     16  C   UNL d   1      14.046  15.330  -4.080  0.00  0.00     0.003 A 
ATOM     17  C   UNL d   1      12.769  12.175  -5.198  0.00  0.00     0.002 A 
ATOM     18  C   UNL d   1      14.414  15.328  -2.690  0.00  0.00     0.000 A 
ATOM     19  C   UNL d   1      14.345  15.721  -3.411  0.00  0.00     0.000 A 
ENDROOT
BRANCH   2  20
ATOM     20  N   UNL d   1      14.026  13.357  -1.840  0.00  0.00    -0.241 NA
BRANCH  20  21
ATOM     21  C   UNL d   1      14.424  12.942  -1.258  0.00  0.00     0.082 A 
ATOM     22  C   UNL d   1      15.249  12.905  -1.292  0.00  0.00     0.019 A 
ATOM     23  C   UNL d   1      15.676  12.490  -0.715  0.00  0.00     0.002 A 
ATOM     24  C   UNL d   1      15.258  12.103  -0.088  0.00  0.00     0.000 A 
ATOM     25  C   UNL d   1      14.449  12.143  -0.061  0.00  0.00     0.002 A 
ATOM     26  C   UNL d   1      14.018  12.560  -0.642  0.00  0.00     0.019 A 
ENDBRANCH  20  21
ENDBRANCH   2  20
TORSDOF 2
ENDMDL
