MODEL 1
REMARK VINA RESULT:      -6.5      0.000      0.000
REMARK  3 active torsions:
REMARK  status: ('A' for Active; 'I' for Inactive)
REMARK    1  A    between atoms: C_7  and  C_3 
REMARK       I    between atoms: N_10  and  C_7 
REMARK    2  A    between atoms: C_18  and  C_9 
REMARK    3  A    between atoms: C_12  and  N_10 
ROOT
ATOM      1  C   UNL d   1     -46.141  12.123  23.125  0.00  0.00     0.059 A 
ATOM      2  C   UNL d   1     -45.550  12.542  22.727  0.00  0.00     0.013 A 
ATOM      3  C   UNL d   1     -47.059  13.183  22.877  0.00  0.00     0.088 A 
ATOM      4  S   UNL d   1     -46.893  12.443  23.200  0.00  0.00    -0.075 SA
ATOM      5  S   UNL d   1     -45.975  11.383  23.448  0.00  0.00    -0.080 SA
ATOM      6  C   UNL d   1     -46.468  13.602  22.479  0.00  0.00     0.012 A 
ATOM      7  C   UNL d   1     -44.635  11.486  22.974  0.00  0.00     0.007 A 
ATOM      8  C   UNL d   1     -45.226  11.067  23.372  0.00  0.00     0.030 A 
ENDROOT
BRANCH   3   9
ATOM      9  C   UNL d   1     -47.811  13.503  22.952  0.00  0.00     0.285 C 
ATOM     10  N   UNL d   1     -48.056  14.109  22.444  0.00  0.00    -0.208 NA
ATOM     11  O   UNL d   1     -48.324  13.222  23.533  0.00  0.00    -0.265 OA
BRANCH  10  12
ATOM     12  C   UNL d   1     -48.812  14.432  22.517  0.00  0.00     0.085 A 
ATOM     13  C   UNL d   1     -49.450  14.051  22.179  0.00  0.00     0.019 A 
ATOM     14  C   UNL d   1     -50.200  14.374  22.253  0.00  0.00     0.002 A 
ATOM     15  C   UNL d   1     -50.309  15.087  22.672  0.00  0.00     0.000 A 
ATOM     16  C   UNL d   1     -49.657  15.462  23.008  0.00  0.00     0.002 A 
ATOM     17  C   UNL d   1     -51.064  15.414  22.748  0.00  0.00     0.000 C 
ATOM     18  C   UNL d   1     -48.911  15.138  22.933  0.00  0.00     0.019 A 
ENDBRANCH  10  12
ENDBRANCH   3   9
BRANCH   8  19
ATOM     19  C   UNL d   1     -45.053  10.326  23.694  0.00  0.00     0.006 C 
ATOM     20  C   UNL d   1     -44.282  10.046  23.698  0.00  0.00     0.001 C 
ENDBRANCH   8  19
TORSDOF 3
ENDMDL
MODEL 2
REMARK VINA RESULT:      -6.3      1.213      5.061
REMARK  3 active torsions:
REMARK  status: ('A' for Active; 'I' for Inactive)
REMARK    1  A    between atoms: C_7  and  C_3 
REMARK       I    between atoms: N_10  and  C_7 
REMARK    2  A    between atoms: C_18  and  C_9 
REMARK    3  A    between atoms: C_12  and  N_10 
ROOT
ATOM      1  C   UNL d   1     -48.213  14.343  22.806  0.00  0.00     0.059 A 
ATOM      2  C   UNL d   1     -47.937  14.996  22.383  0.00  0.00     0.013 A 
ATOM      3  C   UNL d   1     -46.890  13.819  22.861  0.00  0.00     0.088 A 
ATOM      4  S   UNL d   1     -47.691  13.756  23.045  0.00  0.00    -0.075 SA
ATOM      5  S   UNL d   1     -49.014  14.279  22.990  0.00  0.00    -0.080 SA
ATOM      6  C   UNL d   1     -46.614  14.473  22.438  0.00  0.00     0.012 A 
ATOM      7  C   UNL d   1     -49.255  15.518  22.329  0.00  0.00     0.007 A 
ATOM      8  C   UNL d   1     -49.531  14.865  22.752  0.00  0.00     0.030 A 
ENDROOT
BRANCH   3   9
ATOM      9  C   UNL d   1     -46.367  13.233  23.099  0.00  0.00     0.285 C 
ATOM     10  N   UNL d   1     -46.409  12.479  22.759  0.00  0.00    -0.208 NA
ATOM     11  O   UNL d   1     -45.800  13.392  23.676  0.00  0.00    -0.265 OA
BRANCH  10  12
ATOM     12  C   UNL d   1     -45.885  11.887  22.997  0.00  0.00     0.085 A 
ATOM     13  C   UNL d   1     -46.156  11.265  23.452  0.00  0.00     0.019 A 
ATOM     14  C   UNL d   1     -45.633  10.679  23.687  0.00  0.00     0.002 A 
ATOM     15  C   UNL d   1     -44.831  10.718  23.462  0.00  0.00     0.000 A 
ATOM     16  C   UNL d   1     -44.570  11.350  23.003  0.00  0.00     0.002 A 
ATOM     17  C   UNL d   1     -44.302  10.127  23.698  0.00  0.00     0.000 C 
ATOM     18  C   UNL d   1     -45.093  11.933  22.770  0.00  0.00     0.019 A 
ENDBRANCH  10  12
ENDBRANCH   3   9
BRANCH   8  19
ATOM     19  C   UNL d   1     -50.335  14.807  22.934  0.00  0.00     0.006 C 
ATOM     20  C   UNL d   1     -50.760  15.474  23.148  0.00  0.00     0.001 C 
ENDBRANCH   8  19
TORSDOF 3
ENDMDL
MODEL 3
REMARK VINA RESULT:      -5.8      1.187      1.567
REMARK  3 active torsions:
REMARK  status: ('A' for Active; 'I' for Inactive)
REMARK    1  A    between atoms: C_7  and  C_3 
REMARK       I    between atoms: N_10  and  C_7 
REMARK    2  A    between atoms: C_18  and  C_9 
REMARK    3  A    between atoms: C_12  and  N_10 
ROOT
ATOM      1  C   UNL d   1     -45.905  12.873  22.370  0.00  0.00     0.059 A 
ATOM      2  C   UNL d   1     -45.813  12.281  22.939  0.00  0.00     0.013 A 
ATOM      3  C   UNL d   1     -47.246  13.080  22.804  0.00  0.00     0.088 A 
ATOM      4  S   UNL d   1     -46.620  13.271  22.303  0.00  0.00    -0.075 SA
ATOM      5  S   UNL d   1     -45.279  13.064  21.869  0.00  0.00    -0.080 SA
ATOM      6  C   UNL d   1     -47.153  12.489  23.373  0.00  0.00     0.012 A 
ATOM      7  C   UNL d   1     -44.477  12.074  22.508  0.00  0.00     0.007 A 
ATOM      8  C   UNL d   1     -44.569  12.666  21.938  0.00  0.00     0.030 A 
ENDROOT
BRANCH   3   9
ATOM      9  C   UNL d   1     -47.960  13.479  22.736  0.00  0.00     0.285 C 
ATOM     10  N   UNL d   1     -48.203  13.997  23.334  0.00  0.00    -0.208 NA
ATOM     11  O   UNL d   1     -48.437  13.364  22.073  0.00  0.00    -0.265 OA
BRANCH  10  12
ATOM     12  C   UNL d   1     -48.921  14.399  23.268  0.00  0.00     0.085 A 
ATOM     13  C   UNL d   1     -49.607  14.052  23.545  0.00  0.00     0.019 A 
ATOM     14  C   UNL d   1     -50.318  14.454  23.478  0.00  0.00     0.002 A 
ATOM     15  C   UNL d   1     -50.341  15.211  23.129  0.00  0.00     0.000 A 
ATOM     16  C   UNL d   1     -49.643  15.550  22.854  0.00  0.00     0.002 A 
ATOM     17  C   UNL d   1     -51.058  15.617  23.061  0.00  0.00     0.000 C 
ATOM     18  C   UNL d   1     -48.935  15.148  22.922  0.00  0.00     0.019 A 
ENDBRANCH  10  12
ENDBRANCH   3   9
BRANCH   8  19
ATOM     19  C   UNL d   1     -43.938  12.852  21.439  0.00  0.00     0.006 C 
ATOM     20  C   UNL d   1     -43.182  12.584  21.609  0.00  0.00     0.001 C 
ENDBRANCH   8  19
TORSDOF 3
ENDMDL
MODEL 4
REMARK VINA RESULT:      -5.4      8.740      9.890
REMARK  3 active torsions:
REMARK  status: ('A' for Active; 'I' for Inactive)
REMARK    1  A    between atoms: C_7  and  C_3 
REMARK       I    between atoms: N_10  and  C_7 
REMARK    2  A    between atoms: C_18  and  C_9 
REMARK    3  A    between atoms: C_12  and  N_10 
ROOT
ATOM      1  C   UNL d   1     -40.004  14.937  18.224  0.00  0.00     0.059 A 
ATOM      2  C   UNL d   1     -39.608  14.485  17.658  0.00  0.00     0.013 A 
ATOM      3  C   UNL d   1     -39.139  14.430  19.234  0.00  0.00     0.088 A 
ATOM      4  S   UNL d   1     -39.770  14.909  19.011  0.00  0.00    -0.075 SA
ATOM      5  S   UNL d   1     -40.636  15.417  18.000  0.00  0.00    -0.080 SA
ATOM      6  C   UNL d   1     -38.742  13.978  18.668  0.00  0.00     0.012 A 
ATOM      7  C   UNL d   1     -40.471  14.991  16.651  0.00  0.00     0.007 A 
ATOM      8  C   UNL d   1     -40.867  15.443  17.217  0.00  0.00     0.030 A 
ENDROOT
BRANCH   3   9
ATOM      9  C   UNL d   1     -38.905  14.402  20.021  0.00  0.00     0.285 C 
ATOM     10  N   UNL d   1     -39.059  13.728  20.475  0.00  0.00    -0.208 NA
ATOM     11  O   UNL d   1     -38.515  15.045  20.360  0.00  0.00    -0.265 OA
BRANCH  10  12
ATOM     12  C   UNL d   1     -38.825  13.697  21.266  0.00  0.00     0.085 A 
ATOM     13  C   UNL d   1     -38.203  13.216  21.487  0.00  0.00     0.019 A 
ATOM     14  C   UNL d   1     -37.973  13.188  22.273  0.00  0.00     0.002 A 
ATOM     15  C   UNL d   1     -38.371  13.648  22.843  0.00  0.00     0.000 A 
ATOM     16  C   UNL d   1     -38.997  14.130  22.608  0.00  0.00     0.002 A 
ATOM     17  C   UNL d   1     -38.140  13.621  23.636  0.00  0.00     0.000 C 
ATOM     18  C   UNL d   1     -39.224  14.156  21.824  0.00  0.00     0.019 A 
ENDBRANCH  10  12
ENDBRANCH   3   9
BRANCH   8  19
ATOM     19  C   UNL d   1     -41.499  15.922  16.986  0.00  0.00     0.006 C 
ATOM     20  C   UNL d   1     -41.813  15.858  16.232  0.00  0.00     0.001 C 
ENDBRANCH   8  19
TORSDOF 3
ENDMDL
MODEL 5
REMARK VINA RESULT:      -5.0      8.711     10.167
REMARK  3 active torsions:
REMARK  status: ('A' for Active; 'I' for Inactive)
REMARK    1  A    between atoms: C_7  and  C_3 
REMARK       I    between atoms: N_10  and  C_7 
REMARK    2  A    between atoms: C_18  and  C_9 
REMARK    3  A    between atoms: C_12  and  N_10 
ROOT
ATOM      1  C   UNL d   1     -38.942  14.036  20.938  0.00  0.00     0.059 A 
ATOM      2  C   UNL d   1     -39.741  14.218  21.041  0.00  0.00     0.013 A 
ATOM      3  C   UNL d   1     -39.091  14.176  19.529  0.00  0.00     0.088 A 
ATOM      4  S   UNL d   1     -38.618  14.015  20.184  0.00  0.00    -0.075 SA
ATOM      5  S   UNL d   1     -38.468  13.875  21.594  0.00  0.00    -0.080 SA
ATOM      6  C   UNL d   1     -39.890  14.358  19.632  0.00  0.00     0.012 A 
ATOM      7  C   UNL d   1     -39.592  14.079  22.445  0.00  0.00     0.007 A 
ATOM      8  C   UNL d   1     -38.793  13.896  22.342  0.00  0.00     0.030 A 
ENDROOT
BRANCH   3   9
ATOM      9  C   UNL d   1     -38.767  14.155  18.775  0.00  0.00     0.285 C 
ATOM     10  N   UNL d   1     -39.224  13.896  18.135  0.00  0.00    -0.208 NA
ATOM     11  O   UNL d   1     -37.986  14.390  18.653  0.00  0.00    -0.265 OA
BRANCH  10  12
ATOM     12  C   UNL d   1     -38.900  13.874  17.376  0.00  0.00     0.085 A 
ATOM     13  C   UNL d   1     -38.483  13.216  17.133  0.00  0.00     0.019 A 
ATOM     14  C   UNL d   1     -38.162  13.196  16.378  0.00  0.00     0.002 A 
ATOM     15  C   UNL d   1     -38.262  13.845  15.864  0.00  0.00     0.000 A 
ATOM     16  C   UNL d   1     -38.685  14.503  16.121  0.00  0.00     0.002 A 
ATOM     17  C   UNL d   1     -37.940  13.827  15.103  0.00  0.00     0.000 C 
ATOM     18  C   UNL d   1     -39.004  14.520  16.874  0.00  0.00     0.019 A 
ENDBRANCH  10  12
ENDBRANCH   3   9
BRANCH   8  19
ATOM     19  C   UNL d   1     -38.324  13.736  23.003  0.00  0.00     0.006 C 
ATOM     20  C   UNL d   1     -38.656  13.407  23.677  0.00  0.00     0.001 C 
ENDBRANCH   8  19
TORSDOF 3
ENDMDL
MODEL 6
REMARK VINA RESULT:      -4.8      8.925      9.994
REMARK  3 active torsions:
REMARK  status: ('A' for Active; 'I' for Inactive)
REMARK    1  A    between atoms: C_7  and  C_3 
REMARK       I    between atoms: N_10  and  C_7 
REMARK    2  A    between atoms: C_18  and  C_9 
REMARK    3  A    between atoms: C_12  and  N_10 
ROOT
ATOM      1  C   UNL d   1     -39.015  14.404  17.961  0.00  0.00     0.059 A 
ATOM      2  C   UNL d   1     -39.789  14.469  17.678  0.00  0.00     0.013 A 
ATOM      3  C   UNL d   1     -39.476  14.666  19.283  0.00  0.00     0.088 A 
ATOM      4  S   UNL d   1     -38.859  14.501  18.761  0.00  0.00    -0.075 SA
ATOM      5  S   UNL d   1     -38.399  14.240  17.439  0.00  0.00    -0.080 SA
ATOM      6  C   UNL d   1     -40.249  14.731  19.000  0.00  0.00     0.012 A 
ATOM      7  C   UNL d   1     -39.330  14.208  16.361  0.00  0.00     0.007 A 
ATOM      8  C   UNL d   1     -38.556  14.143  16.644  0.00  0.00     0.030 A 
ENDROOT
BRANCH   3   9
ATOM      9  C   UNL d   1     -39.320  14.763  20.083  0.00  0.00     0.285 C 
ATOM     10  N   UNL d   1     -39.184  15.520  20.389  0.00  0.00    -0.208 NA
ATOM     11  O   UNL d   1     -39.297  14.108  20.583  0.00  0.00    -0.265 OA
BRANCH  10  12
ATOM     12  C   UNL d   1     -39.027  15.621  21.193  0.00  0.00     0.085 A 
ATOM     13  C   UNL d   1     -39.633  15.822  21.702  0.00  0.00     0.019 A 
ATOM     14  C   UNL d   1     -39.474  15.922  22.500  0.00  0.00     0.002 A 
ATOM     15  C   UNL d   1     -38.698  15.818  22.789  0.00  0.00     0.000 A 
ATOM     16  C   UNL d   1     -38.096  15.615  22.265  0.00  0.00     0.002 A 
ATOM     17  C   UNL d   1     -38.536  15.918  23.593  0.00  0.00     0.000 C 
ATOM     18  C   UNL d   1     -38.257  15.517  21.470  0.00  0.00     0.019 A 
ENDBRANCH  10  12
ENDBRANCH   3   9
BRANCH   8  19
ATOM     19  C   UNL d   1     -37.943  13.978  16.116  0.00  0.00     0.006 C 
ATOM     20  C   UNL d   1     -38.106  13.667  15.375  0.00  0.00     0.001 C 
ENDBRANCH   8  19
TORSDOF 3
ENDMDL
MODEL 7
REMARK VINA RESULT:      -4.7      8.619     10.144
REMARK  3 active torsions:
REMARK  status: ('A' for Active; 'I' for Inactive)
REMARK    1  A    between atoms: C_7  and  C_3 
REMARK       I    between atoms: N_10  and  C_7 
REMARK    2  A    between atoms: C_18  and  C_9 
REMARK    3  A    between atoms: C_12  and  N_10 
ROOT
ATOM      1  C   UNL d   1     -38.570  13.825  16.605  0.00  0.00     0.059 A 
ATOM      2  C   UNL d   1     -38.410  13.025  16.736  0.00  0.00     0.013 A 
ATOM      3  C   UNL d   1     -39.036  13.951  17.945  0.00  0.00     0.088 A 
ATOM      4  S   UNL d   1     -38.882  14.287  17.208  0.00  0.00    -0.075 SA
ATOM      5  S   UNL d   1     -38.416  14.161  15.868  0.00  0.00    -0.080 SA
ATOM      6  C   UNL d   1     -38.876  13.152  18.076  0.00  0.00     0.012 A 
ATOM      7  C   UNL d   1     -37.946  12.899  15.401  0.00  0.00     0.007 A 
ATOM      8  C   UNL d   1     -38.106  13.699  15.270  0.00  0.00     0.030 A 
ENDROOT
BRANCH   3   9
ATOM      9  C   UNL d   1     -39.348  14.413  18.547  0.00  0.00     0.285 C 
ATOM     10  N   UNL d   1     -39.550  14.068  19.272  0.00  0.00    -0.208 NA
ATOM     11  O   UNL d   1     -39.460  15.222  18.433  0.00  0.00    -0.265 OA
BRANCH  10  12
ATOM     12  C   UNL d   1     -39.864  14.530  19.879  0.00  0.00     0.085 A 
ATOM     13  C   UNL d   1     -39.362  14.901  20.406  0.00  0.00     0.019 A 
ATOM     14  C   UNL d   1     -39.677  15.360  21.009  0.00  0.00     0.002 A 
ATOM     15  C   UNL d   1     -40.503  15.446  21.082  0.00  0.00     0.000 A 
ATOM     16  C   UNL d   1     -40.998  15.067  20.544  0.00  0.00     0.002 A 
ATOM     17  C   UNL d   1     -40.822  15.908  21.689  0.00  0.00     0.000 C 
ATOM     18  C   UNL d   1     -40.682  14.610  19.944  0.00  0.00     0.019 A 
ENDBRANCH  10  12
ENDBRANCH   3   9
BRANCH   8  19
ATOM     19  C   UNL d   1     -37.949  14.029  14.529  0.00  0.00     0.006 C 
ATOM     20  C   UNL d   1     -38.076  13.593  13.846  0.00  0.00     0.001 C 
ENDBRANCH   8  19
TORSDOF 3
ENDMDL
