MODEL 1
REMARK VINA RESULT:      44.9      0.000      0.000
REMARK  5 active torsions:
REMARK  status: ('A' for Active; 'I' for Inactive)
REMARK    1  A    between atoms: C_6  and  N_1 
REMARK    2  A    between atoms: C_13  and  C_6 
REMARK    3  A    between atoms: O_11  and  C_7 
REMARK    4  A    between atoms: O_19  and  C_8 
REMARK    5  A    between atoms: C_20  and  O_11 
ROOT
ATOM      1  C   UNL d   1     -58.329 -98.824 -44.134  0.00  0.00     0.122 A 
ATOM      2  C   UNL d   1     -57.885 -98.892 -43.444  0.00  0.00     0.117 A 
ATOM      3  C   UNL d   1     -57.060 -98.893 -43.478  0.00  0.00     0.028 A 
ATOM      4  C   UNL d   1     -56.688 -98.825 -44.209  0.00  0.00     0.020 A 
ATOM      5  C   UNL d   1     -57.946 -98.756 -44.861  0.00  0.00     0.027 A 
ATOM      6  C   UNL d   1     -57.129 -98.757 -44.893  0.00  0.00     0.004 A 
ENDROOT
BRANCH   4   7
ATOM      7  C   UNL d   1     -55.864 -98.826 -44.240  0.00  0.00     0.085 C 
BRANCH   7   8
ATOM      8  N   UNL d   1     -55.470 -99.432 -44.636  0.00  0.00    -0.251 N 
ATOM      9  C   UNL d   1     -55.144 -99.430 -45.404  0.00  0.00     0.378 A 
ATOM     10  O   UNL d   1     -54.808-100.173 -45.544  0.00  0.00    -0.258 OA
ATOM     11  O   UNL d   1     -55.158 -98.794 -45.927  0.00  0.00    -0.237 OA
ATOM     12  C   UNL d   1     -54.924-100.636 -44.866  0.00  0.00     0.121 A 
ATOM     13  C   UNL d   1     -55.333-100.179 -44.305  0.00  0.00     0.092 A 
ATOM     14  C   UNL d   1     -54.714-101.414 -44.677  0.00  0.00     0.026 A 
ATOM     15  C   UNL d   1     -55.528-100.493 -43.572  0.00  0.00     0.020 A 
ATOM     16  C   UNL d   1     -55.314-101.269 -43.394  0.00  0.00     0.002 A 
ATOM     17  C   UNL d   1     -54.909-101.728 -43.945  0.00  0.00     0.002 A 
ATOM     18  C   UNL d   1     -55.513-101.581 -42.654  0.00  0.00     0.000 C 
ENDBRANCH   7   8
ENDBRANCH   4   7
BRANCH   2  19
ATOM     19  O   UNL d   1     -58.256 -98.960 -42.718  0.00  0.00    -0.326 OA
ATOM     20  C   UNL d   1     -59.079 -98.891 -42.676  0.00  0.00     0.181 C 
ENDBRANCH   2  19
BRANCH   1  21
ATOM     21  O   UNL d   1     -59.150 -98.822 -44.103  0.00  0.00    -0.305 OA
BRANCH  21  22
ATOM     22  C   UNL d   1     -59.581 -99.161 -44.711  0.00  0.00     0.100 C 
ATOM     23  C   UNL d   1     -59.687 -98.758 -45.414  0.00  0.00     0.027 C 
ATOM     24  C   UNL d   1     -59.911 -99.912 -44.613  0.00  0.00     0.027 C 
ENDBRANCH  21  22
ENDBRANCH   1  21
TORSDOF 5
ENDMDL
