MODEL 1
REMARK VINA RESULT:      39.2      0.000      0.000
REMARK  2 active torsions:
REMARK  status: ('A' for Active; 'I' for Inactive)
REMARK    1  A    between atoms: C_6  and  C_1 
REMARK       I    between atoms: C_7  and  N_8 
REMARK    2  A    between atoms: N_8  and  C_10 
ROOT
ATOM      1  C   UNL d   1      59.338  49.680  50.335  0.00  0.00     0.025 A 
ATOM      2  C   UNL d   1      58.544  49.687  50.537  0.00  0.00     0.021 A 
ATOM      3  C   UNL d   1      57.960  49.700  49.934  0.00  0.00     0.085 A 
ATOM      4  C   UNL d   1      59.548  49.687  49.529  0.00  0.00     0.002 A 
ATOM      5  C   UNL d   1      58.992  49.699  48.961  0.00  0.00     0.002 A 
ATOM      6  C   UNL d   1      58.178  49.706  49.136  0.00  0.00     0.019 A 
ENDROOT
BRANCH   1   7
ATOM      7  C   UNL d   1      59.890  49.668  50.908  0.00  0.00     0.111 A 
ATOM      8  N   UNL d   1      59.790  49.621  51.715  0.00  0.00    -0.239 NA
ATOM      9  C   UNL d   1      60.553  49.628  52.059  0.00  0.00     0.088 A 
ATOM     10  C   UNL d   1      60.797  49.593  52.854  0.00  0.00     0.020 A 
ATOM     11  C   UNL d   1      61.100  49.680  51.442  0.00  0.00     0.049 A 
ATOM     12  C   UNL d   1      61.591  49.611  53.028  0.00  0.00     0.002 A 
ATOM     13  C   UNL d   1      62.163  49.665  52.384  0.00  0.00     0.001 A 
ATOM     14  C   UNL d   1      61.898  49.698  51.612  0.00  0.00     0.008 A 
ATOM     15  S   UNL d   1      60.666  49.704  50.727  0.00  0.00    -0.066 SA
ENDBRANCH   1   7
BRANCH   3  16
ATOM     16  N   UNL d   1      57.144  49.707  50.160  0.00  0.00    -0.208 NA
ATOM     17  C   UNL d   1      56.812  49.004  50.445  0.00  0.00     0.279 C 
ATOM     18  O   UNL d   1      56.033  49.023  50.657  0.00  0.00    -0.265 OA
ATOM     19  C   UNL d   1      57.250  48.315  50.511  0.00  0.00     0.068 C 
ENDBRANCH   3  16
TORSDOF 2
ENDMDL
