MODEL 1
REMARK VINA RESULT:      -7.5      0.000      0.000
REMARK  2 active torsions:
REMARK  status: ('A' for Active; 'I' for Inactive)
REMARK    1  A    between atoms: C_6  and  C_1 
REMARK       I    between atoms: N_12  and  C_6 
REMARK    2  A    between atoms: O_15  and  C_13 
ROOT
ATOM      1  C   UNL d   1     -48.973  14.105  22.676  0.00  0.00     0.101 A 
ATOM      2  C   UNL d   1     -48.543  14.780  22.496  0.00  0.00     0.208 A 
ATOM      3  C   UNL d   1     -48.578  13.431  22.942  0.00  0.00     0.011 A 
ATOM      4  O   UNL d   1     -47.715  14.791  22.577  0.00  0.00    -0.288 OA
ATOM      5  C   UNL d   1     -47.749  13.446  23.022  0.00  0.00     0.025 A 
ATOM      6  C   UNL d   1     -47.332  14.106  22.845  0.00  0.00     0.102 A 
ATOM      7  N   UNL d   1     -48.945  15.435  22.235  0.00  0.00    -0.121 N 
ATOM      8  C   UNL d   1     -47.373  12.756  23.291  0.00  0.00     0.026 A 
ATOM      9  C   UNL d   1     -46.504  14.139  22.919  0.00  0.00     0.027 A 
ATOM     10  C   UNL d   1     -46.542  12.787  23.366  0.00  0.00     0.094 A 
ATOM     11  C   UNL d   1     -46.124  13.450  23.188  0.00  0.00     0.026 A 
ENDROOT
BRANCH   1  12
ATOM     12  C   UNL d   1     -49.792  14.106  22.592  0.00  0.00     0.283 C 
ATOM     13  O   UNL d   1     -50.239  14.466  23.110  0.00  0.00    -0.265 OA
ATOM     14  N   UNL d   1     -50.172  13.735  21.969  0.00  0.00    -0.205 NA
ATOM     15  C   UNL d   1     -50.985  13.745  21.899  0.00  0.00     0.123 C 
ENDBRANCH   1  12
BRANCH  10  16
ATOM     16  O   UNL d   1     -46.115  12.179  23.613  0.00  0.00    -0.328 OA
ATOM     17  C   UNL d   1     -46.334  11.359  23.652  0.00  0.00     0.181 C 
ENDBRANCH  10  16
TORSDOF 2
ENDMDL
MODEL 2
REMARK VINA RESULT:      -7.5      1.391      1.988
REMARK  2 active torsions:
REMARK  status: ('A' for Active; 'I' for Inactive)
REMARK    1  A    between atoms: C_6  and  C_1 
REMARK       I    between atoms: N_12  and  C_6 
REMARK    2  A    between atoms: O_15  and  C_13 
ROOT
ATOM      1  C   UNL d   1     -49.302  12.689  22.354  0.00  0.00     0.101 A 
ATOM      2  C   UNL d   1     -49.370  12.107  22.928  0.00  0.00     0.208 A 
ATOM      3  C   UNL d   1     -48.570  13.047  22.223  0.00  0.00     0.011 A 
ATOM      4  O   UNL d   1     -48.709  11.875  23.379  0.00  0.00    -0.288 OA
ATOM      5  C   UNL d   1     -47.911  12.812  22.676  0.00  0.00     0.025 A 
ATOM      6  C   UNL d   1     -47.981  12.245  23.235  0.00  0.00     0.102 A 
ATOM      7  N   UNL d   1     -50.095  11.763  23.046  0.00  0.00    -0.121 N 
ATOM      8  C   UNL d   1     -47.186  13.187  22.526  0.00  0.00     0.026 A 
ATOM      9  C   UNL d   1     -47.334  11.998  23.697  0.00  0.00     0.027 A 
ATOM     10  C   UNL d   1     -46.535  12.941  22.988  0.00  0.00     0.094 A 
ATOM     11  C   UNL d   1     -46.605  12.370  23.551  0.00  0.00     0.026 A 
ENDROOT
BRANCH   1  12
ATOM     12  C   UNL d   1     -49.963  12.909  21.914  0.00  0.00     0.283 C 
ATOM     13  O   UNL d   1     -50.241  12.443  21.366  0.00  0.00    -0.265 OA
ATOM     14  N   UNL d   1     -50.353  13.619  22.032  0.00  0.00    -0.205 NA
ATOM     15  C   UNL d   1     -51.007  13.823  21.588  0.00  0.00     0.123 C 
ENDBRANCH   1  12
BRANCH  10  16
ATOM     16  O   UNL d   1     -45.818  13.245  22.908  0.00  0.00    -0.328 OA
ATOM     17  C   UNL d   1     -45.333  13.281  22.211  0.00  0.00     0.181 C 
ENDBRANCH  10  16
TORSDOF 2
ENDMDL
MODEL 3
REMARK VINA RESULT:      -5.5      8.415      9.402
REMARK  2 active torsions:
REMARK  status: ('A' for Active; 'I' for Inactive)
REMARK    1  A    between atoms: C_6  and  C_1 
REMARK       I    between atoms: N_12  and  C_6 
REMARK    2  A    between atoms: O_15  and  C_13 
ROOT
ATOM      1  C   UNL d   1     -39.856  14.432  18.409  0.00  0.00     0.101 A 
ATOM      2  C   UNL d   1     -40.480  14.918  18.192  0.00  0.00     0.208 A 
ATOM      3  C   UNL d   1     -39.587  14.440  19.190  0.00  0.00     0.011 A 
ATOM      4  O   UNL d   1     -40.844  15.418  18.750  0.00  0.00    -0.288 OA
ATOM      5  C   UNL d   1     -39.954  14.942  19.745  0.00  0.00     0.025 A 
ATOM      6  C   UNL d   1     -40.563  15.414  19.530  0.00  0.00     0.102 A 
ATOM      7  N   UNL d   1     -40.734  14.900  17.422  0.00  0.00    -0.121 N 
ATOM      8  C   UNL d   1     -39.667  14.932  20.523  0.00  0.00     0.026 A 
ATOM      9  C   UNL d   1     -40.941  15.921  20.071  0.00  0.00     0.027 A 
ATOM     10  C   UNL d   1     -40.045  15.440  21.068  0.00  0.00     0.094 A 
ATOM     11  C   UNL d   1     -40.657  15.915  20.852  0.00  0.00     0.026 A 
ENDROOT
BRANCH   1  12
ATOM     12  C   UNL d   1     -39.504  13.943  17.848  0.00  0.00     0.283 C 
ATOM     13  O   UNL d   1     -39.803  13.248  17.692  0.00  0.00    -0.265 OA
ATOM     14  N   UNL d   1     -38.832  14.159  17.433  0.00  0.00    -0.205 NA
ATOM     15  C   UNL d   1     -38.495  13.662  16.881  0.00  0.00     0.123 C 
ENDBRANCH   1  12
BRANCH  10  16
ATOM     16  O   UNL d   1     -39.833  15.489  21.821  0.00  0.00    -0.328 OA
ATOM     17  C   UNL d   1     -39.186  15.922  22.162  0.00  0.00     0.181 C 
ENDBRANCH  10  16
TORSDOF 2
ENDMDL
