MODEL 1
REMARK VINA RESULT:      23.7      0.000      0.000
REMARK  3 active torsions:
REMARK  status: ('A' for Active; 'I' for Inactive)
REMARK       I    between atoms: C_2  and  N_1 
REMARK    1  A    between atoms: C_4  and  C_2 
REMARK    2  A    between atoms: C_6  and  C_4 
REMARK    3  A    between atoms: C_10  and  C_6 
ROOT
ATOM      1  N   UNL d   1     -57.461 -98.765 -44.345  0.00  0.00    -0.273 N 
ATOM      2  C   UNL d   1     -56.752 -98.762 -43.939  0.00  0.00     0.265 C 
ATOM      3  C   UNL d   1     -58.204 -98.763 -44.007  0.00  0.00     0.067 A 
ATOM      4  C   UNL d   1     -57.547 -98.770 -45.163  0.00  0.00     0.083 A 
ATOM      5  C   UNL d   1     -58.762 -98.767 -44.614  0.00  0.00     0.018 A 
ATOM      6  O   UNL d   1     -56.745 -98.757 -43.116  0.00  0.00    -0.267 OA
ATOM      7  C   UNL d   1     -58.360 -98.771 -45.330  0.00  0.00     0.021 A 
ATOM      8  C   UNL d   1     -58.455 -98.758 -43.217  0.00  0.00     0.018 A 
ATOM      9  C   UNL d   1     -59.570 -98.766 -44.435  0.00  0.00     0.002 A 
ATOM     10  C   UNL d   1     -59.259 -98.757 -43.043  0.00  0.00     0.002 A 
ATOM     11  C   UNL d   1     -59.821 -98.761 -43.651  0.00  0.00     0.000 A 
ENDROOT
BRANCH   2  12
ATOM     12  C   UNL d   1     -56.039 -98.765 -44.352  0.00  0.00     0.061 C 
BRANCH  12  13
ATOM     13  C   UNL d   1     -55.370 -99.120 -44.029  0.00  0.00     0.005 C 
BRANCH  13  14
ATOM     14  C   UNL d   1     -55.162 -99.879 -44.261  0.00  0.00     0.002 A 
ATOM     15  C   UNL d   1     -55.190-100.499 -43.719  0.00  0.00     0.030 A 
ATOM     16  C   UNL d   1     -54.981-101.267 -43.949  0.00  0.00     0.140 A 
ATOM     17  F   UNL d   1     -55.010-101.883 -43.407  0.00  0.00    -0.204 F 
ATOM     18  C   UNL d   1     -54.741-101.411 -44.728  0.00  0.00     0.030 A 
ATOM     19  C   UNL d   1     -54.713-100.787 -45.272  0.00  0.00     0.002 A 
ATOM     20  C   UNL d   1     -54.922-100.023 -45.041  0.00  0.00     0.000 A 
ENDBRANCH  13  14
ENDBRANCH  12  13
ENDBRANCH   2  12
TORSDOF 3
ENDMDL
