MODEL 1
REMARK VINA RESULT:      78.0      0.000      0.000
REMARK  5 active torsions:
REMARK  status: ('A' for Active; 'I' for Inactive)
REMARK    1  A    between atoms: C_4  and  C_1 
REMARK    2  A    between atoms: C_8  and  C_4 
REMARK    3  A    between atoms: C_9  and  C_4 
REMARK    4  A    between atoms: N_5  and  C_9 
REMARK    5  A    between atoms: O_18  and  C_11 
ROOT
ATOM      1  C   UNL d   1      60.684  48.775  50.842  0.00  0.00     0.025 C 
ENDROOT
BRANCH   1   2
ATOM      2  C   UNL d   1      60.889  47.972  50.877  0.00  0.00     0.021 A 
ATOM      3  C   UNL d   1      60.650  47.415  51.471  0.00  0.00     0.082 A 
ATOM      4  N   UNL d   1      60.977  46.694  51.288  0.00  0.00    -0.246 NA
ATOM      5  C   UNL d   1      60.170  47.590  52.117  0.00  0.00     0.021 C 
ATOM      6  C   UNL d   1      61.419  46.765  50.594  0.00  0.00     0.081 A 
ATOM      7  C   UNL d   1      61.365  47.555  50.340  0.00  0.00     0.019 A 
ATOM      8  C   UNL d   1      61.860  46.230  50.160  0.00  0.00     0.019 A 
ATOM      9  C   UNL d   1      61.752  47.800  49.655  0.00  0.00     0.002 A 
ATOM     10  C   UNL d   1      62.196  47.264  49.216  0.00  0.00     0.000 A 
ATOM     11  C   UNL d   1      62.252  46.462  49.474  0.00  0.00     0.002 A 
ENDBRANCH   1   2
BRANCH   1  12
ATOM     12  C   UNL d   1      59.975  49.004  50.506  0.00  0.00     0.004 A 
ATOM     13  C   UNL d   1      59.255  48.908  50.901  0.00  0.00     0.028 A 
ATOM     14  C   UNL d   1      58.548  49.138  50.562  0.00  0.00     0.133 A 
ATOM     15  C   UNL d   1      58.541  49.472  49.814  0.00  0.00     0.218 A 
ATOM     16  C   UNL d   1      59.252  49.579  49.397  0.00  0.00     0.044 A 
ATOM     17  O   UNL d   1      57.838  49.707  49.464  0.00  0.00    -0.284 OA
ATOM     18  C   UNL d   1      59.959  49.349  49.737  0.00  0.00     0.004 A 
BRANCH  14  19
ATOM     19  O   UNL d   1      57.840  49.030  50.980  0.00  0.00    -0.325 OA
ATOM     20  C   UNL d   1      57.215  48.657  50.604  0.00  0.00     0.181 C 
ENDBRANCH  14  19
ENDBRANCH   1  12
BRANCH   1  21
ATOM     21  C   UNL d   1      61.210  49.342  51.152  0.00  0.00     0.148 C 
BRANCH  21  22
ATOM     22  N   UNL d   1      61.214  49.483  51.965  0.00  0.00    -0.112 N 
ATOM     23  O   UNL d   1      61.911  49.444  52.388  0.00  0.00    -0.532 OA
ATOM     24  O   UNL d   1      60.496  49.664  52.348  0.00  0.00    -0.532 OA
ENDBRANCH  21  22
ENDBRANCH   1  21
TORSDOF 5
ENDMDL
