MODEL 1
REMARK VINA RESULT:       0.3      0.000      0.000
REMARK  3 active torsions:
REMARK  status: ('A' for Active; 'I' for Inactive)
REMARK    1  A    between atoms: C_7  and  C_1 
REMARK    2  A    between atoms: C_12  and  C_6 
REMARK       I    between atoms: N_10  and  C_7 
REMARK    3  A    between atoms: C_13  and  N_10 
ROOT
ATOM      1  C   UNL d   1     -41.707-123.228 -50.775  0.00  0.00     0.108 A 
ATOM      2  C   UNL d   1     -41.581-122.663 -51.959  0.00  0.00     0.046 A 
ATOM      3  C   UNL d   1     -41.617-122.509 -51.154  0.00  0.00     0.116 A 
ATOM      4  C   UNL d   1     -41.650-123.479 -52.054  0.00  0.00     0.112 A 
ATOM      5  S   UNL d   1     -41.727-123.814 -51.306  0.00  0.00    -0.061 SA
ATOM      6  C   UNL d   1     -41.495-122.179 -52.618  0.00  0.00     0.028 A 
ATOM      7  N   UNL d   1     -41.633-123.817 -52.809  0.00  0.00    -0.239 NA
ATOM      8  C   UNL d   1     -41.478-122.506 -53.377  0.00  0.00     0.020 A 
ATOM      9  C   UNL d   1     -41.547-123.323 -53.472  0.00  0.00     0.082 A 
ATOM     10  N   UNL d   1     -41.572-121.764 -50.788  0.00  0.00    -0.147 N 
ATOM     11  C   UNL d   1     -41.392-122.022 -54.037  0.00  0.00     0.002 A 
ATOM     12  C   UNL d   1     -41.530-123.661 -54.228  0.00  0.00     0.019 A 
ATOM     13  C   UNL d   1     -41.374-122.349 -54.801  0.00  0.00     0.000 A 
ATOM     14  C   UNL d   1     -41.443-123.166 -54.896  0.00  0.00     0.002 A 
ENDROOT
BRANCH   1  15
ATOM     15  C   UNL d   1     -41.769-123.355 -49.962  0.00  0.00     0.287 C 
ATOM     16  N   UNL d   1     -42.423-123.098 -49.542  0.00  0.00    -0.208 NA
ATOM     17  O   UNL d   1     -41.154-123.752 -49.568  0.00  0.00    -0.265 OA
BRANCH  16  18
ATOM     18  C   UNL d   1     -42.472-123.230 -48.734  0.00  0.00     0.085 A 
ATOM     19  C   UNL d   1     -43.149-123.581 -48.410  0.00  0.00     0.018 A 
ATOM     20  C   UNL d   1     -43.786-123.813 -48.836  0.00  0.00     0.002 C 
ATOM     21  C   UNL d   1     -43.183-123.708 -47.586  0.00  0.00     0.002 A 
ATOM     22  C   UNL d   1     -42.549-123.487 -47.091  0.00  0.00     0.000 A 
ATOM     23  C   UNL d   1     -41.884-123.139 -47.435  0.00  0.00     0.002 A 
ATOM     24  C   UNL d   1     -41.841-123.009 -48.248  0.00  0.00     0.019 A 
ENDBRANCH  16  18
ENDBRANCH   1  15
BRANCH   6  25
ATOM     25  C   UNL d   1     -41.427-121.367 -52.524  0.00  0.00     0.100 A 
ATOM     26  O   UNL d   1     -41.128-120.943 -51.886  0.00  0.00    -0.305 OA
ATOM     27  C   UNL d   1     -41.185-120.140 -52.072  0.00  0.00     0.123 A 
ATOM     28  C   UNL d   1     -41.507-120.071 -52.799  0.00  0.00     0.029 A 
ATOM     29  C   UNL d   1     -41.662-120.814 -53.092  0.00  0.00     0.027 A 
ENDBRANCH   6  25
TORSDOF 3
ENDMDL
