MODEL 1
REMARK VINA RESULT:      -3.9      0.000      0.000
REMARK  6 active torsions:
REMARK  status: ('A' for Active; 'I' for Inactive)
REMARK    1  A    between atoms: C_3  and  N_1 
REMARK       I    between atoms: C_2  and  N_10 
REMARK    2  A    between atoms: C_9  and  C_2 
REMARK    3  A    between atoms: C_15  and  N_4 
REMARK    4  A    between atoms: O_14  and  C_8 
REMARK    5  A    between atoms: N_10  and  C_13 
REMARK    6  A    between atoms: C_13  and  C_15 
ROOT
ATOM      1  N   UNL d   1      59.118  -1.812  29.461  0.00  0.00    -0.300 N 
ATOM      2  N   UNL d   1      58.116  -0.661  30.087  0.00  0.00    -0.299 N 
ATOM      3  C   UNL d   1      58.495  -2.031  29.949  0.00  0.00     0.100 A 
ATOM      4  C   UNL d   1      59.242  -1.011  29.283  0.00  0.00     0.100 A 
ATOM      5  C   UNL d   1      57.996  -1.457  30.261  0.00  0.00     0.100 A 
ATOM      6  C   UNL d   1      58.746  -0.441  29.593  0.00  0.00     0.100 A 
ENDROOT
BRANCH   2   7
ATOM      7  C   UNL d   1      57.617  -0.088  30.399  0.00  0.00     0.101 C 
BRANCH   7   8
ATOM      8  C   UNL d   1      57.628   0.084  31.207  0.00  0.00     0.121 C 
BRANCH   8   9
ATOM      9  N   UNL d   1      56.948   0.030  31.651  0.00  0.00    -0.205 NA
ATOM     10  C   UNL d   1      56.971   0.176  32.458  0.00  0.00     0.279 C 
ATOM     11  O   UNL d   1      57.675   0.375  32.821  0.00  0.00    -0.265 OA
BRANCH  10  12
ATOM     12  C   UNL d   1      56.274   0.120  32.914  0.00  0.00     0.058 A 
ATOM     13  C   UNL d   1      55.716   0.682  32.859  0.00  0.00     0.005 A 
ATOM     14  C   UNL d   1      55.018   0.627  33.314  0.00  0.00     0.000 A 
ATOM     15  C   UNL d   1      54.908  -0.010  33.821  0.00  0.00     0.000 A 
ATOM     16  C   UNL d   1      55.504  -0.597  33.872  0.00  0.00     0.000 A 
ATOM     17  C   UNL d   1      56.178  -0.536  33.426  0.00  0.00     0.005 A 
ENDBRANCH  10  12
ENDBRANCH   8   9
ENDBRANCH   7   8
ENDBRANCH   2   7
BRANCH   1  18
ATOM     18  C   UNL d   1      59.618  -2.386  29.148  0.00  0.00     0.086 A 
ATOM     19  C   UNL d   1      59.309  -3.077  28.818  0.00  0.00     0.110 A 
ATOM     20  C   UNL d   1      59.811  -3.653  28.504  0.00  0.00     0.026 A 
ATOM     21  C   UNL d   1      60.617  -3.533  28.523  0.00  0.00     0.002 A 
ATOM     22  C   UNL d   1      60.937  -2.844  28.851  0.00  0.00     0.002 A 
ATOM     23  C   UNL d   1      60.442  -2.277  29.160  0.00  0.00     0.019 A 
BRANCH  19  24
ATOM     24  O   UNL d   1      58.480  -3.189  28.805  0.00  0.00    -0.327 OA
ATOM     25  C   UNL d   1      58.174  -3.873  28.455  0.00  0.00     0.181 C 
ENDBRANCH  19  24
ENDBRANCH   1  18
TORSDOF 6
ENDMDL
MODEL 2
REMARK VINA RESULT:      -3.1      1.600      2.463
REMARK  6 active torsions:
REMARK  status: ('A' for Active; 'I' for Inactive)
REMARK    1  A    between atoms: C_3  and  N_1 
REMARK       I    between atoms: C_2  and  N_10 
REMARK    2  A    between atoms: C_9  and  C_2 
REMARK    3  A    between atoms: C_15  and  N_4 
REMARK    4  A    between atoms: O_14  and  C_8 
REMARK    5  A    between atoms: N_10  and  C_13 
REMARK    6  A    between atoms: C_13  and  C_15 
ROOT
ATOM      1  N   UNL d   1      58.384  -0.306  30.196  0.00  0.00    -0.300 N 
ATOM      2  N   UNL d   1      57.208   0.150  31.258  0.00  0.00    -0.299 N 
ATOM      3  C   UNL d   1      58.032   0.432  30.126  0.00  0.00     0.100 A 
ATOM      4  C   UNL d   1      58.149  -0.822  30.801  0.00  0.00     0.100 A 
ATOM      5  C   UNL d   1      57.445   0.660  30.656  0.00  0.00     0.100 A 
ATOM      6  C   UNL d   1      57.565  -0.596  31.327  0.00  0.00     0.100 A 
ENDROOT
BRANCH   2   7
ATOM      7  C   UNL d   1      56.621   0.377  31.787  0.00  0.00     0.101 C 
BRANCH   7   8
ATOM      8  C   UNL d   1      56.703   0.227  32.595  0.00  0.00     0.121 C 
BRANCH   8   9
ATOM      9  N   UNL d   1      56.127   0.460  33.120  0.00  0.00    -0.205 NA
ATOM     10  C   UNL d   1      55.916  -0.030  33.743  0.00  0.00     0.279 C 
ATOM     11  O   UNL d   1      56.282  -0.753  33.842  0.00  0.00    -0.265 OA
BRANCH  10  12
ATOM     12  C   UNL d   1      55.325   0.210  34.282  0.00  0.00     0.058 A 
ATOM     13  C   UNL d   1      55.512   0.361  35.038  0.00  0.00     0.005 A 
ATOM     14  C   UNL d   1      54.920   0.601  35.577  0.00  0.00     0.000 A 
ATOM     15  C   UNL d   1      54.143   0.680  35.325  0.00  0.00     0.000 A 
ATOM     16  C   UNL d   1      53.957   0.518  34.524  0.00  0.00     0.000 A 
ATOM     17  C   UNL d   1      54.537   0.286  34.008  0.00  0.00     0.005 A 
ENDBRANCH  10  12
ENDBRANCH   8   9
ENDBRANCH   7   8
ENDBRANCH   2   7
BRANCH   1  18
ATOM     18  C   UNL d   1      58.972  -0.533  29.666  0.00  0.00     0.086 A 
ATOM     19  C   UNL d   1      59.743  -0.249  29.747  0.00  0.00     0.110 A 
ATOM     20  C   UNL d   1      60.332  -0.477  29.215  0.00  0.00     0.026 A 
ATOM     21  C   UNL d   1      60.145  -0.988  28.607  0.00  0.00     0.002 A 
ATOM     22  C   UNL d   1      59.376  -1.279  28.518  0.00  0.00     0.002 A 
ATOM     23  C   UNL d   1      58.795  -1.054  29.042  0.00  0.00     0.019 A 
BRANCH  19  24
ATOM     24  O   UNL d   1      59.923   0.274  30.373  0.00  0.00    -0.327 OA
ATOM     25  C   UNL d   1      60.704   0.523  30.476  0.00  0.00     0.181 C 
ENDBRANCH  19  24
ENDBRANCH   1  18
TORSDOF 6
ENDMDL
MODEL 3
REMARK VINA RESULT:      -3.0      1.202      5.771
REMARK  6 active torsions:
REMARK  status: ('A' for Active; 'I' for Inactive)
REMARK    1  A    between atoms: C_3  and  N_1 
REMARK       I    between atoms: C_2  and  N_10 
REMARK    2  A    between atoms: C_9  and  C_2 
REMARK    3  A    between atoms: C_15  and  N_4 
REMARK    4  A    between atoms: O_14  and  C_8 
REMARK    5  A    between atoms: N_10  and  C_13 
REMARK    6  A    between atoms: C_13  and  C_15 
ROOT
ATOM      1  N   UNL d   1      56.713   0.108  32.792  0.00  0.00    -0.300 N 
ATOM      2  N   UNL d   1      57.119  -0.257  31.236  0.00  0.00    -0.299 N 
ATOM      3  C   UNL d   1      56.657   0.682  32.207  0.00  0.00     0.100 A 
ATOM      4  C   UNL d   1      56.973  -0.655  32.599  0.00  0.00     0.100 A 
ATOM      5  C   UNL d   1      56.860   0.500  31.431  0.00  0.00     0.100 A 
ATOM      6  C   UNL d   1      57.174  -0.837  31.827  0.00  0.00     0.100 A 
ENDROOT
BRANCH   2   7
ATOM      7  C   UNL d   1      57.321  -0.439  30.460  0.00  0.00     0.101 C 
BRANCH   7   8
ATOM      8  C   UNL d   1      58.113  -0.462  30.227  0.00  0.00     0.121 C 
BRANCH   8   9
ATOM      9  N   UNL d   1      58.439  -1.149  29.936  0.00  0.00    -0.205 NA
ATOM     10  C   UNL d   1      59.010  -1.116  29.348  0.00  0.00     0.279 C 
ATOM     11  O   UNL d   1      59.254  -0.396  29.050  0.00  0.00    -0.265 OA
BRANCH  10  12
ATOM     12  C   UNL d   1      59.344  -1.820  29.049  0.00  0.00     0.058 A 
ATOM     13  C   UNL d   1      58.877  -2.391  28.756  0.00  0.00     0.005 A 
ATOM     14  C   UNL d   1      59.211  -3.095  28.457  0.00  0.00     0.000 A 
ATOM     15  C   UNL d   1      60.026  -3.200  28.466  0.00  0.00     0.000 A 
ATOM     16  C   UNL d   1      60.510  -2.590  28.779  0.00  0.00     0.000 A 
ATOM     17  C   UNL d   1      60.177  -1.910  29.066  0.00  0.00     0.005 A 
ENDBRANCH  10  12
ENDBRANCH   8   9
ENDBRANCH   7   8
ENDBRANCH   2   7
BRANCH   1  18
ATOM     18  C   UNL d   1      56.510   0.290  33.568  0.00  0.00     0.086 A 
ATOM     19  C   UNL d   1      55.722   0.266  33.813  0.00  0.00     0.110 A 
ATOM     20  C   UNL d   1      55.519   0.449  34.593  0.00  0.00     0.026 A 
ATOM     21  C   UNL d   1      56.105   0.655  35.121  0.00  0.00     0.002 A 
ATOM     22  C   UNL d   1      56.898   0.682  34.885  0.00  0.00     0.002 A 
ATOM     23  C   UNL d   1      57.098   0.501  34.117  0.00  0.00     0.019 A 
BRANCH  19  24
ATOM     24  O   UNL d   1      55.129   0.054  33.263  0.00  0.00    -0.327 OA
ATOM     25  C   UNL d   1      54.350   0.294  33.401  0.00  0.00     0.181 C 
ENDBRANCH  19  24
ENDBRANCH   1  18
TORSDOF 6
ENDMDL
