MODEL 1
REMARK VINA RESULT:      -8.2      0.000      0.000
REMARK  1 active torsions:
REMARK  status: ('A' for Active; 'I' for Inactive)
REMARK    1  A    between atoms: C_7  and  N_1 
ROOT
ATOM      1  N   UNL d   1     -48.249  12.436  23.244  0.00  0.00    -0.226 N 
ATOM      2  C   UNL d   1     -47.784  13.113  23.160  0.00  0.00     0.359 A 
ATOM      3  C   UNL d   1     -47.904  11.723  23.479  0.00  0.00     0.273 A 
ATOM      4  N   UNL d   1     -46.973  13.075  23.311  0.00  0.00    -0.153 NA
ATOM      5  C   UNL d   1     -46.629  12.362  23.546  0.00  0.00     0.288 A 
ATOM      6  C   UNL d   1     -47.094  11.685  23.630  0.00  0.00     0.124 A 
ATOM      7  O   UNL d   1     -48.125  13.828  22.924  0.00  0.00    -0.244 OA
ATOM      8  O   UNL d   1     -48.369  11.046  23.563  0.00  0.00    -0.266 OA
ATOM      9  O   UNL d   1     -45.818  12.324  23.698  0.00  0.00    -0.265 OA
ENDROOT
BRANCH   1  10
ATOM     10  C   UNL d   1     -49.059  12.474  23.092  0.00  0.00     0.071 A 
ATOM     11  C   UNL d   1     -49.341  12.339  22.316  0.00  0.00     0.016 A 
ATOM     12  C   UNL d   1     -48.806  12.169  21.709  0.00  0.00     0.002 C 
ATOM     13  C   UNL d   1     -50.148  12.376  22.161  0.00  0.00     0.001 A 
ATOM     14  C   UNL d   1     -50.680  12.546  22.771  0.00  0.00     0.000 A 
ATOM     15  C   UNL d   1     -50.399  12.679  23.535  0.00  0.00     0.002 A 
ATOM     16  C   UNL d   1     -49.582  12.642  23.698  0.00  0.00     0.018 A 
ENDBRANCH   1  10
TORSDOF 1
ENDMDL
MODEL 2
REMARK VINA RESULT:      -7.7      1.157      2.937
REMARK  1 active torsions:
REMARK  status: ('A' for Active; 'I' for Inactive)
REMARK    1  A    between atoms: C_7  and  N_1 
ROOT
ATOM      1  N   UNL d   1     -48.634  12.489  23.094  0.00  0.00    -0.226 N 
ATOM      2  C   UNL d   1     -48.823  11.687  23.050  0.00  0.00     0.359 A 
ATOM      3  C   UNL d   1     -49.216  13.042  23.291  0.00  0.00     0.273 A 
ATOM      4  N   UNL d   1     -49.595  11.438  23.203  0.00  0.00    -0.153 NA
ATOM      5  C   UNL d   1     -50.177  11.991  23.400  0.00  0.00     0.288 A 
ATOM      6  C   UNL d   1     -49.988  12.793  23.444  0.00  0.00     0.124 A 
ATOM      7  O   UNL d   1     -48.243  11.131  22.853  0.00  0.00    -0.244 OA
ATOM      8  O   UNL d   1     -49.027  13.844  23.336  0.00  0.00    -0.266 OA
ATOM      9  O   UNL d   1     -50.949  11.742  23.552  0.00  0.00    -0.265 OA
ENDROOT
BRANCH   1  10
ATOM     10  C   UNL d   1     -47.862  12.738  22.942  0.00  0.00     0.071 A 
ATOM     11  C   UNL d   1     -47.649  12.970  22.167  0.00  0.00     0.016 A 
ATOM     12  C   UNL d   1     -48.212  12.948  21.562  0.00  0.00     0.002 C 
ATOM     13  C   UNL d   1     -46.880  13.218  22.011  0.00  0.00     0.001 A 
ATOM     14  C   UNL d   1     -46.319  13.239  22.618  0.00  0.00     0.000 A 
ATOM     15  C   UNL d   1     -46.533  13.009  23.381  0.00  0.00     0.002 A 
ATOM     16  C   UNL d   1     -47.310  12.757  23.545  0.00  0.00     0.018 A 
ENDBRANCH   1  10
TORSDOF 1
ENDMDL
