MODEL 1
REMARK VINA RESULT:      57.8      0.000      0.000
REMARK  6 active torsions:
REMARK  status: ('A' for Active; 'I' for Inactive)
REMARK       I    between atoms: C_5  and  N_1 
REMARK    1  A    between atoms: C_10  and  C_5 
REMARK    2  A    between atoms: C_7  and  C_13 
REMARK       I    between atoms: N_8  and  C_7 
REMARK    3  A    between atoms: C_12  and  N_8 
REMARK    4  A    between atoms: C_13  and  C_10 
REMARK    5  A    between atoms: O_20  and  C_14 
REMARK    6  A    between atoms: C_22  and  O_20 
ROOT
ATOM      1  C   UNL d   1     -48.474  28.307  35.527  0.00  0.00     0.279 C 
ATOM      2  N   UNL d   1     -48.033  28.908  35.860  0.00  0.00    -0.208 NA
ATOM      3  O   UNL d   1     -48.631  27.609  35.962  0.00  0.00    -0.265 OA
ENDROOT
BRANCH   1   4
ATOM      4  C   UNL d   1     -48.760  28.388  34.773  0.00  0.00     0.068 C 
BRANCH   4   5
ATOM      5  C   UNL d   1     -48.960  27.724  34.332  0.00  0.00     0.068 C 
BRANCH   5   6
ATOM      6  C   UNL d   1     -49.716  27.651  34.010  0.00  0.00     0.281 C 
ATOM      7  N   UNL d   1     -50.001  26.899  33.792  0.00  0.00    -0.195 N 
ATOM      8  N   UNL d   1     -49.677  26.149  33.827  0.00  0.00    -0.163 NA
ATOM      9  C   UNL d   1     -50.756  26.833  33.471  0.00  0.00     0.088 A 
ATOM     10  C   UNL d   1     -50.242  25.604  33.522  0.00  0.00     0.103 A 
ATOM     11  C   UNL d   1     -50.163  24.784  33.446  0.00  0.00     0.022 C 
ATOM     12  C   UNL d   1     -50.895  26.037  33.309  0.00  0.00     0.040 A 
ATOM     13  C   UNL d   1     -51.294  27.452  33.331  0.00  0.00     0.021 C 
ATOM     14  O   UNL d   1     -50.188  28.324  33.904  0.00  0.00    -0.265 OA
ENDBRANCH   5   6
ENDBRANCH   4   5
ENDBRANCH   1   4
BRANCH   2  15
ATOM     15  C   UNL d   1     -47.879  29.597  35.429  0.00  0.00     0.085 A 
ATOM     16  C   UNL d   1     -47.109  29.753  35.151  0.00  0.00     0.021 A 
ATOM     17  C   UNL d   1     -46.955  30.442  34.720  0.00  0.00     0.026 A 
ATOM     18  C   UNL d   1     -47.558  30.964  34.570  0.00  0.00     0.100 A 
ATOM     19  C   UNL d   1     -48.328  30.814  34.845  0.00  0.00     0.026 A 
ATOM     20  C   UNL d   1     -48.489  30.131  35.274  0.00  0.00     0.021 A 
BRANCH  18  21
ATOM     21  O   UNL d   1     -47.386  31.650  34.136  0.00  0.00    -0.305 OA
BRANCH  21  22
ATOM     22  C   UNL d   1     -47.686  32.374  34.368  0.00  0.00     0.123 C 
ATOM     23  C   UNL d   1     -47.730  32.994  33.833  0.00  0.00     0.029 C 
ENDBRANCH  21  22
ENDBRANCH  18  21
ENDBRANCH   2  15
TORSDOF 6
ENDMDL
MODEL 2
REMARK VINA RESULT:      58.1      1.776      2.919
REMARK  6 active torsions:
REMARK  status: ('A' for Active; 'I' for Inactive)
REMARK       I    between atoms: C_5  and  N_1 
REMARK    1  A    between atoms: C_10  and  C_5 
REMARK    2  A    between atoms: C_7  and  C_13 
REMARK       I    between atoms: N_8  and  C_7 
REMARK    3  A    between atoms: C_12  and  N_8 
REMARK    4  A    between atoms: C_13  and  C_10 
REMARK    5  A    between atoms: O_20  and  C_14 
REMARK    6  A    between atoms: C_22  and  O_20 
ROOT
ATOM      1  C   UNL d   1     -51.031  27.660  33.642  0.00  0.00     0.279 C 
ATOM      2  N   UNL d   1     -50.718  28.372  33.888  0.00  0.00    -0.208 NA
ATOM      3  O   UNL d   1     -51.803  27.627  33.319  0.00  0.00    -0.265 OA
ENDROOT
BRANCH   1   4
ATOM      4  C   UNL d   1     -50.592  26.982  33.711  0.00  0.00     0.068 C 
BRANCH   4   5
ATOM      5  C   UNL d   1     -50.963  26.250  33.746  0.00  0.00     0.068 C 
BRANCH   5   6
ATOM      6  C   UNL d   1     -50.533  25.559  33.605  0.00  0.00     0.281 C 
ATOM      7  N   UNL d   1     -50.935  24.834  33.518  0.00  0.00    -0.195 N 
ATOM      8  N   UNL d   1     -51.725  24.629  33.543  0.00  0.00    -0.163 NA
ATOM      9  C   UNL d   1     -50.501  24.149  33.377  0.00  0.00     0.088 A 
ATOM     10  C   UNL d   1     -51.786  23.799  33.414  0.00  0.00     0.103 A 
ATOM     11  C   UNL d   1     -52.474  23.340  33.391  0.00  0.00     0.022 C 
ATOM     12  C   UNL d   1     -51.030  23.521  33.315  0.00  0.00     0.040 A 
ATOM     13  C   UNL d   1     -49.673  24.088  33.307  0.00  0.00     0.021 C 
ATOM     14  O   UNL d   1     -49.707  25.589  33.549  0.00  0.00    -0.265 OA
ENDBRANCH   5   6
ENDBRANCH   4   5
ENDBRANCH   1   4
BRANCH   2  15
ATOM     15  C   UNL d   1     -49.955  28.402  34.206  0.00  0.00     0.085 A 
ATOM     16  C   UNL d   1     -49.341  28.776  33.786  0.00  0.00     0.021 A 
ATOM     17  C   UNL d   1     -48.578  28.807  34.104  0.00  0.00     0.026 A 
ATOM     18  C   UNL d   1     -48.434  28.470  34.828  0.00  0.00     0.100 A 
ATOM     19  C   UNL d   1     -49.042  28.095  35.252  0.00  0.00     0.026 A 
ATOM     20  C   UNL d   1     -49.803  28.061  34.942  0.00  0.00     0.021 A 
BRANCH  18  21
ATOM     21  O   UNL d   1     -47.662  28.509  35.134  0.00  0.00    -0.305 OA
BRANCH  21  22
ATOM     22  C   UNL d   1     -47.263  29.220  35.164  0.00  0.00     0.123 C 
ATOM     23  C   UNL d   1     -47.338  29.709  35.818  0.00  0.00     0.029 C 
ENDBRANCH  21  22
ENDBRANCH  18  21
ENDBRANCH   2  15
TORSDOF 6
ENDMDL
MODEL 3
REMARK VINA RESULT:      59.5      1.682      5.458
REMARK  6 active torsions:
REMARK  status: ('A' for Active; 'I' for Inactive)
REMARK       I    between atoms: C_5  and  N_1 
REMARK    1  A    between atoms: C_10  and  C_5 
REMARK    2  A    between atoms: C_7  and  C_13 
REMARK       I    between atoms: N_8  and  C_7 
REMARK    3  A    between atoms: C_12  and  N_8 
REMARK    4  A    between atoms: C_13  and  C_10 
REMARK    5  A    between atoms: O_20  and  C_14 
REMARK    6  A    between atoms: C_22  and  O_20 
ROOT
ATOM      1  C   UNL d   1     -48.958  26.635  33.784  0.00  0.00     0.279 C 
ATOM      2  N   UNL d   1     -49.145  25.999  33.308  0.00  0.00    -0.208 NA
ATOM      3  O   UNL d   1     -48.182  26.948  33.785  0.00  0.00    -0.265 OA
ENDROOT
BRANCH   1   4
ATOM      4  C   UNL d   1     -49.528  26.964  34.258  0.00  0.00     0.068 C 
BRANCH   4   5
ATOM      5  C   UNL d   1     -49.452  27.739  34.520  0.00  0.00     0.068 C 
BRANCH   5   6
ATOM      6  C   UNL d   1     -49.377  27.900  35.326  0.00  0.00     0.281 C 
ATOM      7  N   UNL d   1     -48.818  28.462  35.584  0.00  0.00    -0.195 N 
ATOM      8  N   UNL d   1     -48.279  28.933  35.190  0.00  0.00    -0.163 NA
ATOM      9  C   UNL d   1     -48.747  28.618  36.390  0.00  0.00     0.088 A 
ATOM     10  C   UNL d   1     -47.863  29.392  35.761  0.00  0.00     0.103 A 
ATOM     11  C   UNL d   1     -47.266  29.947  35.624  0.00  0.00     0.022 C 
ATOM     12  C   UNL d   1     -48.161  29.188  36.487  0.00  0.00     0.040 A 
ATOM     13  C   UNL d   1     -49.184  28.268  37.005  0.00  0.00     0.021 C 
ATOM     14  O   UNL d   1     -49.855  27.504  35.874  0.00  0.00    -0.265 OA
ENDBRANCH   5   6
ENDBRANCH   4   5
ENDBRANCH   1   4
BRANCH   2  15
ATOM     15  C   UNL d   1     -49.912  25.692  33.309  0.00  0.00     0.085 A 
ATOM     16  C   UNL d   1     -50.568  26.205  33.306  0.00  0.00     0.021 A 
ATOM     17  C   UNL d   1     -51.336  25.898  33.307  0.00  0.00     0.026 A 
ATOM     18  C   UNL d   1     -51.445  25.093  33.310  0.00  0.00     0.100 A 
ATOM     19  C   UNL d   1     -50.794  24.576  33.314  0.00  0.00     0.026 A 
ATOM     20  C   UNL d   1     -50.029  24.875  33.313  0.00  0.00     0.021 A 
BRANCH  18  21
ATOM     21  O   UNL d   1     -52.222  24.801  33.311  0.00  0.00    -0.305 OA
BRANCH  21  22
ATOM     22  C   UNL d   1     -52.367  24.004  33.420  0.00  0.00     0.123 C 
ATOM     23  C   UNL d   1     -52.960  23.757  33.929  0.00  0.00     0.029 C 
ENDBRANCH  21  22
ENDBRANCH  18  21
ENDBRANCH   2  15
TORSDOF 6
ENDMDL
