MODEL 1
REMARK VINA RESULT:       1.3      0.000      0.000
REMARK  1 active torsions:
REMARK  status: ('A' for Active; 'I' for Inactive)
REMARK    1  A    between atoms: C_6  and  C_2 
ROOT
ATOM      1  O   UNL d   1      43.742 -15.149  36.626  0.00  0.00    -0.260 OA
ATOM      2  C   UNL d   1      44.495 -15.499  36.622  0.00  0.00     0.207 A 
ATOM      3  N   UNL d   1      44.393 -16.298  36.440  0.00  0.00    -0.120 NA
ATOM      4  C   UNL d   1      43.185 -15.732  36.448  0.00  0.00     0.262 A 
ATOM      5  N   UNL d   1      43.591 -16.445  36.332  0.00  0.00    -0.109 NA
ATOM      6  S   UNL d   1      42.369 -15.616  36.395  0.00  0.00    -0.029 SA
ENDROOT
BRANCH   2   7
ATOM      7  C   UNL d   1      45.204 -15.118  36.771  0.00  0.00     0.062 A 
ATOM      8  C   UNL d   1      45.211 -14.390  37.159  0.00  0.00     0.102 A 
ATOM      9  N   UNL d   1      45.936 -14.010  37.307  0.00  0.00    -0.242 NA
ATOM     10  C   UNL d   1      46.644 -14.355  37.068  0.00  0.00     0.099 A 
ATOM     11  C   UNL d   1      46.634 -15.080  36.682  0.00  0.00     0.021 A 
ATOM     12  C   UNL d   1      45.919 -15.468  36.530  0.00  0.00     0.007 A 
ENDBRANCH   2   7
TORSDOF 1
ENDMDL
MODEL 2
REMARK VINA RESULT:       2.1      7.236      7.795
REMARK  1 active torsions:
REMARK  status: ('A' for Active; 'I' for Inactive)
REMARK    1  A    between atoms: C_6  and  C_2 
ROOT
ATOM      1  O   UNL d   1      44.822 -13.269  43.220  0.00  0.00    -0.260 OA
ATOM      2  C   UNL d   1      45.308 -13.412  43.878  0.00  0.00     0.207 A 
ATOM      3  N   UNL d   1      45.633 -12.689  44.107  0.00  0.00    -0.120 NA
ATOM      4  C   UNL d   1      44.853 -12.461  43.049  0.00  0.00     0.262 A 
ATOM      5  N   UNL d   1      45.357 -12.102  43.601  0.00  0.00    -0.109 NA
ATOM      6  S   UNL d   1      44.449 -12.085  42.435  0.00  0.00    -0.029 SA
ENDROOT
BRANCH   2   7
ATOM      7  C   UNL d   1      45.436 -14.140  44.231  0.00  0.00     0.062 A 
ATOM      8  C   UNL d   1      46.202 -14.433  44.313  0.00  0.00     0.102 A 
ATOM      9  N   UNL d   1      46.323 -15.173  44.673  0.00  0.00    -0.242 NA
ATOM     10  C   UNL d   1      45.683 -15.613  44.947  0.00  0.00     0.099 A 
ATOM     11  C   UNL d   1      44.921 -15.319  44.864  0.00  0.00     0.021 A 
ATOM     12  C   UNL d   1      44.788 -14.583  44.507  0.00  0.00     0.007 A 
ENDBRANCH   2   7
TORSDOF 1
ENDMDL
MODEL 3
REMARK VINA RESULT:       2.9      1.659      2.973
REMARK  1 active torsions:
REMARK  status: ('A' for Active; 'I' for Inactive)
REMARK    1  A    between atoms: C_6  and  C_2 
ROOT
ATOM      1  O   UNL d   1      45.389 -14.544  37.190  0.00  0.00    -0.260 OA
ATOM      2  C   UNL d   1      45.156 -15.198  36.734  0.00  0.00     0.207 A 
ATOM      3  N   UNL d   1      45.825 -15.468  36.333  0.00  0.00    -0.120 NA
ATOM      4  C   UNL d   1      46.196 -14.418  37.066  0.00  0.00     0.262 A 
ATOM      5  N   UNL d   1      46.465 -14.993  36.534  0.00  0.00    -0.109 NA
ATOM      6  S   UNL d   1      46.647 -13.821  37.416  0.00  0.00    -0.029 SA
ENDROOT
BRANCH   2   7
ATOM      7  C   UNL d   1      44.401 -15.512  36.694  0.00  0.00     0.062 A 
ATOM      8  C   UNL d   1      44.279 -16.261  36.372  0.00  0.00     0.102 A 
ATOM      9  N   UNL d   1      43.508 -16.572  36.336  0.00  0.00    -0.242 NA
ATOM     10  C   UNL d   1      42.870 -16.137  36.618  0.00  0.00     0.099 A 
ATOM     11  C   UNL d   1      42.994 -15.391  36.939  0.00  0.00     0.021 A 
ATOM     12  C   UNL d   1      43.756 -15.071  36.980  0.00  0.00     0.007 A 
ENDBRANCH   2   7
TORSDOF 1
ENDMDL
MODEL 4
REMARK VINA RESULT:       3.6      7.226      7.715
REMARK  1 active torsions:
REMARK  status: ('A' for Active; 'I' for Inactive)
REMARK    1  A    between atoms: C_6  and  C_2 
ROOT
ATOM      1  O   UNL d   1      45.167 -14.685  44.214  0.00  0.00    -0.260 OA
ATOM      2  C   UNL d   1      45.501 -13.929  44.130  0.00  0.00     0.207 A 
ATOM      3  N   UNL d   1      46.186 -13.911  44.590  0.00  0.00    -0.120 NA
ATOM      4  C   UNL d   1      45.648 -15.124  44.722  0.00  0.00     0.262 A 
ATOM      5  N   UNL d   1      46.280 -14.642  44.955  0.00  0.00    -0.109 NA
ATOM      6  S   UNL d   1      45.515 -15.906  44.952  0.00  0.00    -0.029 SA
ENDROOT
BRANCH   2   7
ATOM      7  C   UNL d   1      45.200 -13.319  43.675  0.00  0.00     0.062 A 
ATOM      8  C   UNL d   1      44.391 -13.272  43.524  0.00  0.00     0.102 A 
ATOM      9  N   UNL d   1      44.095 -12.648  43.060  0.00  0.00    -0.242 NA
ATOM     10  C   UNL d   1      44.604 -12.080  42.752  0.00  0.00     0.099 A 
ATOM     11  C   UNL d   1      45.410 -12.129  42.903  0.00  0.00     0.021 A 
ATOM     12  C   UNL d   1      45.716 -12.745  43.363  0.00  0.00     0.007 A 
ENDBRANCH   2   7
TORSDOF 1
ENDMDL
