MODEL 1
REMARK VINA RESULT:      16.6      0.000      0.000
REMARK  3 active torsions:
REMARK  status: ('A' for Active; 'I' for Inactive)
REMARK    1  A    between atoms: C_6  and  N_1 
REMARK    2  A    between atoms: C_8  and  C_6 
REMARK    3  A    between atoms: O_15  and  C_9 
ROOT
ATOM      1  N   UNL d   1      45.390 -13.115  44.296  0.00  0.00    -0.268 N 
ATOM      2  C   UNL d   1      46.087 -12.674  44.339  0.00  0.00     0.296 A 
ATOM      3  S   UNL d   1      46.137 -12.211  43.646  0.00  0.00    -0.025 SA
ATOM      4  C   UNL d   1      45.011 -12.926  43.583  0.00  0.00     0.073 A 
ATOM      5  C   UNL d   1      45.466 -12.376  43.187  0.00  0.00     0.050 A 
ATOM      6  O   UNL d   1      46.630 -12.693  44.955  0.00  0.00    -0.259 OA
ATOM      7  C   UNL d   1      44.304 -13.193  43.251  0.00  0.00     0.018 A 
ATOM      8  C   UNL d   1      45.225 -12.080  42.450  0.00  0.00     0.008 A 
ATOM      9  C   UNL d   1      44.058 -12.903  42.518  0.00  0.00     0.002 A 
ATOM     10  C   UNL d   1      44.521 -12.344  42.115  0.00  0.00     0.001 A 
ENDROOT
BRANCH   1  11
ATOM     11  C   UNL d   1      45.115 -13.649  44.862  0.00  0.00     0.084 C 
BRANCH  11  12
ATOM     12  C   UNL d   1      45.345 -14.437  44.830  0.00  0.00     0.018 A 
ATOM     13  C   UNL d   1      44.784 -15.030  44.954  0.00  0.00     0.004 A 
ATOM     14  C   UNL d   1      45.009 -15.818  44.923  0.00  0.00     0.024 A 
ATOM     15  C   UNL d   1      45.796 -16.024  44.767  0.00  0.00     0.094 A 
ATOM     16  C   UNL d   1      46.356 -15.422  44.642  0.00  0.00     0.024 A 
ATOM     17  C   UNL d   1      46.127 -14.634  44.675  0.00  0.00     0.004 A 
BRANCH  15  18
ATOM     18  O   UNL d   1      46.058 -16.800  44.728  0.00  0.00    -0.328 OA
ATOM     19  C   UNL d   1      45.608 -17.368  44.343  0.00  0.00     0.181 C 
ENDBRANCH  15  18
ENDBRANCH  11  12
ENDBRANCH   1  11
TORSDOF 3
ENDMDL
