MODEL 1
REMARK VINA RESULT:      90.6      0.000      0.000
REMARK  9 active torsions:
REMARK  status: ('A' for Active; 'I' for Inactive)
REMARK    1  A    between atoms: N_4  and  C_1 
REMARK    2  A    between atoms: C_12  and  C_3 
REMARK       I    between atoms: C_11  and  N_4 
REMARK       I    between atoms: C_6  and  N_5 
REMARK    3  A    between atoms: O_27  and  C_6 
REMARK       I    between atoms: N_7  and  C_10 
REMARK    4  A    between atoms: C_10  and  C_28 
REMARK    5  A    between atoms: C_29  and  C_11 
REMARK    6  A    between atoms: C_25  and  C_18 
REMARK    7  A    between atoms: S_26  and  C_29 
REMARK    8  A    between atoms: C_28  and  S_26 
REMARK    9  A    between atoms: C_32  and  O_27 
ROOT
ATOM      1  N   UNL d   1     -48.264  27.525  34.717  0.00  0.00    -0.182 NA
ATOM      2  C   UNL d   1     -47.456  27.579  34.693  0.00  0.00     0.288 C 
ATOM      3  O   UNL d   1     -47.026  27.075  34.224  0.00  0.00    -0.265 OA
ENDROOT
BRANCH   1   4
ATOM      4  C   UNL d   1     -48.645  26.960  34.267  0.00  0.00     0.197 A 
ATOM      5  N   UNL d   1     -49.404  26.680  34.387  0.00  0.00    -0.221 NA
ATOM      6  C   UNL d   1     -49.562  26.126  33.817  0.00  0.00     0.090 A 
ATOM      7  C   UNL d   1     -48.900  26.065  33.348  0.00  0.00     0.058 A 
ATOM      8  S   UNL d   1     -48.337  26.576  33.623  0.00  0.00    -0.046 SA
BRANCH   6   9
ATOM      9  C   UNL d   1     -50.250  25.712  33.733  0.00  0.00     0.018 A 
ATOM     10  C   UNL d   1     -50.227  24.917  33.600  0.00  0.00     0.002 A 
ATOM     11  C   UNL d   1     -50.916  24.498  33.515  0.00  0.00     0.000 A 
ATOM     12  C   UNL d   1     -51.627  24.884  33.565  0.00  0.00     0.000 A 
ATOM     13  C   UNL d   1     -51.649  25.688  33.700  0.00  0.00     0.000 A 
ATOM     14  C   UNL d   1     -50.957  26.093  33.782  0.00  0.00     0.002 A 
BRANCH  12  15
ATOM     15  C   UNL d   1     -52.337  24.459  33.479  0.00  0.00     0.000 A 
ATOM     16  C   UNL d   1     -52.313  23.628  33.432  0.00  0.00     0.000 A 
ATOM     17  C   UNL d   1     -53.014  23.202  33.347  0.00  0.00     0.000 A 
ATOM     18  C   UNL d   1     -53.740  23.608  33.308  0.00  0.00     0.000 A 
ATOM     19  C   UNL d   1     -53.755  24.439  33.356  0.00  0.00     0.000 A 
ATOM     20  C   UNL d   1     -53.046  24.860  33.441  0.00  0.00     0.000 A 
ENDBRANCH  12  15
ENDBRANCH   6   9
ENDBRANCH   1   4
BRANCH   2  21
ATOM     21  C   UNL d   1     -47.081  28.140  35.138  0.00  0.00     0.098 C 
BRANCH  21  22
ATOM     22  S   UNL d   1     -47.549  28.436  35.797  0.00  0.00    -0.076 SA
BRANCH  22  23
ATOM     23  C   UNL d   1     -47.186  28.932  36.397  0.00  0.00     0.097 C 
BRANCH  23  24
ATOM     24  C   UNL d   1     -47.554  29.664  36.631  0.00  0.00     0.271 C 
ATOM     25  N   UNL d   1     -47.519  30.345  36.111  0.00  0.00    -0.269 N 
ATOM     26  C   UNL d   1     -47.886  31.083  36.338  0.00  0.00     0.102 A 
ATOM     27  C   UNL d   1     -47.110  30.281  35.351  0.00  0.00     0.102 A 
ATOM     28  C   UNL d   1     -47.849  31.762  35.816  0.00  0.00     0.104 A 
ATOM     29  N   UNL d   1     -47.440  31.698  35.056  0.00  0.00    -0.249 N 
ATOM     30  C   UNL d   1     -47.075  30.961  34.831  0.00  0.00     0.104 A 
ATOM     31  C   UNL d   1     -47.406  32.354  34.554  0.00  0.00     0.378 C 
ATOM     32  O   UNL d   1     -47.761  33.068  34.775  0.00  0.00    -0.237 OA
ATOM     33  O   UNL d   1     -47.955  29.723  37.378  0.00  0.00    -0.266 OA
BRANCH  31  34
ATOM     34  O   UNL d   1     -47.014  32.293  33.827  0.00  0.00    -0.257 OA
BRANCH  34  35
ATOM     35  C   UNL d   1     -46.904  32.962  33.355  0.00  0.00     0.128 C 
ATOM     36  C   UNL d   1     -46.170  33.350  33.336  0.00  0.00     0.029 C 
ENDBRANCH  34  35
ENDBRANCH  31  34
ENDBRANCH  23  24
ENDBRANCH  22  23
ENDBRANCH  21  22
ENDBRANCH   2  21
TORSDOF 9
ENDMDL
