MODEL 1
REMARK VINA RESULT:      -5.8      0.000      0.000
REMARK  2 active torsions:
REMARK  status: ('A' for Active; 'I' for Inactive)
REMARK    1  A    between atoms: N_10  and  C_1 
REMARK       I    between atoms: C_12  and  N_10 
REMARK    2  A    between atoms: C_17  and  C_12 
ROOT
ATOM      1  C   UNL d   1      57.415   0.198  31.313  0.00  0.00     0.197 A 
ATOM      2  C   UNL d   1      56.512  -0.042  32.254  0.00  0.00     0.057 A 
ATOM      3  C   UNL d   1      55.959  -0.014  32.835  0.00  0.00     0.056 A 
ATOM      4  N   UNL d   1      57.347  -0.601  31.355  0.00  0.00    -0.221 NA
ATOM      5  S   UNL d   1      56.910   0.581  31.858  0.00  0.00    -0.046 SA
ATOM      6  N   UNL d   1      55.104  -0.516  33.715  0.00  0.00    -0.238 NA
ATOM      7  S   UNL d   1      55.603   0.598  33.232  0.00  0.00    -0.066 SA
ATOM      8  C   UNL d   1      56.776  -0.758  31.949  0.00  0.00     0.090 A 
ATOM      9  C   UNL d   1      55.638  -0.713  33.146  0.00  0.00     0.088 A 
ATOM     10  C   UNL d   1      55.048   0.268  33.803  0.00  0.00     0.111 A 
ATOM     11  C   UNL d   1      56.468  -1.463  32.246  0.00  0.00     0.021 A 
ATOM     12  C   UNL d   1      55.886  -1.443  32.858  0.00  0.00     0.021 A 
ATOM     13  C   UNL d   1      54.553   0.682  34.339  0.00  0.00     0.028 C 
ENDROOT
BRANCH   1  14
ATOM     14  N   UNL d   1      57.937   0.618  30.781  0.00  0.00    -0.183 NA
ATOM     15  C   UNL d   1      58.171   0.247  30.090  0.00  0.00     0.281 C 
ATOM     16  O   UNL d   1      57.866  -0.542  29.962  0.00  0.00    -0.265 OA
BRANCH  15  17
ATOM     17  C   UNL d   1      58.652   0.634  29.599  0.00  0.00     0.063 C 
ATOM     18  C   UNL d   1      58.773   0.303  28.710  0.00  0.00     0.005 C 
ENDBRANCH  15  17
ENDBRANCH   1  14
TORSDOF 2
ENDMDL
MODEL 2
REMARK VINA RESULT:      -4.4      1.494      4.488
REMARK  2 active torsions:
REMARK  status: ('A' for Active; 'I' for Inactive)
REMARK    1  A    between atoms: N_10  and  C_1 
REMARK       I    between atoms: C_12  and  N_10 
REMARK    2  A    between atoms: C_17  and  C_12 
ROOT
ATOM      1  C   UNL d   1      57.410   0.490  31.221  0.00  0.00     0.197 A 
ATOM      2  C   UNL d   1      58.366   0.445  30.304  0.00  0.00     0.057 A 
ATOM      3  C   UNL d   1      59.048   0.387  29.885  0.00  0.00     0.056 A 
ATOM      4  N   UNL d   1      57.046   0.619  30.518  0.00  0.00    -0.221 NA
ATOM      5  S   UNL d   1      58.233   0.377  31.129  0.00  0.00    -0.046 SA
ATOM      6  N   UNL d   1      59.800   0.390  28.794  0.00  0.00    -0.238 NA
ATOM      7  S   UNL d   1      59.819   0.249  30.098  0.00  0.00    -0.066 SA
ATOM      8  C   UNL d   1      57.647   0.591  29.933  0.00  0.00     0.090 A 
ATOM      9  C   UNL d   1      59.045   0.475  29.060  0.00  0.00     0.088 A 
ATOM     10  C   UNL d   1      60.305   0.252  29.386  0.00  0.00     0.111 A 
ATOM     11  C   UNL d   1      57.626   0.682  29.114  0.00  0.00     0.021 A 
ATOM     12  C   UNL d   1      58.340   0.623  28.665  0.00  0.00     0.021 A 
ATOM     13  C   UNL d   1      61.133   0.134  29.327  0.00  0.00     0.028 C 
ENDROOT
BRANCH   1  14
ATOM     14  N   UNL d   1      57.014   0.469  31.980  0.00  0.00    -0.183 NA
ATOM     15  C   UNL d   1      56.699  -0.242  32.237  0.00  0.00     0.281 C 
ATOM     16  O   UNL d   1      56.797  -0.911  31.712  0.00  0.00    -0.265 OA
BRANCH  15  17
ATOM     17  C   UNL d   1      56.335  -0.262  32.935  0.00  0.00     0.063 C 
ATOM     18  C   UNL d   1      55.640  -0.903  33.079  0.00  0.00     0.005 C 
ENDBRANCH  15  17
ENDBRANCH   1  14
TORSDOF 2
ENDMDL
MODEL 3
REMARK VINA RESULT:      -3.5      1.240      1.614
REMARK  2 active torsions:
REMARK  status: ('A' for Active; 'I' for Inactive)
REMARK    1  A    between atoms: N_10  and  C_1 
REMARK       I    between atoms: C_12  and  N_10 
REMARK    2  A    between atoms: C_17  and  C_12 
ROOT
ATOM      1  C   UNL d   1      57.921   0.203  30.700  0.00  0.00     0.197 A 
ATOM      2  C   UNL d   1      57.236  -0.203  31.760  0.00  0.00     0.057 A 
ATOM      3  C   UNL d   1      56.753  -0.563  32.290  0.00  0.00     0.056 A 
ATOM      4  N   UNL d   1      58.155   0.673  31.306  0.00  0.00    -0.221 NA
ATOM      5  S   UNL d   1      57.349  -0.356  30.943  0.00  0.00    -0.046 SA
ATOM      6  N   UNL d   1      56.205  -0.771  33.479  0.00  0.00    -0.238 NA
ATOM      7  S   UNL d   1      56.225  -1.176  32.231  0.00  0.00    -0.066 SA
ATOM      8  C   UNL d   1      57.724   0.421  31.980  0.00  0.00     0.090 A 
ATOM      9  C   UNL d   1      56.734  -0.313  33.081  0.00  0.00     0.088 A 
ATOM     10  C   UNL d   1      55.871  -1.308  33.006  0.00  0.00     0.111 A 
ATOM     11  C   UNL d   1      57.718   0.682  32.763  0.00  0.00     0.021 A 
ATOM     12  C   UNL d   1      57.213   0.309  33.327  0.00  0.00     0.021 A 
ATOM     13  C   UNL d   1      55.296  -1.881  33.219  0.00  0.00     0.028 C 
ENDROOT
BRANCH   1  14
ATOM     14  N   UNL d   1      58.214   0.257  29.898  0.00  0.00    -0.183 NA
ATOM     15  C   UNL d   1      58.789  -0.273  29.655  0.00  0.00     0.281 C 
ATOM     16  O   UNL d   1      59.049  -0.842  30.239  0.00  0.00    -0.265 OA
BRANCH  15  17
ATOM     17  C   UNL d   1      59.059  -0.223  28.916  0.00  0.00     0.063 C 
ATOM     18  C   UNL d   1      59.897  -0.631  28.699  0.00  0.00     0.005 C 
ENDBRANCH  15  17
ENDBRANCH   1  14
TORSDOF 2
ENDMDL
MODEL 4
REMARK VINA RESULT:      -3.5      1.476      4.189
REMARK  2 active torsions:
REMARK  status: ('A' for Active; 'I' for Inactive)
REMARK    1  A    between atoms: N_10  and  C_1 
REMARK       I    between atoms: C_12  and  N_10 
REMARK    2  A    between atoms: C_17  and  C_12 
ROOT
ATOM      1  C   UNL d   1      56.968   0.600  32.249  0.00  0.00     0.197 A 
ATOM      2  C   UNL d   1      57.872   0.527  31.281  0.00  0.00     0.057 A 
ATOM      3  C   UNL d   1      58.280   0.463  30.594  0.00  0.00     0.056 A 
ATOM      4  N   UNL d   1      57.681   0.682  32.607  0.00  0.00    -0.221 NA
ATOM      5  S   UNL d   1      57.045   0.501  31.422  0.00  0.00    -0.046 SA
ATOM      6  N   UNL d   1      59.362   0.426  29.830  0.00  0.00    -0.238 NA
ATOM      7  S   UNL d   1      58.052   0.356  29.822  0.00  0.00    -0.066 SA
ATOM      8  C   UNL d   1      58.257   0.637  31.999  0.00  0.00     0.090 A 
ATOM      9  C   UNL d   1      59.108   0.507  30.589  0.00  0.00     0.088 A 
ATOM     10  C   UNL d   1      58.759   0.332  29.328  0.00  0.00     0.111 A 
ATOM     11  C   UNL d   1      59.081   0.682  32.013  0.00  0.00     0.021 A 
ATOM     12  C   UNL d   1      59.518   0.616  31.294  0.00  0.00     0.021 A 
ATOM     13  C   UNL d   1      58.803   0.231  28.497  0.00  0.00     0.028 C 
ENDROOT
BRANCH   1  14
ATOM     14  N   UNL d   1      56.213   0.610  32.652  0.00  0.00    -0.183 NA
ATOM     15  C   UNL d   1      56.002  -0.039  33.104  0.00  0.00     0.281 C 
ATOM     16  O   UNL d   1      56.568  -0.681  33.131  0.00  0.00    -0.265 OA
BRANCH  15  17
ATOM     17  C   UNL d   1      55.307  -0.030  33.475  0.00  0.00     0.063 C 
ATOM     18  C   UNL d   1      55.291  -0.024  34.432  0.00  0.00     0.005 C 
ENDBRANCH  15  17
ENDBRANCH   1  14
TORSDOF 2
ENDMDL
MODEL 5
REMARK VINA RESULT:      -3.5      2.623      4.075
REMARK  2 active torsions:
REMARK  status: ('A' for Active; 'I' for Inactive)
REMARK    1  A    between atoms: N_10  and  C_1 
REMARK       I    between atoms: C_12  and  N_10 
REMARK    2  A    between atoms: C_17  and  C_12 
ROOT
ATOM      1  C   UNL d   1      59.190  -1.966  28.886  0.00  0.00     0.197 A 
ATOM      2  C   UNL d   1      58.605  -0.960  29.521  0.00  0.00     0.057 A 
ATOM      3  C   UNL d   1      58.194  -0.476  30.012  0.00  0.00     0.056 A 
ATOM      4  N   UNL d   1      59.384  -1.304  28.476  0.00  0.00    -0.221 NA
ATOM      5  S   UNL d   1      58.705  -1.793  29.545  0.00  0.00    -0.046 SA
ATOM      6  N   UNL d   1      57.724   0.682  30.453  0.00  0.00    -0.238 NA
ATOM      7  S   UNL d   1      57.748  -0.611  30.677  0.00  0.00    -0.066 SA
ATOM      8  C   UNL d   1      59.016  -0.664  28.874  0.00  0.00     0.090 A 
ATOM      9  C   UNL d   1      58.174   0.342  29.878  0.00  0.00     0.088 A 
ATOM     10  C   UNL d   1      57.444   0.145  30.960  0.00  0.00     0.111 A 
ATOM     11  C   UNL d   1      59.007   0.147  28.726  0.00  0.00     0.021 A 
ATOM     12  C   UNL d   1      58.577   0.664  29.238  0.00  0.00     0.021 A 
ATOM     13  C   UNL d   1      56.957   0.286  31.629  0.00  0.00     0.028 C 
ENDROOT
BRANCH   1  14
ATOM     14  N   UNL d   1      59.443  -2.758  28.683  0.00  0.00    -0.183 NA
ATOM     15  C   UNL d   1      60.222  -2.967  28.820  0.00  0.00     0.281 C 
ATOM     16  O   UNL d   1      60.722  -2.361  29.160  0.00  0.00    -0.265 OA
BRANCH  15  17
ATOM     17  C   UNL d   1      60.454  -3.697  28.634  0.00  0.00     0.063 C 
ATOM     18  C   UNL d   1      61.133  -4.117  29.160  0.00  0.00     0.005 C 
ENDBRANCH  15  17
ENDBRANCH   1  14
TORSDOF 2
ENDMDL
