MODEL 1
REMARK VINA RESULT:      28.9      0.000      0.000
REMARK  1 active torsions:
REMARK  status: ('A' for Active; 'I' for Inactive)
REMARK    1  A    between atoms: N_9  and  C_4 
ROOT
ATOM      1  N   UNL d   1     -51.187  25.798  33.343  0.00  0.00    -0.195 N 
ATOM      2  C   UNL d   1     -51.152  24.968  33.331  0.00  0.00     0.168 A 
ATOM      3  C   UNL d   1     -51.838  24.522  33.330  0.00  0.00     0.073 A 
ATOM      4  C   UNL d   1     -50.491  26.226  33.343  0.00  0.00     0.154 A 
ATOM      5  N   UNL d   1     -52.592  25.739  33.353  0.00  0.00    -0.143 NA
ATOM      6  C   UNL d   1     -52.557  24.909  33.341  0.00  0.00     0.185 A 
ATOM      7  N   UNL d   1     -50.422  24.591  33.320  0.00  0.00    -0.227 NA
ATOM      8  C   UNL d   1     -51.803  23.702  33.318  0.00  0.00     0.007 A 
ATOM      9  N   UNL d   1     -53.261  24.471  33.340  0.00  0.00    -0.225 NA
ATOM     10  C   UNL d   1     -49.767  25.857  33.333  0.00  0.00     0.057 A 
ATOM     11  C   UNL d   1     -52.488  23.256  33.317  0.00  0.00     0.019 A 
ATOM     12  C   UNL d   1     -49.732  25.028  33.321  0.00  0.00     0.086 A 
ATOM     13  C   UNL d   1     -53.226  23.642  33.328  0.00  0.00     0.083 A 
ATOM     14  C   UNL d   1     -51.070  23.324  33.307  0.00  0.00     0.000 C 
ATOM     15  C   UNL d   1     -48.972  24.639  33.310  0.00  0.00     0.021 C 
ATOM     16  C   UNL d   1     -53.912  23.204  33.327  0.00  0.00     0.021 C 
ENDROOT
BRANCH   4  17
ATOM     17  N   UNL d   1     -50.536  27.081  33.356  0.00  0.00    -0.271 N 
ATOM     18  C   UNL d   1     -51.245  27.552  33.307  0.00  0.00     0.184 A 
ATOM     19  N   UNL d   1     -51.019  28.365  33.341  0.00  0.00    -0.222 NA
ATOM     20  C   UNL d   1     -50.162  28.405  33.410  0.00  0.00     0.120 A 
ATOM     21  C   UNL d   1     -49.869  27.609  33.419  0.00  0.00     0.104 A 
ENDBRANCH   4  17
TORSDOF 1
ENDMDL
