MODEL 1
REMARK VINA RESULT:      -8.5      0.000      0.000
REMARK  2 active torsions:
REMARK  status: ('A' for Active; 'I' for Inactive)
REMARK    1  A    between atoms: C_6  and  C_1 
REMARK    2  A    between atoms: C_10  and  C_6 
ROOT
ATOM      1  C   UNL d   1     -48.833  12.495  22.780  0.00  0.00     0.139 A 
ATOM      2  C   UNL d   1     -47.827  11.791  23.313  0.00  0.00     0.064 A 
ATOM      3  C   UNL d   1     -48.646  11.816  23.211  0.00  0.00     0.220 A 
ATOM      4  C   UNL d   1     -47.505  12.455  22.944  0.00  0.00     0.106 A 
ATOM      5  O   UNL d   1     -48.128  12.886  22.618  0.00  0.00    -0.304 OA
ATOM      6  C   UNL d   1     -46.696  12.588  22.949  0.00  0.00     0.067 A 
ATOM      7  C   UNL d   1     -47.335  11.251  23.691  0.00  0.00     0.009 A 
ATOM      8  O   UNL d   1     -49.193  11.260  23.491  0.00  0.00    -0.284 OA
ATOM      9  C   UNL d   1     -46.203  12.051  23.326  0.00  0.00     0.198 A 
ATOM     10  C   UNL d   1     -46.518  11.382  23.698  0.00  0.00     0.042 A 
ATOM     11  O   UNL d   1     -45.377  12.182  23.333  0.00  0.00    -0.286 OA
ENDROOT
BRANCH   1  12
ATOM     12  C   UNL d   1     -49.588  12.736  22.555  0.00  0.00     0.028 C 
BRANCH  12  13
ATOM     13  C   UNL d   1     -49.873  13.479  22.800  0.00  0.00     0.002 A 
ATOM     14  C   UNL d   1     -50.389  13.526  23.440  0.00  0.00     0.001 A 
ATOM     15  C   UNL d   1     -50.674  14.258  23.687  0.00  0.00     0.007 A 
ATOM     16  C   UNL d   1     -50.444  14.950  23.291  0.00  0.00     0.035 A 
ATOM     17  C   UNL d   1     -49.925  14.902  22.647  0.00  0.00     0.007 A 
ATOM     18 BR   UNL d   1     -50.722  15.684  23.527  0.00  0.00    -0.049 Br
ATOM     19  C   UNL d   1     -49.640  14.163  22.402  0.00  0.00     0.001 A 
ENDBRANCH  12  13
ENDBRANCH   1  12
TORSDOF 2
ENDMDL
MODEL 2
REMARK VINA RESULT:      -8.4      1.177      1.824
REMARK  2 active torsions:
REMARK  status: ('A' for Active; 'I' for Inactive)
REMARK    1  A    between atoms: C_6  and  C_1 
REMARK    2  A    between atoms: C_10  and  C_6 
ROOT
ATOM      1  C   UNL d   1     -47.487  13.793  22.821  0.00  0.00     0.139 A 
ATOM      2  C   UNL d   1     -46.678  12.775  23.137  0.00  0.00     0.064 A 
ATOM      3  C   UNL d   1     -46.699  13.576  22.934  0.00  0.00     0.220 A 
ATOM      4  C   UNL d   1     -47.453  12.497  23.150  0.00  0.00     0.106 A 
ATOM      5  O   UNL d   1     -47.949  13.127  22.955  0.00  0.00    -0.304 OA
ATOM      6  C   UNL d   1     -47.617  11.714  23.335  0.00  0.00     0.067 A 
ATOM      7  C   UNL d   1     -46.055  12.267  23.311  0.00  0.00     0.009 A 
ATOM      8  O   UNL d   1     -46.046  14.080  22.856  0.00  0.00    -0.284 OA
ATOM      9  C   UNL d   1     -46.997  11.205  23.509  0.00  0.00     0.198 A 
ATOM     10  C   UNL d   1     -46.215  11.478  23.498  0.00  0.00     0.042 A 
ATOM     11  O   UNL d   1     -47.158  10.407  23.698  0.00  0.00    -0.286 OA
ENDROOT
BRANCH   1  12
ATOM     12  C   UNL d   1     -47.760  14.542  22.613  0.00  0.00     0.028 C 
BRANCH  12  13
ATOM     13  C   UNL d   1     -48.579  14.693  22.598  0.00  0.00     0.002 A 
ATOM     14  C   UNL d   1     -48.940  15.043  23.251  0.00  0.00     0.001 A 
ATOM     15  C   UNL d   1     -49.749  15.195  23.242  0.00  0.00     0.007 A 
ATOM     16  C   UNL d   1     -50.203  14.996  22.577  0.00  0.00     0.035 A 
ATOM     17  C   UNL d   1     -49.840  14.644  21.921  0.00  0.00     0.007 A 
ATOM     18 BR   UNL d   1     -51.010  15.142  22.557  0.00  0.00    -0.049 Br
ATOM     19  C   UNL d   1     -49.024  14.493  21.934  0.00  0.00     0.001 A 
ENDBRANCH  12  13
ENDBRANCH   1  12
TORSDOF 2
ENDMDL
MODEL 3
REMARK VINA RESULT:      -7.8      1.841      3.859
REMARK  2 active torsions:
REMARK  status: ('A' for Active; 'I' for Inactive)
REMARK    1  A    between atoms: C_6  and  C_1 
REMARK    2  A    between atoms: C_10  and  C_6 
ROOT
ATOM      1  C   UNL d   1     -48.849  12.963  23.227  0.00  0.00     0.139 A 
ATOM      2  C   UNL d   1     -50.043  13.541  23.402  0.00  0.00     0.064 A 
ATOM      3  C   UNL d   1     -49.647  12.816  23.378  0.00  0.00     0.220 A 
ATOM      4  C   UNL d   1     -49.491  14.136  23.266  0.00  0.00     0.106 A 
ATOM      5  O   UNL d   1     -48.757  13.776  23.158  0.00  0.00    -0.304 OA
ATOM      6  C   UNL d   1     -49.716  14.925  23.255  0.00  0.00     0.067 A 
ATOM      7  C   UNL d   1     -50.833  13.733  23.531  0.00  0.00     0.009 A 
ATOM      8  O   UNL d   1     -49.985  12.068  23.487  0.00  0.00    -0.284 OA
ATOM      9  C   UNL d   1     -50.503  15.120  23.383  0.00  0.00     0.198 A 
ATOM     10  C   UNL d   1     -51.064  14.527  23.521  0.00  0.00     0.042 A 
ATOM     11  O   UNL d   1     -50.737  15.922  23.373  0.00  0.00    -0.286 OA
ENDROOT
BRANCH   1  12
ATOM     12  C   UNL d   1     -48.256  12.396  23.157  0.00  0.00     0.028 C 
BRANCH  12  13
ATOM     13  C   UNL d   1     -47.491  12.627  22.921  0.00  0.00     0.002 A 
ATOM     14  C   UNL d   1     -46.897  12.707  23.486  0.00  0.00     0.001 A 
ATOM     15  C   UNL d   1     -46.140  12.935  23.258  0.00  0.00     0.007 A 
ATOM     16  C   UNL d   1     -45.972  13.085  22.460  0.00  0.00     0.035 A 
ATOM     17  C   UNL d   1     -46.569  13.004  21.892  0.00  0.00     0.007 A 
ATOM     18 BR   UNL d   1     -45.221  13.313  22.221  0.00  0.00    -0.049 Br
ATOM     19  C   UNL d   1     -47.331  12.774  22.125  0.00  0.00     0.001 A 
ENDBRANCH  12  13
ENDBRANCH   1  12
TORSDOF 2
ENDMDL
MODEL 4
REMARK VINA RESULT:      -7.7      2.107      3.730
REMARK  2 active torsions:
REMARK  status: ('A' for Active; 'I' for Inactive)
REMARK    1  A    between atoms: C_6  and  C_1 
REMARK    2  A    between atoms: C_10  and  C_6 
ROOT
ATOM      1  C   UNL d   1     -48.632  13.764  23.066  0.00  0.00     0.139 A 
ATOM      2  C   UNL d   1     -49.862  13.339  23.375  0.00  0.00     0.064 A 
ATOM      3  C   UNL d   1     -49.401  14.010  23.235  0.00  0.00     0.220 A 
ATOM      4  C   UNL d   1     -49.378  12.677  23.293  0.00  0.00     0.106 A 
ATOM      5  O   UNL d   1     -48.621  12.943  23.102  0.00  0.00    -0.304 OA
ATOM      6  C   UNL d   1     -49.678  11.921  23.399  0.00  0.00     0.067 A 
ATOM      7  C   UNL d   1     -50.657  13.248  23.566  0.00  0.00     0.009 A 
ATOM      8  O   UNL d   1     -49.659  14.797  23.258  0.00  0.00    -0.284 OA
ATOM      9  C   UNL d   1     -50.471  11.826  23.589  0.00  0.00     0.198 A 
ATOM     10  C   UNL d   1     -50.963  12.487  23.673  0.00  0.00     0.042 A 
ATOM     11  O   UNL d   1     -50.781  11.058  23.698  0.00  0.00    -0.286 OA
ENDROOT
BRANCH   1  12
ATOM     12  C   UNL d   1     -47.992  14.253  22.893  0.00  0.00     0.028 C 
BRANCH  12  13
ATOM     13  C   UNL d   1     -47.254  13.916  22.702  0.00  0.00     0.002 A 
ATOM     14  C   UNL d   1     -46.670  13.859  23.281  0.00  0.00     0.001 A 
ATOM     15  C   UNL d   1     -45.940  13.527  23.098  0.00  0.00     0.007 A 
ATOM     16  C   UNL d   1     -45.790  13.247  22.332  0.00  0.00     0.035 A 
ATOM     17  C   UNL d   1     -46.377  13.303  21.751  0.00  0.00     0.007 A 
ATOM     18 BR   UNL d   1     -45.066  12.913  22.138  0.00  0.00    -0.049 Br
ATOM     19  C   UNL d   1     -47.112  13.639  21.939  0.00  0.00     0.001 A 
ENDBRANCH  12  13
ENDBRANCH   1  12
TORSDOF 2
ENDMDL
MODEL 5
REMARK VINA RESULT:      -7.0      9.093     10.256
REMARK  2 active torsions:
REMARK  status: ('A' for Active; 'I' for Inactive)
REMARK    1  A    between atoms: C_6  and  C_1 
REMARK    2  A    between atoms: C_10  and  C_6 
ROOT
ATOM      1  C   UNL d   1     -40.368  14.849  19.080  0.00  0.00     0.139 A 
ATOM      2  C   UNL d   1     -40.013  14.652  17.806  0.00  0.00     0.064 A 
ATOM      3  C   UNL d   1     -40.472  14.358  18.426  0.00  0.00     0.220 A 
ATOM      4  C   UNL d   1     -39.624  15.326  18.076  0.00  0.00     0.106 A 
ATOM      5  O   UNL d   1     -39.845  15.444  18.862  0.00  0.00    -0.304 OA
ATOM      6  C   UNL d   1     -39.121  15.748  17.584  0.00  0.00     0.067 A 
ATOM      7  C   UNL d   1     -39.900  14.393  17.033  0.00  0.00     0.009 A 
ATOM      8  O   UNL d   1     -40.957  13.686  18.402  0.00  0.00    -0.284 OA
ATOM      9  C   UNL d   1     -39.006  15.492  16.813  0.00  0.00     0.198 A 
ATOM     10  C   UNL d   1     -39.393  14.816  16.534  0.00  0.00     0.042 A 
ATOM     11  O   UNL d   1     -38.494  15.918  16.308  0.00  0.00    -0.286 OA
ENDROOT
BRANCH   1  12
ATOM     12  C   UNL d   1     -40.724  14.758  19.818  0.00  0.00     0.028 C 
BRANCH  12  13
ATOM     13  C   UNL d   1     -40.304  14.965  20.507  0.00  0.00     0.002 A 
ATOM     14  C   UNL d   1     -39.801  14.414  20.857  0.00  0.00     0.001 A 
ATOM     15  C   UNL d   1     -39.383  14.613  21.538  0.00  0.00     0.007 A 
ATOM     16  C   UNL d   1     -39.466  15.367  21.873  0.00  0.00     0.035 A 
ATOM     17  C   UNL d   1     -39.972  15.920  21.520  0.00  0.00     0.007 A 
ATOM     18 BR   UNL d   1     -39.055  15.576  22.551  0.00  0.00    -0.049 Br
ATOM     19  C   UNL d   1     -40.391  15.716  20.835  0.00  0.00     0.001 A 
ENDBRANCH  12  13
ENDBRANCH   1  12
TORSDOF 2
ENDMDL
MODEL 6
REMARK VINA RESULT:      -6.7      9.027     10.520
REMARK  2 active torsions:
REMARK  status: ('A' for Active; 'I' for Inactive)
REMARK    1  A    between atoms: C_6  and  C_1 
REMARK    2  A    between atoms: C_10  and  C_6 
ROOT
ATOM      1  C   UNL d   1     -40.488  14.879  18.376  0.00  0.00     0.139 A 
ATOM      2  C   UNL d   1     -40.618  14.657  19.689  0.00  0.00     0.064 A 
ATOM      3  C   UNL d   1     -40.808  14.368  18.939  0.00  0.00     0.220 A 
ATOM      4  C   UNL d   1     -40.179  15.348  19.590  0.00  0.00     0.106 A 
ATOM      5  O   UNL d   1     -40.102  15.482  18.780  0.00  0.00    -0.304 OA
ATOM      6  C   UNL d   1     -39.906  15.770  20.239  0.00  0.00     0.067 A 
ATOM      7  C   UNL d   1     -40.787  14.381  20.445  0.00  0.00     0.009 A 
ATOM      8  O   UNL d   1     -41.244  13.684  18.773  0.00  0.00    -0.284 OA
ATOM      9  C   UNL d   1     -40.073  15.497  20.995  0.00  0.00     0.198 A 
ATOM     10  C   UNL d   1     -40.513  14.803  21.102  0.00  0.00     0.042 A 
ATOM     11  O   UNL d   1     -39.797  15.922  21.659  0.00  0.00    -0.286 OA
ENDROOT
BRANCH   1  12
ATOM     12  C   UNL d   1     -40.546  14.799  17.558  0.00  0.00     0.028 C 
BRANCH  12  13
ATOM     13  C   UNL d   1     -39.889  14.983  17.078  0.00  0.00     0.002 A 
ATOM     14  C   UNL d   1     -39.323  14.404  16.925  0.00  0.00     0.001 A 
ATOM     15  C   UNL d   1     -38.673  14.580  16.452  0.00  0.00     0.007 A 
ATOM     16  C   UNL d   1     -38.585  15.338  16.129  0.00  0.00     0.035 A 
ATOM     17  C   UNL d   1     -39.154  15.920  16.283  0.00  0.00     0.007 A 
ATOM     18 BR   UNL d   1     -37.941  15.525  15.656  0.00  0.00    -0.049 Br
ATOM     19  C   UNL d   1     -39.809  15.739  16.760  0.00  0.00     0.001 A 
ENDBRANCH  12  13
ENDBRANCH   1  12
TORSDOF 2
ENDMDL
MODEL 7
REMARK VINA RESULT:      -6.2      9.297      9.838
REMARK  2 active torsions:
REMARK  status: ('A' for Active; 'I' for Inactive)
REMARK    1  A    between atoms: C_6  and  C_1 
REMARK    2  A    between atoms: C_10  and  C_6 
ROOT
ATOM      1  C   UNL d   1     -40.083  14.915  20.696  0.00  0.00     0.139 A 
ATOM      2  C   UNL d   1     -39.406  14.673  21.825  0.00  0.00     0.064 A 
ATOM      3  C   UNL d   1     -39.909  15.209  21.447  0.00  0.00     0.220 A 
ATOM      4  C   UNL d   1     -39.269  14.047  21.308  0.00  0.00     0.106 A 
ATOM      5  O   UNL d   1     -39.687  14.199  20.614  0.00  0.00    -0.304 OA
ATOM      6  C   UNL d   1     -38.786  13.420  21.525  0.00  0.00     0.067 A 
ATOM      7  C   UNL d   1     -39.058  14.676  22.570  0.00  0.00     0.009 A 
ATOM      8  O   UNL d   1     -40.193  15.921  21.761  0.00  0.00    -0.284 OA
ATOM      9  C   UNL d   1     -38.438  13.420  22.268  0.00  0.00     0.198 A 
ATOM     10  C   UNL d   1     -38.571  14.046  22.793  0.00  0.00     0.042 A 
ATOM     11  O   UNL d   1     -37.945  12.783  22.494  0.00  0.00    -0.286 OA
ENDROOT
BRANCH   1  12
ATOM     12  C   UNL d   1     -40.565  15.274  20.133  0.00  0.00     0.028 C 
BRANCH  12  13
ATOM     13  C   UNL d   1     -40.397  15.175  19.323  0.00  0.00     0.002 A 
ATOM     14  C   UNL d   1     -39.927  15.729  18.934  0.00  0.00     0.001 A 
ATOM     15  C   UNL d   1     -39.758  15.636  18.134  0.00  0.00     0.007 A 
ATOM     16  C   UNL d   1     -40.059  14.986  17.717  0.00  0.00     0.035 A 
ATOM     17  C   UNL d   1     -40.532  14.429  18.108  0.00  0.00     0.007 A 
ATOM     18 BR   UNL d   1     -39.897  14.883  16.920  0.00  0.00    -0.049 Br
ATOM     19  C   UNL d   1     -40.700  14.526  18.915  0.00  0.00     0.001 A 
ENDBRANCH  12  13
ENDBRANCH   1  12
TORSDOF 2
ENDMDL
