MODEL 1
REMARK VINA RESULT:      -6.5      0.000      0.000
REMARK  3 active torsions:
REMARK  status: ('A' for Active; 'I' for Inactive)
REMARK    1  A    between atoms: C_6  and  C_5 
REMARK    2  A    between atoms: C_7  and  C_6 
REMARK    3  A    between atoms: O_11  and  C_7 
ROOT
ATOM      1  N   UNL d   1      52.589  31.196  52.739  0.00  0.00    -0.163 NA
ATOM      2  C   UNL d   1      53.122  30.788  53.222  0.00  0.00     0.313 A 
ATOM      3  C   UNL d   1      52.703  32.004  52.855  0.00  0.00     0.288 A 
ATOM      4  S   UNL d   1      53.561  31.350  53.634  0.00  0.00    -0.021 SA
ATOM      5  C   UNL d   1      53.307  32.094  53.410  0.00  0.00     0.097 A 
ATOM      6  O   UNL d   1      53.194  29.968  53.277  0.00  0.00    -0.258 OA
ATOM      7  O   UNL d   1      52.286  32.613  52.480  0.00  0.00    -0.265 OA
ENDROOT
BRANCH   5   8
ATOM      8  C   UNL d   1      53.596  32.815  53.686  0.00  0.00     0.080 C 
BRANCH   8   9
ATOM      9  C   UNL d   1      54.330  32.848  54.055  0.00  0.00     0.297 C 
ATOM     10  O   UNL d   1      55.022  32.791  53.606  0.00  0.00    -0.259 OA
BRANCH   9  11
ATOM     11  O   UNL d   1      54.385  32.937  54.868  0.00  0.00    -0.296 OA
ATOM     12  C   UNL d   1      54.857  33.527  55.189  0.00  0.00     0.185 C 
ENDBRANCH   9  11
ENDBRANCH   8   9
ENDBRANCH   5   8
TORSDOF 3
ENDMDL
MODEL 2
REMARK VINA RESULT:      -6.1      1.783      3.127
REMARK  3 active torsions:
REMARK  status: ('A' for Active; 'I' for Inactive)
REMARK    1  A    between atoms: C_6  and  C_5 
REMARK    2  A    between atoms: C_7  and  C_6 
REMARK    3  A    between atoms: O_11  and  C_7 
ROOT
ATOM      1  N   UNL d   1      53.878  34.265  55.070  0.00  0.00    -0.163 NA
ATOM      2  C   UNL d   1      53.293  34.421  54.506  0.00  0.00     0.313 A 
ATOM      3  C   UNL d   1      54.230  33.544  54.881  0.00  0.00     0.288 A 
ATOM      4  S   UNL d   1      53.291  33.794  53.973  0.00  0.00    -0.021 SA
ATOM      5  C   UNL d   1      53.863  33.257  54.201  0.00  0.00     0.097 A 
ATOM      6  O   UNL d   1      52.807  35.087  54.488  0.00  0.00    -0.258 OA
ATOM      7  O   UNL d   1      54.843  33.177  55.301  0.00  0.00    -0.265 OA
ENDROOT
BRANCH   5   8
ATOM      8  C   UNL d   1      54.048  32.547  53.823  0.00  0.00     0.080 C 
BRANCH   8   9
ATOM      9  C   UNL d   1      53.470  32.145  53.400  0.00  0.00     0.297 C 
ATOM     10  O   UNL d   1      53.209  32.440  52.672  0.00  0.00    -0.259 OA
BRANCH   9  11
ATOM     11  O   UNL d   1      53.146  31.450  53.691  0.00  0.00    -0.296 OA
ATOM     12  C   UNL d   1      53.036  30.805  53.195  0.00  0.00     0.185 C 
ENDBRANCH   9  11
ENDBRANCH   8   9
ENDBRANCH   5   8
TORSDOF 3
ENDMDL
MODEL 3
REMARK VINA RESULT:      -5.9      1.636      2.687
REMARK  3 active torsions:
REMARK  status: ('A' for Active; 'I' for Inactive)
REMARK    1  A    between atoms: C_6  and  C_5 
REMARK    2  A    between atoms: C_7  and  C_6 
REMARK    3  A    between atoms: O_11  and  C_7 
ROOT
ATOM      1  N   UNL d   1      53.629  31.911  53.768  0.00  0.00    -0.163 NA
ATOM      2  C   UNL d   1      53.670  32.607  54.212  0.00  0.00     0.313 A 
ATOM      3  C   UNL d   1      53.074  32.020  53.169  0.00  0.00     0.288 A 
ATOM      4  S   UNL d   1      53.138  33.142  53.881  0.00  0.00    -0.021 SA
ATOM      5  C   UNL d   1      52.773  32.784  53.243  0.00  0.00     0.097 A 
ATOM      6  O   UNL d   1      54.157  32.735  54.865  0.00  0.00    -0.258 OA
ATOM      7  O   UNL d   1      52.859  31.461  52.596  0.00  0.00    -0.265 OA
ENDROOT
BRANCH   5   8
ATOM      8  C   UNL d   1      52.201  33.121  52.753  0.00  0.00     0.080 C 
BRANCH   8   9
ATOM      9  C   UNL d   1      51.813  33.807  52.987  0.00  0.00     0.297 C 
ATOM     10  O   UNL d   1      52.199  34.537  52.939  0.00  0.00    -0.259 OA
BRANCH   9  11
ATOM     11  O   UNL d   1      51.044  33.777  53.269  0.00  0.00    -0.296 OA
ATOM     12  C   UNL d   1      50.458  34.237  52.924  0.00  0.00     0.185 C 
ENDBRANCH   9  11
ENDBRANCH   8   9
ENDBRANCH   5   8
TORSDOF 3
ENDMDL
MODEL 4
REMARK VINA RESULT:      -5.8      2.413      3.506
REMARK  3 active torsions:
REMARK  status: ('A' for Active; 'I' for Inactive)
REMARK    1  A    between atoms: C_6  and  C_5 
REMARK    2  A    between atoms: C_7  and  C_6 
REMARK    3  A    between atoms: O_11  and  C_7 
ROOT
ATOM      1  N   UNL d   1      53.683  34.501  55.015  0.00  0.00    -0.163 NA
ATOM      2  C   UNL d   1      53.607  33.711  54.782  0.00  0.00     0.313 A 
ATOM      3  C   UNL d   1      53.233  34.965  54.504  0.00  0.00     0.288 A 
ATOM      4  S   UNL d   1      53.107  33.695  54.127  0.00  0.00    -0.021 SA
ATOM      5  C   UNL d   1      52.878  34.460  53.956  0.00  0.00     0.097 A 
ATOM      6  O   UNL d   1      53.967  33.064  55.144  0.00  0.00    -0.258 OA
ATOM      7  O   UNL d   1      53.152  35.788  54.537  0.00  0.00    -0.265 OA
ENDROOT
BRANCH   5   8
ATOM      8  C   UNL d   1      52.379  34.697  53.344  0.00  0.00     0.080 C 
BRANCH   8   9
ATOM      9  C   UNL d   1      51.825  34.172  53.040  0.00  0.00     0.297 C 
ATOM     10  O   UNL d   1      52.061  33.584  52.507  0.00  0.00    -0.259 OA
BRANCH   9  11
ATOM     11  O   UNL d   1      51.037  34.223  53.258  0.00  0.00    -0.296 OA
ATOM     12  C   UNL d   1      50.447  34.225  52.687  0.00  0.00     0.185 C 
ENDBRANCH   9  11
ENDBRANCH   8   9
ENDBRANCH   5   8
TORSDOF 3
ENDMDL
