MODEL 1
REMARK VINA RESULT:      -2.5      0.000      0.000
REMARK  4 active torsions:
REMARK  status: ('A' for Active; 'I' for Inactive)
REMARK       I    between atoms: N_2  and  C_1 
REMARK    1  A    between atoms: C_3  and  C_1 
REMARK    2  A    between atoms: C_7  and  N_2 
REMARK    3  A    between atoms: O_17  and  C_9 
REMARK    4  A    between atoms: C_18  and  O_17 
ROOT
ATOM      1  C   UNL d   1      32.540  15.918 -24.781  0.00  0.00     0.279 C 
ATOM      2  N   UNL d   1      31.844  15.472 -24.865  0.00  0.00    -0.208 NA
ATOM      3  O   UNL d   1      33.241  15.620 -25.096  0.00  0.00    -0.265 OA
ENDROOT
BRANCH   2   4
ATOM      4  C   UNL d   1      31.135  15.757 -24.555  0.00  0.00     0.085 A 
ATOM      5  C   UNL d   1      30.921  15.587 -23.790  0.00  0.00     0.021 A 
ATOM      6  C   UNL d   1      30.212  15.872 -23.480  0.00  0.00     0.026 A 
ATOM      7  C   UNL d   1      29.717  16.327 -23.935  0.00  0.00     0.100 A 
ATOM      8  C   UNL d   1      29.922  16.518 -24.738  0.00  0.00     0.026 A 
ATOM      9  C   UNL d   1      30.636  16.223 -25.028  0.00  0.00     0.021 A 
BRANCH   7  10
ATOM     10  O   UNL d   1      29.011  16.605 -23.611  0.00  0.00    -0.305 OA
BRANCH  10  11
ATOM     11  C   UNL d   1      28.421  16.081 -23.431  0.00  0.00     0.123 C 
ATOM     12  C   UNL d   1      27.672  16.368 -23.242  0.00  0.00     0.029 C 
ENDBRANCH  10  11
ENDBRANCH   7  10
ENDBRANCH   2   4
BRANCH   1  13
ATOM     13  C   UNL d   1      32.526  16.651 -24.387  0.00  0.00     0.058 A 
ATOM     14  C   UNL d   1      32.674  16.682 -23.576  0.00  0.00     0.006 A 
ATOM     15  C   UNL d   1      32.662  17.398 -23.183  0.00  0.00     0.021 A 
ATOM     16  C   UNL d   1      32.499  18.115 -23.600  0.00  0.00     0.103 A 
ATOM     17  C   UNL d   1      32.353  18.066 -24.411  0.00  0.00     0.021 A 
ATOM     18  N   UNL d   1      32.500  18.701 -23.221  0.00  0.00    -0.148 N 
ATOM     19  C   UNL d   1      32.367  17.335 -24.805  0.00  0.00     0.006 A 
ENDBRANCH   1  13
TORSDOF 4
ENDMDL
MODEL 2
REMARK VINA RESULT:      -1.0      5.008      6.755
REMARK  4 active torsions:
REMARK  status: ('A' for Active; 'I' for Inactive)
REMARK       I    between atoms: N_2  and  C_1 
REMARK    1  A    between atoms: C_3  and  C_1 
REMARK    2  A    between atoms: C_7  and  N_2 
REMARK    3  A    between atoms: O_17  and  C_9 
REMARK    4  A    between atoms: C_18  and  O_17 
ROOT
ATOM      1  C   UNL d   1      31.968  23.095 -20.321  0.00  0.00     0.279 C 
ATOM      2  N   UNL d   1      31.979  22.317 -20.027  0.00  0.00    -0.208 NA
ATOM      3  O   UNL d   1      31.726  23.702 -19.820  0.00  0.00    -0.265 OA
ENDROOT
BRANCH   2   4
ATOM      4  C   UNL d   1      32.220  21.698 -20.516  0.00  0.00     0.085 A 
ATOM      5  C   UNL d   1      33.001  21.477 -20.548  0.00  0.00     0.021 A 
ATOM      6  C   UNL d   1      33.241  20.857 -21.036  0.00  0.00     0.026 A 
ATOM      7  C   UNL d   1      32.700  20.459 -21.493  0.00  0.00     0.100 A 
ATOM      8  C   UNL d   1      31.878  20.675 -21.475  0.00  0.00     0.026 A 
ATOM      9  C   UNL d   1      31.659  21.297 -20.980  0.00  0.00     0.021 A 
BRANCH   7  10
ATOM     10  O   UNL d   1      32.956  19.842 -21.977  0.00  0.00    -0.305 OA
BRANCH  10  11
ATOM     11  C   UNL d   1      32.825  19.880 -22.775  0.00  0.00     0.123 C 
ATOM     12  C   UNL d   1      32.981  19.217 -23.239  0.00  0.00     0.029 C 
ENDBRANCH  10  11
ENDBRANCH   7  10
ENDBRANCH   2   4
BRANCH   1  13
ATOM     13  C   UNL d   1      32.198  23.252 -21.105  0.00  0.00     0.058 A 
ATOM     14  C   UNL d   1      31.639  23.216 -21.711  0.00  0.00     0.006 A 
ATOM     15  C   UNL d   1      31.857  23.369 -22.482  0.00  0.00     0.021 A 
ATOM     16  C   UNL d   1      32.658  23.567 -22.672  0.00  0.00     0.103 A 
ATOM     17  C   UNL d   1      33.204  23.599 -22.054  0.00  0.00     0.021 A 
ATOM     18  N   UNL d   1      32.796  23.690 -23.344  0.00  0.00    -0.148 N 
ATOM     19  C   UNL d   1      32.975  23.442 -21.271  0.00  0.00     0.006 A 
ENDBRANCH   1  13
TORSDOF 4
ENDMDL
MODEL 3
REMARK VINA RESULT:       0.1      1.688      3.694
REMARK  4 active torsions:
REMARK  status: ('A' for Active; 'I' for Inactive)
REMARK       I    between atoms: N_2  and  C_1 
REMARK    1  A    between atoms: C_3  and  C_1 
REMARK    2  A    between atoms: C_7  and  N_2 
REMARK    3  A    between atoms: O_17  and  C_9 
REMARK    4  A    between atoms: C_18  and  O_17 
ROOT
ATOM      1  C   UNL d   1      28.909  17.820 -24.745  0.00  0.00     0.279 C 
ATOM      2  N   UNL d   1      29.683  17.956 -25.015  0.00  0.00    -0.208 NA
ATOM      3  O   UNL d   1      28.306  18.319 -25.006  0.00  0.00    -0.265 OA
ENDROOT
BRANCH   2   4
ATOM      4  C   UNL d   1      30.297  17.466 -24.764  0.00  0.00     0.085 A 
ATOM      5  C   UNL d   1      30.817  17.717 -24.193  0.00  0.00     0.021 A 
ATOM      6  C   UNL d   1      31.431  17.227 -23.941  0.00  0.00     0.026 A 
ATOM      7  C   UNL d   1      31.524  16.487 -24.260  0.00  0.00     0.100 A 
ATOM      8  C   UNL d   1      30.991  16.205 -24.859  0.00  0.00     0.026 A 
ATOM      9  C   UNL d   1      30.384  16.710 -25.097  0.00  0.00     0.021 A 
BRANCH   7  10
ATOM     10  O   UNL d   1      32.143  16.009 -23.998  0.00  0.00    -0.305 OA
BRANCH  10  11
ATOM     11  C   UNL d   1      32.100  15.666 -23.266  0.00  0.00     0.123 C 
ATOM     12  C   UNL d   1      32.691  15.822 -22.713  0.00  0.00     0.029 C 
ENDBRANCH  10  11
ENDBRANCH   7  10
ENDBRANCH   2   4
BRANCH   1  13
ATOM     13  C   UNL d   1      28.749  17.194 -24.222  0.00  0.00     0.058 A 
ATOM     14  C   UNL d   1      28.699  17.339 -23.411  0.00  0.00     0.006 A 
ATOM     15  C   UNL d   1      28.543  16.729 -22.892  0.00  0.00     0.021 A 
ATOM     16  C   UNL d   1      28.430  15.940 -23.177  0.00  0.00     0.103 A 
ATOM     17  C   UNL d   1      28.483  15.812 -23.990  0.00  0.00     0.021 A 
ATOM     18  N   UNL d   1      28.299  15.453 -22.695  0.00  0.00    -0.148 N 
ATOM     19  C   UNL d   1      28.643  16.438 -24.513  0.00  0.00     0.006 A 
ENDBRANCH   1  13
TORSDOF 4
ENDMDL
MODEL 4
REMARK VINA RESULT:       0.4      1.922      3.525
REMARK  4 active torsions:
REMARK  status: ('A' for Active; 'I' for Inactive)
REMARK       I    between atoms: N_2  and  C_1 
REMARK    1  A    between atoms: C_3  and  C_1 
REMARK    2  A    between atoms: C_7  and  N_2 
REMARK    3  A    between atoms: O_17  and  C_9 
REMARK    4  A    between atoms: C_18  and  O_17 
ROOT
ATOM      1  C   UNL d   1      31.613  16.864 -24.545  0.00  0.00     0.279 C 
ATOM      2  N   UNL d   1      31.616  17.687 -24.660  0.00  0.00    -0.208 NA
ATOM      3  O   UNL d   1      31.209  16.391 -25.086  0.00  0.00    -0.265 OA
ENDROOT
BRANCH   2   4
ATOM      4  C   UNL d   1      32.016  18.175 -24.128  0.00  0.00     0.085 A 
ATOM      5  C   UNL d   1      32.779  18.409 -24.277  0.00  0.00     0.021 A 
ATOM      6  C   UNL d   1      33.179  18.896 -23.745  0.00  0.00     0.026 A 
ATOM      7  C   UNL d   1      32.815  19.149 -23.064  0.00  0.00     0.100 A 
ATOM      8  C   UNL d   1      32.016  18.916 -22.890  0.00  0.00     0.026 A 
ATOM      9  C   UNL d   1      31.634  18.428 -23.435  0.00  0.00     0.021 A 
BRANCH   7  10
ATOM     10  O   UNL d   1      33.228  19.636 -22.542  0.00  0.00    -0.305 OA
BRANCH  10  11
ATOM     11  C   UNL d   1      32.944  19.749 -21.793  0.00  0.00     0.123 C 
ATOM     12  C   UNL d   1      33.237  20.374 -21.342  0.00  0.00     0.029 C 
ENDBRANCH  10  11
ENDBRANCH   7  10
ENDBRANCH   2   4
BRANCH   1  13
ATOM     13  C   UNL d   1      32.011  16.529 -23.897  0.00  0.00     0.058 A 
ATOM     14  C   UNL d   1      32.832  16.442 -23.919  0.00  0.00     0.006 A 
ATOM     15  C   UNL d   1      33.229  16.114 -23.286  0.00  0.00     0.021 A 
ATOM     16  C   UNL d   1      32.806  15.858 -22.599  0.00  0.00     0.103 A 
ATOM     17  C   UNL d   1      31.987  15.951 -22.593  0.00  0.00     0.021 A 
ATOM     18  N   UNL d   1      33.189  15.583 -22.084  0.00  0.00    -0.148 N 
ATOM     19  C   UNL d   1      31.589  16.286 -23.241  0.00  0.00     0.006 A 
ENDBRANCH   1  13
TORSDOF 4
ENDMDL
