MODEL 1
REMARK VINA RESULT:      -3.1      0.000      0.000
REMARK  4 active torsions:
REMARK  status: ('A' for Active; 'I' for Inactive)
REMARK       I    between atoms: C_4  and  N_10 
REMARK    1  A    between atoms: C_7  and  C_4 
REMARK    2  A    between atoms: C_11  and  C_5 
REMARK    3  A    between atoms: N_10  and  C_13 
REMARK    4  A    between atoms: C_13  and  C_11 
ROOT
ATOM      1  C   UNL d   1      32.890  20.523 -21.517  0.00  0.00     0.279 C 
ATOM      2  O   UNL d   1      33.135  20.047 -20.889  0.00  0.00    -0.265 OA
ATOM      3  N   UNL d   1      32.806  20.200 -22.276  0.00  0.00    -0.206 NA
ENDROOT
BRANCH   1   4
ATOM      4  C   UNL d   1      32.724  21.337 -21.390  0.00  0.00     0.058 A 
ATOM      5  C   UNL d   1      33.035  21.907 -21.899  0.00  0.00     0.005 A 
ATOM      6  C   UNL d   1      32.878  22.697 -21.780  0.00  0.00     0.000 A 
ATOM      7  C   UNL d   1      33.195  23.257 -22.297  0.00  0.00     0.000 C 
ATOM      8  C   UNL d   1      32.405  22.928 -21.148  0.00  0.00     0.000 A 
ATOM      9  C   UNL d   1      32.090  22.370 -20.635  0.00  0.00     0.000 A 
ATOM     10  C   UNL d   1      32.244  21.572 -20.748  0.00  0.00     0.005 A 
ENDBRANCH   1   4
BRANCH   3  11
ATOM     11  C   UNL d   1      32.966  19.415 -22.401  0.00  0.00     0.104 C 
BRANCH  11  12
ATOM     12  C   UNL d   1      32.910  19.099 -23.165  0.00  0.00     0.040 C 
BRANCH  12  13
ATOM     13  C   UNL d   1      32.789  18.304 -23.269  0.00  0.00     0.090 A 
ATOM     14  N   UNL d   1      32.105  18.027 -23.647  0.00  0.00    -0.238 NA
ATOM     15  C   UNL d   1      32.137  17.210 -23.671  0.00  0.00     0.111 A 
ATOM     16  S   UNL d   1      32.833  16.968 -23.314  0.00  0.00    -0.066 SA
ATOM     17  C   UNL d   1      31.562  16.696 -24.002  0.00  0.00     0.028 C 
ATOM     18  C   UNL d   1      33.241  17.641 -23.063  0.00  0.00     0.056 A 
ENDBRANCH  12  13
ENDBRANCH  11  12
ENDBRANCH   3  11
TORSDOF 4
ENDMDL
MODEL 2
REMARK VINA RESULT:      -3.0      1.674      4.814
REMARK  4 active torsions:
REMARK  status: ('A' for Active; 'I' for Inactive)
REMARK       I    between atoms: C_4  and  N_10 
REMARK    1  A    between atoms: C_7  and  C_4 
REMARK    2  A    between atoms: C_11  and  C_5 
REMARK    3  A    between atoms: N_10  and  C_13 
REMARK    4  A    between atoms: C_13  and  C_11 
ROOT
ATOM      1  C   UNL d   1      32.865  18.806 -23.133  0.00  0.00     0.279 C 
ATOM      2  O   UNL d   1      33.136  19.289 -23.744  0.00  0.00    -0.265 OA
ATOM      3  N   UNL d   1      32.772  19.113 -22.369  0.00  0.00    -0.206 NA
ENDROOT
BRANCH   1   4
ATOM      4  C   UNL d   1      32.680  17.999 -23.283  0.00  0.00     0.058 A 
ATOM      5  C   UNL d   1      31.944  17.795 -23.596  0.00  0.00     0.005 A 
ATOM      6  C   UNL d   1      31.760  17.017 -23.743  0.00  0.00     0.000 A 
ATOM      7  C   UNL d   1      31.020  16.825 -24.056  0.00  0.00     0.000 C 
ATOM      8  C   UNL d   1      32.311  16.429 -23.579  0.00  0.00     0.000 A 
ATOM      9  C   UNL d   1      33.047  16.620 -23.268  0.00  0.00     0.000 A 
ATOM     10  C   UNL d   1      33.240  17.403 -23.117  0.00  0.00     0.005 A 
ENDBRANCH   1   4
BRANCH   3  11
ATOM     11  C   UNL d   1      32.950  19.890 -22.221  0.00  0.00     0.104 C 
BRANCH  11  12
ATOM     12  C   UNL d   1      32.988  20.164 -21.440  0.00  0.00     0.040 C 
BRANCH  12  13
ATOM     13  C   UNL d   1      32.781  20.928 -21.266  0.00  0.00     0.090 A 
ATOM     14  N   UNL d   1      33.232  21.563 -21.549  0.00  0.00    -0.238 NA
ATOM     15  C   UNL d   1      32.892  22.260 -21.286  0.00  0.00     0.111 A 
ATOM     16  S   UNL d   1      32.231  22.072 -20.841  0.00  0.00    -0.066 SA
ATOM     17  C   UNL d   1      33.163  23.039 -21.439  0.00  0.00     0.028 C 
ATOM     18  C   UNL d   1      32.157  21.249 -20.824  0.00  0.00     0.056 A 
ENDBRANCH  12  13
ENDBRANCH  11  12
ENDBRANCH   3  11
TORSDOF 4
ENDMDL
MODEL 3
REMARK VINA RESULT:      -2.6      1.038      1.863
REMARK  4 active torsions:
REMARK  status: ('A' for Active; 'I' for Inactive)
REMARK       I    between atoms: C_4  and  N_10 
REMARK    1  A    between atoms: C_7  and  C_4 
REMARK    2  A    between atoms: C_11  and  C_5 
REMARK    3  A    between atoms: N_10  and  C_13 
REMARK    4  A    between atoms: C_13  and  C_11 
ROOT
ATOM      1  C   UNL d   1      32.910  19.183 -22.436  0.00  0.00     0.279 C 
ATOM      2  O   UNL d   1      33.222  18.667 -21.873  0.00  0.00    -0.265 OA
ATOM      3  N   UNL d   1      32.554  18.885 -23.122  0.00  0.00    -0.206 NA
ENDROOT
BRANCH   1   4
ATOM      4  C   UNL d   1      32.951  20.014 -22.315  0.00  0.00     0.058 A 
ATOM      5  C   UNL d   1      32.741  20.337 -21.585  0.00  0.00     0.005 A 
ATOM      6  C   UNL d   1      32.779  21.140 -21.462  0.00  0.00     0.000 A 
ATOM      7  C   UNL d   1      32.566  21.450 -20.728  0.00  0.00     0.000 C 
ATOM      8  C   UNL d   1      33.029  21.634 -22.071  0.00  0.00     0.000 A 
ATOM      9  C   UNL d   1      33.240  21.325 -22.802  0.00  0.00     0.000 A 
ATOM     10  C   UNL d   1      33.204  20.516 -22.932  0.00  0.00     0.005 A 
ENDBRANCH   1   4
BRANCH   3  11
ATOM     11  C   UNL d   1      32.513  18.084 -23.241  0.00  0.00     0.104 C 
BRANCH  11  12
ATOM     12  C   UNL d   1      32.094  17.784 -23.890  0.00  0.00     0.040 C 
BRANCH  12  13
ATOM     13  C   UNL d   1      31.892  16.999 -23.917  0.00  0.00     0.090 A 
ATOM     14  N   UNL d   1      31.109  16.760 -23.783  0.00  0.00    -0.238 NA
ATOM     15  C   UNL d   1      31.073  15.945 -23.845  0.00  0.00     0.111 A 
ATOM     16  S   UNL d   1      31.824  15.666 -24.017  0.00  0.00    -0.066 SA
ATOM     17  C   UNL d   1      30.393  15.465 -23.751  0.00  0.00     0.028 C 
ATOM     18  C   UNL d   1      32.335  16.314 -24.063  0.00  0.00     0.056 A 
ENDBRANCH  12  13
ENDBRANCH  11  12
ENDBRANCH   3  11
TORSDOF 4
ENDMDL
MODEL 4
REMARK VINA RESULT:      -2.4      2.470      5.584
REMARK  4 active torsions:
REMARK  status: ('A' for Active; 'I' for Inactive)
REMARK       I    between atoms: C_4  and  N_10 
REMARK    1  A    between atoms: C_7  and  C_4 
REMARK    2  A    between atoms: C_11  and  C_5 
REMARK    3  A    between atoms: N_10  and  C_13 
REMARK    4  A    between atoms: C_13  and  C_11 
ROOT
ATOM      1  C   UNL d   1      30.148  17.179 -24.535  0.00  0.00     0.279 C 
ATOM      2  O   UNL d   1      30.023  17.862 -24.981  0.00  0.00    -0.265 OA
ATOM      3  N   UNL d   1      30.894  17.024 -24.209  0.00  0.00    -0.206 NA
ENDROOT
BRANCH   1   4
ATOM      4  C   UNL d   1      29.517  16.636 -24.410  0.00  0.00     0.058 A 
ATOM      5  C   UNL d   1      28.985  16.757 -23.791  0.00  0.00     0.005 A 
ATOM      6  C   UNL d   1      28.374  16.235 -23.665  0.00  0.00     0.000 A 
ATOM      7  C   UNL d   1      27.848  16.367 -23.042  0.00  0.00     0.000 C 
ATOM      8  C   UNL d   1      28.285  15.583 -24.158  0.00  0.00     0.000 A 
ATOM      9  C   UNL d   1      28.809  15.453 -24.778  0.00  0.00     0.000 A 
ATOM     10  C   UNL d   1      29.428  15.974 -24.911  0.00  0.00     0.005 A 
ENDBRANCH   1   4
BRANCH   3  11
ATOM     11  C   UNL d   1      31.503  17.546 -24.329  0.00  0.00     0.104 C 
BRANCH  11  12
ATOM     12  C   UNL d   1      32.174  17.515 -23.844  0.00  0.00     0.040 C 
BRANCH  12  13
ATOM     13  C   UNL d   1      32.560  18.197 -23.638  0.00  0.00     0.090 A 
ATOM     14  N   UNL d   1      32.607  18.431 -22.844  0.00  0.00    -0.238 NA
ATOM     15  C   UNL d   1      33.024  19.135 -22.806  0.00  0.00     0.111 A 
ATOM     16  S   UNL d   1      33.241  19.347 -23.566  0.00  0.00    -0.066 SA
ATOM     17  C   UNL d   1      33.206  19.573 -22.114  0.00  0.00     0.028 C 
ATOM     18  C   UNL d   1      32.956  18.771 -24.086  0.00  0.00     0.056 A 
ENDBRANCH  12  13
ENDBRANCH  11  12
ENDBRANCH   3  11
TORSDOF 4
ENDMDL
MODEL 5
REMARK VINA RESULT:      -1.2      3.175      4.805
REMARK  4 active torsions:
REMARK  status: ('A' for Active; 'I' for Inactive)
REMARK       I    between atoms: C_4  and  N_10 
REMARK    1  A    between atoms: C_7  and  C_4 
REMARK    2  A    between atoms: C_11  and  C_5 
REMARK    3  A    between atoms: N_10  and  C_13 
REMARK    4  A    between atoms: C_13  and  C_11 
ROOT
ATOM      1  C   UNL d   1      31.006  17.752 -24.651  0.00  0.00     0.279 C 
ATOM      2  O   UNL d   1      30.432  18.189 -25.051  0.00  0.00    -0.265 OA
ATOM      3  N   UNL d   1      30.839  16.983 -24.391  0.00  0.00    -0.206 NA
ENDROOT
BRANCH   1   4
ATOM      4  C   UNL d   1      31.764  18.085 -24.506  0.00  0.00     0.058 A 
ATOM      5  C   UNL d   1      31.926  18.443 -23.781  0.00  0.00     0.005 A 
ATOM      6  C   UNL d   1      32.658  18.767 -23.634  0.00  0.00     0.000 A 
ATOM      7  C   UNL d   1      32.808  19.122 -22.904  0.00  0.00     0.000 C 
ATOM      8  C   UNL d   1      33.240  18.738 -24.215  0.00  0.00     0.000 A 
ATOM      9  C   UNL d   1      33.091  18.385 -24.941  0.00  0.00     0.000 A 
ATOM     10  C   UNL d   1      32.355  18.056 -25.095  0.00  0.00     0.005 A 
ENDBRANCH   1   4
BRANCH   3  11
ATOM     11  C   UNL d   1      30.109  16.659 -24.530  0.00  0.00     0.104 C 
BRANCH  11  12
ATOM     12  C   UNL d   1      29.799  16.097 -24.005  0.00  0.00     0.040 C 
BRANCH  12  13
ATOM     13  C   UNL d   1      29.024  15.868 -24.064  0.00  0.00     0.090 A 
ATOM     14  N   UNL d   1      28.541  15.836 -23.391  0.00  0.00    -0.238 NA
ATOM     15  C   UNL d   1      27.795  15.589 -23.619  0.00  0.00     0.111 A 
ATOM     16  S   UNL d   1      27.802  15.463 -24.429  0.00  0.00    -0.066 SA
ATOM     17  C   UNL d   1      27.130  15.478 -23.122  0.00  0.00     0.028 C 
ATOM     18  C   UNL d   1      28.560  15.634 -24.710  0.00  0.00     0.056 A 
ENDBRANCH  12  13
ENDBRANCH  11  12
ENDBRANCH   3  11
TORSDOF 4
ENDMDL
MODEL 6
REMARK VINA RESULT:      -0.3      2.729      3.974
REMARK  4 active torsions:
REMARK  status: ('A' for Active; 'I' for Inactive)
REMARK       I    between atoms: C_4  and  N_10 
REMARK    1  A    between atoms: C_7  and  C_4 
REMARK    2  A    between atoms: C_11  and  C_5 
REMARK    3  A    between atoms: N_10  and  C_13 
REMARK    4  A    between atoms: C_13  and  C_11 
ROOT
ATOM      1  C   UNL d   1      32.479  22.984 -19.268  0.00  0.00     0.279 C 
ATOM      2  O   UNL d   1      31.932  23.389 -19.734  0.00  0.00    -0.265 OA
ATOM      3  N   UNL d   1      32.976  22.415 -19.608  0.00  0.00    -0.206 NA
ENDROOT
BRANCH   1   4
ATOM      4  C   UNL d   1      32.534  23.147 -18.445  0.00  0.00     0.058 A 
ATOM      5  C   UNL d   1      31.929  22.911 -17.935  0.00  0.00     0.005 A 
ATOM      6  C   UNL d   1      31.977  23.066 -17.138  0.00  0.00     0.000 A 
ATOM      7  C   UNL d   1      31.366  22.824 -16.639  0.00  0.00     0.000 C 
ATOM      8  C   UNL d   1      32.633  23.462 -16.838  0.00  0.00     0.000 A 
ATOM      9  C   UNL d   1      33.241  23.702 -17.335  0.00  0.00     0.000 A 
ATOM     10  C   UNL d   1      33.199  23.549 -18.140  0.00  0.00     0.005 A 
ENDBRANCH   1   4
BRANCH   3  11
ATOM     11  C   UNL d   1      32.925  22.256 -20.401  0.00  0.00     0.104 C 
BRANCH  11  12
ATOM     12  C   UNL d   1      33.241  21.551 -20.702  0.00  0.00     0.040 C 
BRANCH  12  13
ATOM     13  C   UNL d   1      33.191  21.388 -21.494  0.00  0.00     0.090 A 
ATOM     14  N   UNL d   1      33.174  20.604 -21.764  0.00  0.00    -0.238 NA
ATOM     15  C   UNL d   1      33.122  20.612 -22.581  0.00  0.00     0.111 A 
ATOM     16  S   UNL d   1      33.107  21.392 -22.830  0.00  0.00    -0.066 SA
ATOM     17  C   UNL d   1      33.090  19.945 -23.088  0.00  0.00     0.028 C 
ATOM     18  C   UNL d   1      33.149  21.877 -22.162  0.00  0.00     0.056 A 
ENDBRANCH  12  13
ENDBRANCH  11  12
ENDBRANCH   3  11
TORSDOF 4
ENDMDL
