MODEL 1
REMARK VINA RESULT:      50.5      0.000      0.000
REMARK  5 active torsions:
REMARK  status: ('A' for Active; 'I' for Inactive)
REMARK    1  A    between atoms: C_7  and  C_1 
REMARK    2  A    between atoms: C_8  and  C_2 
REMARK    3  A    between atoms: O_16  and  C_8 
REMARK    4  A    between atoms: O_17  and  C_12 
REMARK    5  A    between atoms: C_21  and  O_16 
ROOT
ATOM      1  C   UNL d   1      58.216  49.392  50.640  0.00  0.00     0.069 A 
ATOM      2  C   UNL d   1      58.040  49.576  51.425  0.00  0.00     0.166 A 
ATOM      3  C   UNL d   1      59.004  49.307  50.403  0.00  0.00     0.200 A 
ATOM      4  O   UNL d   1      58.645  49.678  51.983  0.00  0.00    -0.301 OA
ATOM      5  C   UNL d   1      59.610  49.407  50.954  0.00  0.00     0.062 A 
ATOM      6  C   UNL d   1      59.430  49.590  51.737  0.00  0.00     0.106 A 
ATOM      7  C   UNL d   1      60.048  49.691  52.294  0.00  0.00     0.067 A 
ATOM      8  C   UNL d   1      60.402  49.321  50.717  0.00  0.00     0.009 A 
ATOM      9  O   UNL d   1      59.187  49.123  49.620  0.00  0.00    -0.286 OA
ATOM     10  C   UNL d   1      60.831  49.606  52.057  0.00  0.00     0.198 A 
ATOM     11  C   UNL d   1      61.009  49.420  51.264  0.00  0.00     0.042 A 
ATOM     12  O   UNL d   1      61.439  49.704  52.603  0.00  0.00    -0.286 OA
ENDROOT
BRANCH   1  13
ATOM     13  C   UNL d   1      57.607  49.294  50.094  0.00  0.00     0.028 A 
ATOM     14  C   UNL d   1      56.987  48.780  50.272  0.00  0.00     0.094 A 
ATOM     15  C   UNL d   1      56.378  48.681  49.726  0.00  0.00     0.024 A 
ATOM     16  C   UNL d   1      56.385  49.091  49.005  0.00  0.00     0.002 A 
ATOM     17  C   UNL d   1      57.011  49.602  48.838  0.00  0.00     0.000 A 
ATOM     18  C   UNL d   1      57.625  49.706  49.382  0.00  0.00     0.002 A 
BRANCH  14  19
ATOM     19  O   UNL d   1      56.979  48.376  50.982  0.00  0.00    -0.328 OA
ATOM     20  C   UNL d   1      56.837  47.563  50.987  0.00  0.00     0.181 C 
ENDBRANCH  14  19
ENDBRANCH   1  13
BRANCH   2  21
ATOM     21  C   UNL d   1      57.248  49.662  51.662  0.00  0.00     0.323 C 
ATOM     22  O   UNL d   1      56.653  49.703  51.089  0.00  0.00    -0.257 OA
BRANCH  21  23
ATOM     23  O   UNL d   1      57.059  49.705  52.463  0.00  0.00    -0.270 OA
BRANCH  23  24
ATOM     24  C   UNL d   1      56.283  49.611  52.700  0.00  0.00     0.126 C 
ATOM     25  C   UNL d   1      56.079  49.010  53.226  0.00  0.00     0.029 C 
ENDBRANCH  23  24
ENDBRANCH  21  23
ENDBRANCH   2  21
TORSDOF 5
ENDMDL
