MODEL 1
REMARK VINA RESULT:       6.0      0.000      0.000
REMARK  6 active torsions:
REMARK  status: ('A' for Active; 'I' for Inactive)
REMARK    1  A    between atoms: C_7  and  C_1 
REMARK    2  A    between atoms: C_6  and  O_13 
REMARK    3  A    between atoms: C_12  and  C_6 
REMARK    4  A    between atoms: O_13  and  C_10 
REMARK    5  A    between atoms: C_28  and  C_14 
REMARK    6  A    between atoms: C_31  and  C_28 
ROOT
ATOM      1  C   UNL d   1      59.421  -2.772  29.018  0.00  0.00     0.064 A 
ATOM      2  C   UNL d   1      59.178  -4.159  28.802  0.00  0.00     0.062 A 
ATOM      3  C   UNL d   1      58.894  -3.391  28.890  0.00  0.00     0.199 A 
ATOM      4  C   UNL d   1      60.231  -2.920  29.057  0.00  0.00     0.126 A 
ATOM      5  C   UNL d   1      59.987  -4.307  28.841  0.00  0.00     0.105 A 
ATOM      6  O   UNL d   1      60.515  -3.687  28.968  0.00  0.00    -0.305 OA
ATOM      7  C   UNL d   1      58.650  -4.778  28.674  0.00  0.00     0.007 A 
ATOM      8  C   UNL d   1      59.743  -5.698  28.624  0.00  0.00     0.105 A 
ATOM      9  C   UNL d   1      60.272  -5.074  28.752  0.00  0.00     0.050 A 
ATOM     10  C   UNL d   1      58.934  -5.550  28.585  0.00  0.00     0.023 A 
ATOM     11  O   UNL d   1      58.083  -3.242  28.851  0.00  0.00    -0.286 OA
ENDROOT
BRANCH   1  12
ATOM     12  C   UNL d   1      59.137  -2.003  29.107  0.00  0.00     0.007 A 
ATOM     13  C   UNL d   1      58.681  -1.798  29.775  0.00  0.00     0.027 A 
ATOM     14  C   UNL d   1      58.398  -1.039  29.866  0.00  0.00     0.123 A 
ATOM     15  O   UNL d   1      57.948  -0.843  30.527  0.00  0.00    -0.301 OA
ATOM     16  C   UNL d   1      58.564  -0.457  29.288  0.00  0.00     0.123 A 
ATOM     17  C   UNL d   1      57.662  -0.072  30.618  0.00  0.00     0.149 A 
ATOM     18  C   UNL d   1      57.823   0.504  30.050  0.00  0.00     0.149 A 
ATOM     19  O   UNL d   1      58.279   0.308  29.380  0.00  0.00    -0.301 OA
ATOM     20  C   UNL d   1      59.020  -0.662  28.620  0.00  0.00     0.027 A 
ATOM     21  C   UNL d   1      59.303  -1.430  28.532  0.00  0.00     0.002 A 
ENDBRANCH   1  12
BRANCH  10  22
ATOM     22  C   UNL d   1      58.405  -6.178  28.456  0.00  0.00     0.002 C 
BRANCH  22  23
ATOM     23  C   UNL d   1      57.598  -6.069  28.578  0.00  0.00     0.000 C 
ATOM     24  C   UNL d   1      57.122  -6.703  28.787  0.00  0.00     0.000 C 
ENDBRANCH  22  23
ENDBRANCH  10  22
BRANCH   8  25
ATOM     25  O   UNL d   1      60.026  -6.474  28.534  0.00  0.00    -0.271 OA
BRANCH  25  26
ATOM     26  C   UNL d   1      60.651  -6.744  29.000  0.00  0.00     0.323 C 
ATOM     27  O   UNL d   1      61.133  -6.213  29.399  0.00  0.00    -0.257 OA
BRANCH  26  28
ATOM     28  C   UNL d   1      60.792  -7.557  29.069  0.00  0.00     0.163 A 
ATOM     29  O   UNL d   1      60.737  -8.005  29.756  0.00  0.00    -0.300 OA
ATOM     30  C   UNL d   1      60.924  -8.788  29.578  0.00  0.00     0.123 A 
ATOM     31  C   UNL d   1      61.097  -8.823  28.766  0.00  0.00     0.029 A 
ATOM     32  C   UNL d   1      61.014  -8.057  28.455  0.00  0.00     0.032 A 
ENDBRANCH  26  28
ENDBRANCH  25  26
ENDBRANCH   8  25
TORSDOF 6
ENDMDL
