MODEL 1
REMARK VINA RESULT:      30.9      0.000      0.000
REMARK  2 active torsions:
REMARK  status: ('A' for Active; 'I' for Inactive)
REMARK    1  A    between atoms: C_8  and  N_1 
REMARK    2  A    between atoms: C_12  and  C_8 
ROOT
ATOM      1  N   UNL d   1     -57.408 -98.756 -44.313  0.00  0.00    -0.238 N 
ATOM      2  C   UNL d   1     -57.807 -98.756 -43.770  0.00  0.00     0.267 A 
ATOM      3  C   UNL d   1     -57.647 -98.756 -45.060  0.00  0.00     0.267 A 
ATOM      4  C   UNL d   1     -58.430 -98.756 -45.326  0.00  0.00     0.057 A 
ATOM      5  C   UNL d   1     -58.601 -98.756 -43.654  0.00  0.00     0.057 A 
ATOM      6  C   UNL d   1     -59.118 -98.756 -44.859  0.00  0.00     0.005 A 
ATOM      7  C   UNL d   1     -59.145 -98.756 -44.084  0.00  0.00     0.005 A 
ATOM      8  O   UNL d   1     -57.348 -98.755 -43.021  0.00  0.00    -0.267 OA
ATOM      9  O   UNL d   1     -57.093 -98.757 -45.614  0.00  0.00    -0.267 OA
ATOM     10  C   UNL d   1     -58.690 -98.755 -42.973  0.00  0.00     0.005 A 
ATOM     11  C   UNL d   1     -58.472 -98.757 -46.151  0.00  0.00     0.005 A 
ATOM     12  C   UNL d   1     -59.850 -98.756 -45.234  0.00  0.00     0.000 A 
ATOM     13  C   UNL d   1     -59.791 -98.756 -43.821  0.00  0.00     0.000 A 
ATOM     14  C   UNL d   1     -59.214 -98.757 -46.520  0.00  0.00     0.000 A 
ATOM     15  C   UNL d   1     -59.903 -98.757 -46.058  0.00  0.00     0.000 A 
ATOM     16  C   UNL d   1     -59.879 -98.755 -43.133  0.00  0.00     0.000 A 
ATOM     17  C   UNL d   1     -59.333 -98.755 -42.710  0.00  0.00     0.000 A 
ENDROOT
BRANCH   1  18
ATOM     18  C   UNL d   1     -56.531 -98.756 -44.173  0.00  0.00     0.111 C 
BRANCH  18  19
ATOM     19  C   UNL d   1     -56.063 -99.486 -44.325  0.00  0.00     0.118 A 
ATOM     20  O   UNL d   1     -56.353-100.314 -44.230  0.00  0.00    -0.304 OA
ATOM     21  C   UNL d   1     -55.694-100.858 -44.444  0.00  0.00     0.123 A 
ATOM     22  C   UNL d   1     -54.995-100.367 -44.671  0.00  0.00     0.029 A 
ATOM     23  C   UNL d   1     -55.227 -99.520 -44.596  0.00  0.00     0.028 A 
ENDBRANCH  18  19
ENDBRANCH   1  18
TORSDOF 2
ENDMDL
MODEL 2
REMARK VINA RESULT:      31.6      0.253      2.036
REMARK  2 active torsions:
REMARK  status: ('A' for Active; 'I' for Inactive)
REMARK    1  A    between atoms: C_8  and  N_1 
REMARK    2  A    between atoms: C_12  and  C_8 
ROOT
ATOM      1  N   UNL d   1     -57.257 -98.755 -44.359  0.00  0.00    -0.238 N 
ATOM      2  C   UNL d   1     -57.592 -98.756 -44.943  0.00  0.00     0.267 A 
ATOM      3  C   UNL d   1     -57.578 -98.756 -43.643  0.00  0.00     0.267 A 
ATOM      4  C   UNL d   1     -58.386 -98.756 -43.467  0.00  0.00     0.057 A 
ATOM      5  C   UNL d   1     -58.368 -98.756 -45.148  0.00  0.00     0.057 A 
ATOM      6  C   UNL d   1     -59.018 -98.756 -44.008  0.00  0.00     0.005 A 
ATOM      7  C   UNL d   1     -58.957 -98.756 -44.781  0.00  0.00     0.005 A 
ATOM      8  O   UNL d   1     -57.052 -98.755 -45.635  0.00  0.00    -0.267 OA
ATOM      9  O   UNL d   1     -57.090 -98.756 -43.030  0.00  0.00    -0.267 OA
ATOM     10  C   UNL d   1     -58.380 -98.756 -45.834  0.00  0.00     0.005 A 
ATOM     11  C   UNL d   1     -58.521 -98.756 -42.652  0.00  0.00     0.005 A 
ATOM     12  C   UNL d   1     -59.787 -98.757 -43.718  0.00  0.00     0.000 A 
ATOM     13  C   UNL d   1     -59.570 -98.756 -45.116  0.00  0.00     0.000 A 
ATOM     14  C   UNL d   1     -59.301 -98.756 -42.369  0.00  0.00     0.000 A 
ATOM     15  C   UNL d   1     -59.933 -98.757 -42.906  0.00  0.00     0.000 A 
ATOM     16  C   UNL d   1     -59.579 -98.756 -45.809  0.00  0.00     0.000 A 
ATOM     17  C   UNL d   1     -58.989 -98.756 -46.168  0.00  0.00     0.000 A 
ENDROOT
BRANCH   1  18
ATOM     18  C   UNL d   1     -56.370 -98.755 -44.398  0.00  0.00     0.111 C 
BRANCH  18  19
ATOM     19  C   UNL d   1     -55.930 -99.518 -44.394  0.00  0.00     0.118 A 
ATOM     20  O   UNL d   1     -56.291-100.321 -44.325  0.00  0.00    -0.304 OA
ATOM     21  C   UNL d   1     -55.639-100.913 -44.346  0.00  0.00     0.123 A 
ATOM     22  C   UNL d   1     -54.874-100.477 -44.429  0.00  0.00     0.029 A 
ATOM     23  C   UNL d   1     -55.059 -99.616 -44.458  0.00  0.00     0.028 A 
ENDBRANCH  18  19
ENDBRANCH   1  18
TORSDOF 2
ENDMDL
