MODEL 1
REMARK VINA RESULT:      19.7      0.000      0.000
REMARK  0 active torsions:
REMARK  status: ('A' for Active; 'I' for Inactive)
ROOT
ATOM      1  N   UNL d   1      59.653  49.707  51.837  0.00  0.00    -0.270 NA
ATOM      2  C   UNL d   1      60.188  49.706  50.273  0.00  0.00    -0.001 A 
ATOM      3  C   UNL d   1      60.730  49.707  50.895  0.00  0.00    -0.004 A 
ATOM      4  C   UNL d   1      59.120  49.707  51.218  0.00  0.00     0.076 A 
ATOM      5  C   UNL d   1      60.462  49.707  51.677  0.00  0.00     0.103 A 
ATOM      6  C   UNL d   1      59.387  49.707  50.435  0.00  0.00     0.017 A 
ATOM      7  C   UNL d   1      60.456  49.706  49.490  0.00  0.00    -0.000 C 
ATOM      8  C   UNL d   1      58.309  49.707  51.377  0.00  0.00     0.019 A 
ATOM      9  C   UNL d   1      61.272  49.707  51.516  0.00  0.00     0.029 C 
ATOM     10  C   UNL d   1      60.194  49.708  52.460  0.00  0.00     0.029 C 
ATOM     11  C   UNL d   1      58.849  49.706  49.815  0.00  0.00     0.002 A 
ATOM     12  C   UNL d   1      57.772  49.707  50.757  0.00  0.00     0.002 A 
ATOM     13  C   UNL d   1      58.035  49.706  49.973  0.00  0.00     0.000 A 
ENDROOT
TORSDOF 0
ENDMDL
MODEL 2
REMARK VINA RESULT:      21.7      0.601      2.262
REMARK  0 active torsions:
REMARK  status: ('A' for Active; 'I' for Inactive)
ROOT
ATOM      1  N   UNL d   1      58.450  49.699  51.194  0.00  0.00    -0.270 NA
ATOM      2  C   UNL d   1      59.208  49.696  49.725  0.00  0.00    -0.001 A 
ATOM      3  C   UNL d   1      58.385  49.700  49.765  0.00  0.00    -0.004 A 
ATOM      4  C   UNL d   1      59.266  49.695  51.151  0.00  0.00     0.076 A 
ATOM      5  C   UNL d   1      58.005  49.702  50.499  0.00  0.00     0.103 A 
ATOM      6  C   UNL d   1      59.645  49.694  50.416  0.00  0.00     0.017 A 
ATOM      7  C   UNL d   1      59.588  49.695  48.991  0.00  0.00    -0.000 C 
ATOM      8  C   UNL d   1      59.712  49.692  51.846  0.00  0.00     0.019 A 
ATOM      9  C   UNL d   1      57.561  49.704  49.804  0.00  0.00     0.029 C 
ATOM     10  C   UNL d   1      57.626  49.703  51.234  0.00  0.00     0.029 C 
ATOM     11  C   UNL d   1      60.466  49.690  50.375  0.00  0.00     0.002 A 
ATOM     12  C   UNL d   1      60.531  49.688  51.804  0.00  0.00     0.002 A 
ATOM     13  C   UNL d   1      60.915  49.687  51.072  0.00  0.00     0.000 A 
ENDROOT
TORSDOF 0
ENDMDL
