MODEL 1
REMARK VINA RESULT:      64.1      0.000      0.000
REMARK  2 active torsions:
REMARK  status: ('A' for Active; 'I' for Inactive)
REMARK    1  A    between atoms: N_3  and  C_1 
REMARK    2  A    between atoms: C_13  and  N_6 
ROOT
ATOM      1  C   UNL d   1     -54.763-101.088 -41.374  0.00  0.00     0.143 A 
ATOM      2  C   UNL d   1     -54.794-101.512 -42.091  0.00  0.00     0.297 A 
ATOM      3  C   UNL d   1     -54.752-100.296 -41.545  0.00  0.00     0.102 A 
ATOM      4  N   UNL d   1     -54.776-100.210 -42.371  0.00  0.00    -0.238 N 
ATOM      5  N   UNL d   1     -54.802-100.960 -42.704  0.00  0.00    -0.209 N 
ATOM      6  O   UNL d   1     -54.814-102.326 -42.181  0.00  0.00    -0.264 OA
ATOM      7  C   UNL d   1     -54.773 -99.484 -42.776  0.00  0.00     0.120 C 
ATOM      8  C   UNL d   1     -54.722 -99.677 -40.993  0.00  0.00     0.022 C 
ENDROOT
BRANCH   1   9
ATOM      9  N   UNL d   1     -54.747-101.434 -40.620  0.00  0.00    -0.254 N 
ATOM     10  C   UNL d   1     -54.744-101.016 -39.904  0.00  0.00     0.153 A 
ATOM     11  S   UNL d   1     -54.726-101.573 -39.292  0.00  0.00    -0.053 SA
ATOM     12  S   UNL d   1     -54.757-100.200 -39.825  0.00  0.00    -0.052 SA
ATOM     13  C   UNL d   1     -54.718-102.322 -39.637  0.00  0.00     0.099 A 
ATOM     14  C   UNL d   1     -54.731-102.232 -40.451  0.00  0.00     0.273 A 
ATOM     15  O   UNL d   1     -54.728-102.851 -41.005  0.00  0.00    -0.266 OA
ENDBRANCH   1   9
BRANCH   5  16
ATOM     16  C   UNL d   1     -54.831-101.152 -43.504  0.00  0.00     0.085 A 
ATOM     17  C   UNL d   1     -54.715-101.931 -43.752  0.00  0.00     0.019 A 
ATOM     18  C   UNL d   1     -54.747-102.111 -44.554  0.00  0.00     0.002 A 
ATOM     19  C   UNL d   1     -54.890-101.532 -45.107  0.00  0.00     0.000 A 
ATOM     20  C   UNL d   1     -55.005-100.760 -44.870  0.00  0.00     0.002 A 
ATOM     21  C   UNL d   1     -54.976-100.564 -44.064  0.00  0.00     0.019 A 
ENDBRANCH   5  16
TORSDOF 2
ENDMDL
