MODEL 1
REMARK VINA RESULT:      -6.2      0.000      0.000
REMARK  6 active torsions:
REMARK  status: ('A' for Active; 'I' for Inactive)
REMARK    1  A    between atoms: C_2  and  S_1 
REMARK    2  A    between atoms: N_8  and  S_1 
REMARK    3  A    between atoms: C_13  and  N_8 
REMARK    4  A    between atoms: N_9  and  C_14 
REMARK    5  A    between atoms: O_15  and  C_10 
REMARK    6  A    between atoms: C_14  and  C_13 
ROOT
ATOM      1  C   UNL d   1     -48.315  13.327  22.845  0.00  0.00     0.105 A 
ATOM      2  C   UNL d   1     -48.934  13.859  22.853  0.00  0.00     0.014 A 
ATOM      3  C   UNL d   1     -49.694  13.612  23.056  0.00  0.00     0.023 A 
ATOM      4  C   UNL d   1     -48.451  12.533  23.042  0.00  0.00     0.015 A 
ATOM      5  C   UNL d   1     -49.835  12.831  23.251  0.00  0.00     0.094 A 
ATOM      6  C   UNL d   1     -49.211  12.285  23.245  0.00  0.00     0.025 A 
ATOM      7  C   UNL d   1     -48.797  14.648  22.657  0.00  0.00     0.001 A 
ATOM      8  C   UNL d   1     -50.316  14.153  23.063  0.00  0.00     0.002 A 
ATOM      9  C   UNL d   1     -49.419  15.190  22.663  0.00  0.00     0.000 A 
ATOM     10  C   UNL d   1     -50.179  14.942  22.866  0.00  0.00     0.000 A 
ENDROOT
BRANCH   1  11
ATOM     11  S   UNL d   1     -47.555  13.575  22.642  0.00  0.00     0.285 S 
ATOM     12  O   UNL d   1     -47.694  13.353  21.852  0.00  0.00    -0.198 OA
ATOM     13  O   UNL d   1     -47.419  13.792  23.416  0.00  0.00    -0.198 OA
BRANCH  11  14
ATOM     14  N   UNL d   1     -46.795  13.822  22.439  0.00  0.00    -0.155 NA
BRANCH  14  15
ATOM     15  C   UNL d   1     -46.186  13.281  22.381  0.00  0.00     0.131 C 
BRANCH  15  16
ATOM     16  C   UNL d   1     -45.413  13.536  22.245  0.00  0.00     0.102 C 
BRANCH  16  17
ATOM     17  N   UNL d   1     -44.804  12.985  22.176  0.00  0.00    -0.298 N 
ATOM     18  C   UNL d   1     -44.790  12.320  22.665  0.00  0.00     0.107 A 
ATOM     19  C   UNL d   1     -44.179  11.765  22.598  0.00  0.00     0.142 A 
ATOM     20  O   UNL d   1     -43.581  11.878  22.040  0.00  0.00    -0.300 OA
ATOM     21  C   UNL d   1     -43.596  12.547  21.550  0.00  0.00     0.142 A 
ATOM     22  C   UNL d   1     -44.206  13.098  21.619  0.00  0.00     0.107 A 
ENDBRANCH  16  17
ENDBRANCH  15  16
ENDBRANCH  14  15
ENDBRANCH  11  14
ENDBRANCH   1  11
BRANCH   5  23
ATOM     23  O   UNL d   1     -50.594  12.576  23.455  0.00  0.00    -0.328 OA
ATOM     24  C   UNL d   1     -50.723  11.801  23.698  0.00  0.00     0.181 C 
ENDBRANCH   5  23
TORSDOF 6
ENDMDL
MODEL 2
REMARK VINA RESULT:      -6.1      1.414      5.023
REMARK  6 active torsions:
REMARK  status: ('A' for Active; 'I' for Inactive)
REMARK    1  A    between atoms: C_2  and  S_1 
REMARK    2  A    between atoms: N_8  and  S_1 
REMARK    3  A    between atoms: C_13  and  N_8 
REMARK    4  A    between atoms: N_9  and  C_14 
REMARK    5  A    between atoms: O_15  and  C_10 
REMARK    6  A    between atoms: C_14  and  C_13 
ROOT
ATOM      1  C   UNL d   1     -46.773  12.922  22.770  0.00  0.00     0.105 A 
ATOM      2  C   UNL d   1     -46.345  12.268  23.006  0.00  0.00     0.014 A 
ATOM      3  C   UNL d   1     -45.548  12.198  22.805  0.00  0.00     0.023 A 
ATOM      4  C   UNL d   1     -46.407  13.518  22.326  0.00  0.00     0.015 A 
ATOM      5  C   UNL d   1     -45.180  12.782  22.368  0.00  0.00     0.094 A 
ATOM      6  C   UNL d   1     -45.610  13.448  22.125  0.00  0.00     0.025 A 
ATOM      7  C   UNL d   1     -46.712  11.676  23.447  0.00  0.00     0.001 A 
ATOM      8  C   UNL d   1     -45.118  11.537  23.045  0.00  0.00     0.002 A 
ATOM      9  C   UNL d   1     -46.282  11.014  23.687  0.00  0.00     0.000 A 
ATOM     10  C   UNL d   1     -45.485  10.944  23.486  0.00  0.00     0.000 A 
ENDROOT
BRANCH   1  11
ATOM     11  S   UNL d   1     -47.571  12.991  22.971  0.00  0.00     0.285 S 
ATOM     12  O   UNL d   1     -47.785  12.673  22.232  0.00  0.00    -0.198 OA
ATOM     13  O   UNL d   1     -47.361  13.303  23.694  0.00  0.00    -0.198 OA
BRANCH  11  14
ATOM     14  N   UNL d   1     -48.368  13.061  23.172  0.00  0.00    -0.155 NA
BRANCH  14  15
ATOM     15  C   UNL d   1     -48.787  13.733  22.972  0.00  0.00     0.131 C 
BRANCH  15  16
ATOM     16  C   UNL d   1     -49.391  14.009  23.461  0.00  0.00     0.102 C 
BRANCH  16  17
ATOM     17  N   UNL d   1     -49.944  14.547  23.170  0.00  0.00    -0.298 N 
ATOM     18  C   UNL d   1     -50.082  15.255  23.570  0.00  0.00     0.107 A 
ATOM     19  C   UNL d   1     -50.637  15.797  23.279  0.00  0.00     0.142 A 
ATOM     20  O   UNL d   1     -51.054  15.626  22.588  0.00  0.00    -0.300 OA
ATOM     21  C   UNL d   1     -50.914  14.914  22.187  0.00  0.00     0.142 A 
ATOM     22  C   UNL d   1     -50.360  14.376  22.479  0.00  0.00     0.107 A 
ENDBRANCH  16  17
ENDBRANCH  15  16
ENDBRANCH  14  15
ENDBRANCH  11  14
ENDBRANCH   1  11
BRANCH   5  23
ATOM     23  O   UNL d   1     -44.382  12.719  22.163  0.00  0.00    -0.328 OA
ATOM     24  C   UNL d   1     -44.080  13.139  21.524  0.00  0.00     0.181 C 
ENDBRANCH   5  23
TORSDOF 6
ENDMDL
MODEL 3
REMARK VINA RESULT:      -5.8      8.285      9.480
REMARK  6 active torsions:
REMARK  status: ('A' for Active; 'I' for Inactive)
REMARK    1  A    between atoms: C_2  and  S_1 
REMARK    2  A    between atoms: N_8  and  S_1 
REMARK    3  A    between atoms: C_13  and  N_8 
REMARK    4  A    between atoms: N_9  and  C_14 
REMARK    5  A    between atoms: O_15  and  C_10 
REMARK    6  A    between atoms: C_14  and  C_13 
ROOT
ATOM      1  C   UNL d   1     -39.682  14.442  18.462  0.00  0.00     0.105 A 
ATOM      2  C   UNL d   1     -40.067  14.863  17.877  0.00  0.00     0.014 A 
ATOM      3  C   UNL d   1     -39.829  14.796  17.090  0.00  0.00     0.023 A 
ATOM      4  C   UNL d   1     -39.049  13.945  18.264  0.00  0.00     0.015 A 
ATOM      5  C   UNL d   1     -39.207  14.307  16.888  0.00  0.00     0.094 A 
ATOM      6  C   UNL d   1     -38.812  13.877  17.476  0.00  0.00     0.025 A 
ATOM      7  C   UNL d   1     -40.696  15.357  18.077  0.00  0.00     0.001 A 
ATOM      8  C   UNL d   1     -40.221  15.222  16.504  0.00  0.00     0.002 A 
ATOM      9  C   UNL d   1     -41.088  15.785  17.490  0.00  0.00     0.000 A 
ATOM     10  C   UNL d   1     -40.850  15.717  16.703  0.00  0.00     0.000 A 
ENDROOT
BRANCH   1  11
ATOM     11  S   UNL d   1     -39.919  14.510  19.249  0.00  0.00     0.285 S 
ATOM     12  O   UNL d   1     -40.413  13.846  19.157  0.00  0.00    -0.198 OA
ATOM     13  O   UNL d   1     -39.436  15.160  19.339  0.00  0.00    -0.198 OA
BRANCH  11  14
ATOM     14  N   UNL d   1     -40.157  14.578  20.036  0.00  0.00    -0.155 NA
BRANCH  14  15
ATOM     15  C   UNL d   1     -39.644  14.380  20.641  0.00  0.00     0.131 C 
BRANCH  15  16
ATOM     16  C   UNL d   1     -39.901  14.389  21.425  0.00  0.00     0.102 C 
BRANCH  16  17
ATOM     17  N   UNL d   1     -39.359  14.279  22.037  0.00  0.00    -0.298 N 
ATOM     18  C   UNL d   1     -39.059  14.930  22.445  0.00  0.00     0.107 A 
ATOM     19  C   UNL d   1     -38.515  14.822  23.061  0.00  0.00     0.142 A 
ATOM     20  O   UNL d   1     -38.273  14.060  23.265  0.00  0.00    -0.300 OA
ATOM     21  C   UNL d   1     -38.575  13.407  22.854  0.00  0.00     0.142 A 
ATOM     22  C   UNL d   1     -39.117  13.517  22.241  0.00  0.00     0.107 A 
ENDBRANCH  16  17
ENDBRANCH  15  16
ENDBRANCH  14  15
ENDBRANCH  11  14
ENDBRANCH   1  11
BRANCH   5  23
ATOM     23  O   UNL d   1     -38.964  14.235  16.102  0.00  0.00    -0.328 OA
ATOM     24  C   UNL d   1     -38.294  13.798  15.910  0.00  0.00     0.181 C 
ENDBRANCH   5  23
TORSDOF 6
ENDMDL
MODEL 4
REMARK VINA RESULT:      -5.3      8.950      9.820
REMARK  6 active torsions:
REMARK  status: ('A' for Active; 'I' for Inactive)
REMARK    1  A    between atoms: C_2  and  S_1 
REMARK    2  A    between atoms: N_8  and  S_1 
REMARK    3  A    between atoms: C_13  and  N_8 
REMARK    4  A    between atoms: N_9  and  C_14 
REMARK    5  A    between atoms: O_15  and  C_10 
REMARK    6  A    between atoms: C_14  and  C_13 
ROOT
ATOM      1  C   UNL d   1     -39.419  14.614  18.389  0.00  0.00     0.105 A 
ATOM      2  C   UNL d   1     -39.181  14.550  17.610  0.00  0.00     0.014 A 
ATOM      3  C   UNL d   1     -39.656  14.847  17.004  0.00  0.00     0.023 A 
ATOM      4  C   UNL d   1     -40.140  14.978  18.571  0.00  0.00     0.015 A 
ATOM      5  C   UNL d   1     -40.368  15.207  17.177  0.00  0.00     0.094 A 
ATOM      6  C   UNL d   1     -40.615  15.275  17.965  0.00  0.00     0.025 A 
ATOM      7  C   UNL d   1     -38.463  14.187  17.431  0.00  0.00     0.001 A 
ATOM      8  C   UNL d   1     -39.412  14.780  16.219  0.00  0.00     0.002 A 
ATOM      9  C   UNL d   1     -38.218  14.120  16.646  0.00  0.00     0.000 A 
ATOM     10  C   UNL d   1     -38.693  14.417  16.039  0.00  0.00     0.000 A 
ENDROOT
BRANCH   1  11
ATOM     11  S   UNL d   1     -38.944  14.317  18.995  0.00  0.00     0.285 S 
ATOM     12  O   UNL d   1     -38.550  15.048  19.044  0.00  0.00    -0.198 OA
ATOM     13  O   UNL d   1     -39.330  13.601  18.946  0.00  0.00    -0.198 OA
BRANCH  11  14
ATOM     14  N   UNL d   1     -38.470  14.020  19.601  0.00  0.00    -0.155 NA
BRANCH  14  15
ATOM     15  C   UNL d   1     -38.662  14.161  20.382  0.00  0.00     0.131 C 
BRANCH  15  16
ATOM     16  C   UNL d   1     -38.142  13.944  20.985  0.00  0.00     0.102 C 
BRANCH  16  17
ATOM     17  N   UNL d   1     -38.382  13.988  21.772  0.00  0.00    -0.298 N 
ATOM     18  C   UNL d   1     -38.566  13.299  22.188  0.00  0.00     0.107 A 
ATOM     19  C   UNL d   1     -38.808  13.341  22.979  0.00  0.00     0.142 A 
ATOM     20  O   UNL d   1     -38.865  14.075  23.352  0.00  0.00    -0.300 OA
ATOM     21  C   UNL d   1     -38.681  14.766  22.934  0.00  0.00     0.142 A 
ATOM     22  C   UNL d   1     -38.440  14.722  22.145  0.00  0.00     0.107 A 
ENDBRANCH  16  17
ENDBRANCH  15  16
ENDBRANCH  14  15
ENDBRANCH  11  14
ENDBRANCH   1  11
BRANCH   5  23
ATOM     23  O   UNL d   1     -40.848  15.506  16.575  0.00  0.00    -0.328 OA
ATOM     24  C   UNL d   1     -41.535  15.921  16.756  0.00  0.00     0.181 C 
ENDBRANCH   5  23
TORSDOF 6
ENDMDL
MODEL 5
REMARK VINA RESULT:      -4.4      6.972      9.613
REMARK  6 active torsions:
REMARK  status: ('A' for Active; 'I' for Inactive)
REMARK    1  A    between atoms: C_2  and  S_1 
REMARK    2  A    between atoms: N_8  and  S_1 
REMARK    3  A    between atoms: C_13  and  N_8 
REMARK    4  A    between atoms: N_9  and  C_14 
REMARK    5  A    between atoms: O_15  and  C_10 
REMARK    6  A    between atoms: C_14  and  C_13 
ROOT
ATOM      1  C   UNL d   1     -39.615  14.889  19.492  0.00  0.00     0.105 A 
ATOM      2  C   UNL d   1     -39.548  15.181  20.252  0.00  0.00     0.014 A 
ATOM      3  C   UNL d   1     -40.140  15.034  20.808  0.00  0.00     0.023 A 
ATOM      4  C   UNL d   1     -40.280  14.444  19.278  0.00  0.00     0.015 A 
ATOM      5  C   UNL d   1     -40.798  14.595  20.603  0.00  0.00     0.094 A 
ATOM      6  C   UNL d   1     -40.871  14.296  19.833  0.00  0.00     0.025 A 
ATOM      7  C   UNL d   1     -38.886  15.624  20.463  0.00  0.00     0.001 A 
ATOM      8  C   UNL d   1     -40.069  15.330  21.574  0.00  0.00     0.002 A 
ATOM      9  C   UNL d   1     -38.814  15.921  21.230  0.00  0.00     0.000 A 
ATOM     10  C   UNL d   1     -39.406  15.774  21.785  0.00  0.00     0.000 A 
ENDROOT
BRANCH   1  11
ATOM     11  S   UNL d   1     -39.023  15.036  18.937  0.00  0.00     0.285 S 
ATOM     12  O   UNL d   1     -39.409  15.738  18.711  0.00  0.00    -0.198 OA
ATOM     13  O   UNL d   1     -38.644  14.349  19.158  0.00  0.00    -0.198 OA
BRANCH  11  14
ATOM     14  N   UNL d   1     -38.431  15.184  18.381  0.00  0.00    -0.155 NA
BRANCH  14  15
ATOM     15  C   UNL d   1     -38.446  14.812  17.654  0.00  0.00     0.131 C 
BRANCH  15  16
ATOM     16  C   UNL d   1     -37.947  15.063  17.047  0.00  0.00     0.102 C 
BRANCH  16  17
ATOM     17  N   UNL d   1     -37.947  14.668  16.323  0.00  0.00    -0.298 N 
ATOM     18  C   UNL d   1     -37.940  15.097  15.618  0.00  0.00     0.107 A 
ATOM     19  C   UNL d   1     -37.940  14.702  14.890  0.00  0.00     0.142 A 
ATOM     20  O   UNL d   1     -37.947  13.877  14.870  0.00  0.00    -0.300 OA
ATOM     21  C   UNL d   1     -37.954  13.447  15.579  0.00  0.00     0.142 A 
ATOM     22  C   UNL d   1     -37.954  13.843  16.304  0.00  0.00     0.107 A 
ENDBRANCH  16  17
ENDBRANCH  15  16
ENDBRANCH  14  15
ENDBRANCH  11  14
ENDBRANCH   1  11
BRANCH   5  23
ATOM     23  O   UNL d   1     -41.394  14.444  21.154  0.00  0.00    -0.328 OA
ATOM     24  C   UNL d   1     -42.035  13.968  20.957  0.00  0.00     0.181 C 
ENDBRANCH   5  23
TORSDOF 6
ENDMDL
MODEL 6
REMARK VINA RESULT:      -3.3      9.003     10.485
REMARK  6 active torsions:
REMARK  status: ('A' for Active; 'I' for Inactive)
REMARK    1  A    between atoms: C_2  and  S_1 
REMARK    2  A    between atoms: N_8  and  S_1 
REMARK    3  A    between atoms: C_13  and  N_8 
REMARK    4  A    between atoms: N_9  and  C_14 
REMARK    5  A    between atoms: O_15  and  C_10 
REMARK    6  A    between atoms: C_14  and  C_13 
ROOT
ATOM      1  C   UNL d   1     -38.437  13.961  18.539  0.00  0.00     0.105 A 
ATOM      2  C   UNL d   1     -38.459  14.064  17.729  0.00  0.00     0.014 A 
ATOM      3  C   UNL d   1     -38.312  13.428  17.224  0.00  0.00     0.023 A 
ATOM      4  C   UNL d   1     -38.267  13.215  18.855  0.00  0.00     0.015 A 
ATOM      5  C   UNL d   1     -38.144  12.690  17.530  0.00  0.00     0.094 A 
ATOM      6  C   UNL d   1     -38.120  12.579  18.351  0.00  0.00     0.025 A 
ATOM      7  C   UNL d   1     -38.629  14.808  17.416  0.00  0.00     0.001 A 
ATOM      8  C   UNL d   1     -38.335  13.536  16.407  0.00  0.00     0.002 A 
ATOM      9  C   UNL d   1     -38.652  14.916  16.598  0.00  0.00     0.000 A 
ATOM     10  C   UNL d   1     -38.505  14.280  16.094  0.00  0.00     0.000 A 
ENDROOT
BRANCH   1  11
ATOM     11  S   UNL d   1     -38.584  14.597  19.043  0.00  0.00     0.285 S 
ATOM     12  O   UNL d   1     -39.236  14.193  19.363  0.00  0.00    -0.198 OA
ATOM     13  O   UNL d   1     -37.944  14.994  18.729  0.00  0.00    -0.198 OA
BRANCH  11  14
ATOM     14  N   UNL d   1     -38.731  15.233  19.547  0.00  0.00    -0.155 NA
BRANCH  14  15
ATOM     15  C   UNL d   1     -38.770  15.119  20.356  0.00  0.00     0.131 C 
BRANCH  15  16
ATOM     16  C   UNL d   1     -38.901  15.758  20.861  0.00  0.00     0.102 C 
BRANCH  16  17
ATOM     17  N   UNL d   1     -38.781  15.672  21.672  0.00  0.00    -0.298 N 
ATOM     18  C   UNL d   1     -38.070  15.917  22.013  0.00  0.00     0.107 A 
ATOM     19  C   UNL d   1     -37.947  15.833  22.828  0.00  0.00     0.142 A 
ATOM     20  O   UNL d   1     -38.538  15.502  23.300  0.00  0.00    -0.300 OA
ATOM     21  C   UNL d   1     -39.252  15.256  22.956  0.00  0.00     0.142 A 
ATOM     22  C   UNL d   1     -39.371  15.342  22.144  0.00  0.00     0.107 A 
ENDBRANCH  16  17
ENDBRANCH  15  16
ENDBRANCH  14  15
ENDBRANCH  11  14
ENDBRANCH   1  11
BRANCH   5  23
ATOM     23  O   UNL d   1     -37.996  12.049  17.031  0.00  0.00    -0.328 OA
ATOM     24  C   UNL d   1     -38.061  11.278  17.309  0.00  0.00     0.181 C 
ENDBRANCH   5  23
TORSDOF 6
ENDMDL
