MODEL 1
REMARK VINA RESULT:     197.3      0.000      0.000
REMARK  9 active torsions:
REMARK  status: ('A' for Active; 'I' for Inactive)
REMARK    1  A    between atoms: N_8  and  C_1 
REMARK    2  A    between atoms: S_2  and  C_13 
REMARK    3  A    between atoms: N_7  and  S_2 
REMARK    4  A    between atoms: C_12  and  C_3 
REMARK       I    between atoms: C_10  and  N_8 
REMARK       I    between atoms: C_11  and  N_9 
REMARK    5  A    between atoms: C_21  and  C_10 
REMARK    6  A    between atoms: O_33  and  C_11 
REMARK    7  A    between atoms: C_34  and  N_14 
REMARK    8  A    between atoms: C_35  and  O_33 
REMARK    9  A    between atoms: C_36  and  C_34 
ROOT
ATOM      1  C   UNL d   1     -55.716-100.011 -43.306  0.00  0.00     0.104 A 
ATOM      2  C   UNL d   1     -55.566-100.217 -41.677  0.00  0.00     0.056 A 
ATOM      3  C   UNL d   1     -56.256-100.483 -42.891  0.00  0.00     0.013 A 
ATOM      4  C   UNL d   1     -55.095 -99.639 -42.899  0.00  0.00     0.013 A 
ATOM      5  C   UNL d   1     -56.185-100.588 -42.080  0.00  0.00     0.005 A 
ATOM      6  C   UNL d   1     -55.024 -99.746 -42.078  0.00  0.00     0.005 A 
ENDROOT
BRANCH   2   7
ATOM      7  C   UNL d   1     -55.488-100.319 -40.858  0.00  0.00     0.258 C 
ATOM      8  N   UNL d   1     -55.463-101.087 -40.537  0.00  0.00    -0.316 N 
ATOM      9  H   UNL d   1     -55.524-101.236 -41.159  0.00  0.00     0.169 HD
ATOM     10  O   UNL d   1     -55.436 -99.665 -40.356  0.00  0.00    -0.267 OA
BRANCH   8  11
ATOM     11  C   UNL d   1     -55.385-101.189 -39.720  0.00  0.00     0.094 A 
ATOM     12  C   UNL d   1     -55.637-101.843 -39.286  0.00  0.00     0.082 A 
ATOM     13  C   UNL d   1     -55.455-101.724 -38.491  0.00  0.00     0.016 A 
ATOM     14  C   UNL d   1     -55.576-102.187 -37.816  0.00  0.00     0.020 A 
ATOM     15  C   UNL d   1     -55.086-100.991 -38.419  0.00  0.00     0.049 A 
ATOM     16  C   UNL d   1     -55.328-101.915 -37.080  0.00  0.00     0.080 A 
ATOM     17  N   UNL d   1     -54.960-101.185 -37.004  0.00  0.00    -0.302 N 
ATOM     18  C   UNL d   1     -54.836-100.718 -37.675  0.00  0.00     0.087 A 
ATOM     19  S   UNL d   1     -55.038-100.652 -39.175  0.00  0.00    -0.068 SA
BRANCH  12  20
ATOM     20  C   UNL d   1     -56.010-102.510 -39.588  0.00  0.00     0.299 C 
ATOM     21  O   UNL d   1     -56.602-102.873 -39.165  0.00  0.00    -0.264 OA
ATOM     22  N   UNL d   1     -55.781-102.806 -40.317  0.00  0.00    -0.102 N 
ENDBRANCH  12  20
BRANCH  17  23
ATOM     23  C   UNL d   1     -54.714-100.917 -36.267  0.00  0.00     0.080 C 
BRANCH  23  24
ATOM     24  C   UNL d   1     -55.013-101.255 -35.575  0.00  0.00     0.019 C 
ATOM     25  C   UNL d   1     -55.651-101.768 -35.615  0.00  0.00     0.002 C 
ENDBRANCH  23  24
ENDBRANCH  17  23
ENDBRANCH   8  11
ENDBRANCH   2   7
BRANCH   1  26
ATOM     26  S   UNL d   1     -55.790 -99.906 -44.125  0.00  0.00     0.271 S 
ATOM     27  O   UNL d   1     -56.342-100.529 -44.118  0.00  0.00    -0.200 OA
ATOM     28  O   UNL d   1     -55.243 -99.290 -44.130  0.00  0.00    -0.200 OA
BRANCH  26  29
ATOM     29  N   UNL d   1     -55.866 -99.804 -44.940  0.00  0.00    -0.226 N 
ATOM     30  C   UNL d   1     -55.273 -99.436 -45.371  0.00  0.00     0.111 A 
ATOM     31  C   UNL d   1     -55.364 -99.341 -46.189  0.00  0.00     0.105 A 
ATOM     32  N   UNL d   1     -56.045 -99.614 -46.571  0.00  0.00    -0.248 N 
ATOM     33  C   UNL d   1     -56.635 -99.982 -46.135  0.00  0.00     0.105 A 
ATOM     34  C   UNL d   1     -56.130 -99.518 -47.380  0.00  0.00     0.378 C 
ATOM     35  C   UNL d   1     -56.543-100.074 -45.324  0.00  0.00     0.111 A 
ATOM     36  O   UNL d   1     -55.537 -99.149 -47.811  0.00  0.00    -0.237 OA
BRANCH  34  37
ATOM     37  O   UNL d   1     -56.805 -99.789 -47.751  0.00  0.00    -0.257 OA
BRANCH  37  38
ATOM     38  C   UNL d   1     -57.504 -99.373 -47.683  0.00  0.00     0.128 C 
ATOM     39  C   UNL d   1     -57.737 -98.847 -48.282  0.00  0.00     0.029 C 
ENDBRANCH  37  38
ENDBRANCH  34  37
ENDBRANCH  26  29
ENDBRANCH   1  26
TORSDOF 9
ENDMDL
