MODEL 1
REMARK VINA RESULT:      -8.5      0.000      0.000
REMARK  7 active torsions:
REMARK  status: ('A' for Active; 'I' for Inactive)
REMARK    1  A    between atoms: N_4  and  S_1 
REMARK    2  A    between atoms: C_8  and  S_1 
REMARK    3  A    between atoms: N_2  and  C_3 
REMARK    4  A    between atoms: C_3  and  C_6 
REMARK    5  A    between atoms: C_7  and  C_3 
REMARK    6  A    between atoms: C_6  and  N_4 
REMARK    7  A    between atoms: C_17  and  N_5 
ROOT
ATOM      1  C   UNL d   1      53.018  32.689  53.332  0.00  0.00     0.107 C 
ENDROOT
BRANCH   1   2
ATOM      2  N   UNL d   1      52.325  33.111  53.181  0.00  0.00    -0.298 N 
ATOM      3  C   UNL d   1      51.648  32.968  53.631  0.00  0.00     0.100 A 
ATOM      4  C   UNL d   1      50.955  33.390  53.480  0.00  0.00     0.100 A 
ATOM      5  N   UNL d   1      50.939  33.955  52.880  0.00  0.00    -0.301 N 
ATOM      6  C   UNL d   1      51.616  34.095  52.433  0.00  0.00     0.100 A 
ATOM      7  C   UNL d   1      52.309  33.676  52.581  0.00  0.00     0.100 A 
BRANCH   5   8
ATOM      8  C   UNL d   1      50.251  34.374  52.731  0.00  0.00     0.064 A 
ATOM      9  C   UNL d   1      49.926  34.853  53.311  0.00  0.00     0.018 A 
ATOM     10  C   UNL d   1      49.234  35.275  53.164  0.00  0.00     0.002 A 
ATOM     11  C   UNL d   1      48.866  35.214  52.428  0.00  0.00     0.000 A 
ATOM     12  C   UNL d   1      49.192  34.731  51.842  0.00  0.00     0.002 A 
ATOM     13  C   UNL d   1      49.883  34.312  51.995  0.00  0.00     0.018 A 
ENDBRANCH   5   8
ENDBRANCH   1   2
BRANCH   1  14
ATOM     14  C   UNL d   1      53.215  32.018  52.892  0.00  0.00     0.132 C 
BRANCH  14  15
ATOM     15  N   UNL d   1      53.025  31.259  53.197  0.00  0.00    -0.155 NA
BRANCH  15  16
ATOM     16  S   UNL d   1      53.026  30.607  52.698  0.00  0.00     0.285 S 
ATOM     17  O   UNL d   1      53.029  29.943  52.204  0.00  0.00    -0.198 OA
ATOM     18  O   UNL d   1      52.971  31.106  52.038  0.00  0.00    -0.198 OA
BRANCH  16  19
ATOM     19  C   UNL d   1      53.081  30.111  53.362  0.00  0.00     0.105 A 
ATOM     20  C   UNL d   1      52.397  29.853  53.744  0.00  0.00     0.015 A 
ATOM     21  C   UNL d   1      52.442  29.360  54.405  0.00  0.00     0.030 A 
ATOM     22  C   UNL d   1      53.194  29.125  54.682  0.00  0.00     0.140 A 
ATOM     23  C   UNL d   1      53.878  29.383  54.300  0.00  0.00     0.030 A 
ATOM     24  F   UNL d   1      53.248  28.625  55.352  0.00  0.00    -0.204 F 
ATOM     25  C   UNL d   1      53.822  29.875  53.641  0.00  0.00     0.015 A 
ENDBRANCH  16  19
ENDBRANCH  15  16
ENDBRANCH  14  15
ENDBRANCH   1  14
BRANCH   1  26
ATOM     26  C   UNL d   1      53.535  32.943  53.942  0.00  0.00     0.118 A 
ATOM     27  O   UNL d   1      54.302  33.179  53.766  0.00  0.00    -0.304 OA
ATOM     28  C   UNL d   1      54.673  33.397  54.475  0.00  0.00     0.123 A 
ATOM     29  C   UNL d   1      54.137  33.294  55.080  0.00  0.00     0.029 A 
ATOM     30  C   UNL d   1      53.431  33.013  54.753  0.00  0.00     0.028 A 
ENDBRANCH   1  26
TORSDOF 7
ENDMDL
MODEL 2
REMARK VINA RESULT:      -6.4      2.329      4.725
REMARK  7 active torsions:
REMARK  status: ('A' for Active; 'I' for Inactive)
REMARK    1  A    between atoms: N_4  and  S_1 
REMARK    2  A    between atoms: C_8  and  S_1 
REMARK    3  A    between atoms: N_2  and  C_3 
REMARK    4  A    between atoms: C_3  and  C_6 
REMARK    5  A    between atoms: C_7  and  C_3 
REMARK    6  A    between atoms: C_6  and  N_4 
REMARK    7  A    between atoms: C_17  and  N_5 
ROOT
ATOM      1  C   UNL d   1      53.874  33.379  54.560  0.00  0.00     0.107 C 
ENDROOT
BRANCH   1   2
ATOM      2  N   UNL d   1      53.717  32.587  54.391  0.00  0.00    -0.298 N 
ATOM      3  C   UNL d   1      53.841  32.293  53.630  0.00  0.00     0.100 A 
ATOM      4  C   UNL d   1      53.684  31.500  53.462  0.00  0.00     0.100 A 
ATOM      5  N   UNL d   1      53.404  31.001  54.056  0.00  0.00    -0.301 N 
ATOM      6  C   UNL d   1      53.281  31.297  54.814  0.00  0.00     0.100 A 
ATOM      7  C   UNL d   1      53.437  32.087  54.985  0.00  0.00     0.100 A 
BRANCH   5   8
ATOM      8  C   UNL d   1      53.249  30.214  53.888  0.00  0.00     0.064 A 
ATOM      9  C   UNL d   1      52.910  30.004  53.172  0.00  0.00     0.018 A 
ATOM     10  C   UNL d   1      52.753  29.214  53.001  0.00  0.00     0.002 A 
ATOM     11  C   UNL d   1      52.938  28.631  53.554  0.00  0.00     0.000 A 
ATOM     12  C   UNL d   1      53.279  28.841  54.277  0.00  0.00     0.002 A 
ATOM     13  C   UNL d   1      53.434  29.632  54.442  0.00  0.00     0.018 A 
ENDBRANCH   5   8
ENDBRANCH   1   2
BRANCH   1  14
ATOM     14  C   UNL d   1      53.262  33.925  54.660  0.00  0.00     0.132 C 
BRANCH  14  15
ATOM     15  N   UNL d   1      52.857  34.214  53.985  0.00  0.00    -0.155 NA
BRANCH  15  16
ATOM     16  S   UNL d   1      52.402  34.895  54.042  0.00  0.00     0.285 S 
ATOM     17  O   UNL d   1      51.937  35.579  54.090  0.00  0.00    -0.198 OA
ATOM     18  O   UNL d   1      52.809  35.115  54.730  0.00  0.00    -0.198 OA
BRANCH  16  19
ATOM     19  C   UNL d   1      51.996  34.671  53.351  0.00  0.00     0.105 A 
ATOM     20  C   UNL d   1      51.255  34.312  53.405  0.00  0.00     0.015 A 
ATOM     21  C   UNL d   1      50.846  34.086  52.724  0.00  0.00     0.030 A 
ATOM     22  C   UNL d   1      51.194  34.227  51.978  0.00  0.00     0.140 A 
ATOM     23  C   UNL d   1      51.935  34.586  51.925  0.00  0.00     0.030 A 
ATOM     24  F   UNL d   1      50.784  34.000  51.284  0.00  0.00    -0.204 F 
ATOM     25  C   UNL d   1      52.336  34.807  52.612  0.00  0.00     0.015 A 
ENDBRANCH  16  19
ENDBRANCH  15  16
ENDBRANCH  14  15
ENDBRANCH   1  14
BRANCH   1  26
ATOM     26  C   UNL d   1      54.668  33.640  54.630  0.00  0.00     0.118 A 
ATOM     27  O   UNL d   1      54.981  33.827  55.368  0.00  0.00    -0.304 OA
ATOM     28  C   UNL d   1      55.768  34.064  55.260  0.00  0.00     0.123 A 
ATOM     29  C   UNL d   1      55.936  34.022  54.463  0.00  0.00     0.029 A 
ATOM     30  C   UNL d   1      55.257  33.759  54.071  0.00  0.00     0.028 A 
ENDBRANCH   1  26
TORSDOF 7
ENDMDL
MODEL 3
REMARK VINA RESULT:      -6.3      1.935      3.241
REMARK  7 active torsions:
REMARK  status: ('A' for Active; 'I' for Inactive)
REMARK    1  A    between atoms: N_4  and  S_1 
REMARK    2  A    between atoms: C_8  and  S_1 
REMARK    3  A    between atoms: N_2  and  C_3 
REMARK    4  A    between atoms: C_3  and  C_6 
REMARK    5  A    between atoms: C_7  and  C_3 
REMARK    6  A    between atoms: C_6  and  N_4 
REMARK    7  A    between atoms: C_17  and  N_5 
ROOT
ATOM      1  C   UNL d   1      52.004  33.600  52.785  0.00  0.00     0.107 C 
ENDROOT
BRANCH   1   2
ATOM      2  N   UNL d   1      51.266  33.904  52.574  0.00  0.00    -0.298 N 
ATOM      3  C   UNL d   1      50.666  33.960  53.138  0.00  0.00     0.100 A 
ATOM      4  C   UNL d   1      49.928  34.263  52.927  0.00  0.00     0.100 A 
ATOM      5  N   UNL d   1      49.790  34.511  52.152  0.00  0.00    -0.301 N 
ATOM      6  C   UNL d   1      50.392  34.453  51.592  0.00  0.00     0.100 A 
ATOM      7  C   UNL d   1      51.129  34.151  51.800  0.00  0.00     0.100 A 
BRANCH   5   8
ATOM      8  C   UNL d   1      49.058  34.812  51.943  0.00  0.00     0.064 A 
ATOM      9  C   UNL d   1      48.716  34.608  51.227  0.00  0.00     0.018 A 
ATOM     10  C   UNL d   1      47.980  34.909  51.015  0.00  0.00     0.002 A 
ATOM     11  C   UNL d   1      47.584  35.420  51.528  0.00  0.00     0.000 A 
ATOM     12  C   UNL d   1      47.926  35.626  52.251  0.00  0.00     0.002 A 
ATOM     13  C   UNL d   1      48.662  35.322  52.457  0.00  0.00     0.018 A 
ENDBRANCH   5   8
ENDBRANCH   1   2
BRANCH   1  14
ATOM     14  C   UNL d   1      52.643  34.099  52.947  0.00  0.00     0.132 C 
BRANCH  14  15
ATOM     15  N   UNL d   1      52.911  34.177  53.738  0.00  0.00    -0.155 NA
BRANCH  15  16
ATOM     16  S   UNL d   1      53.348  34.836  53.958  0.00  0.00     0.285 S 
ATOM     17  O   UNL d   1      53.795  35.494  54.187  0.00  0.00    -0.198 OA
ATOM     18  O   UNL d   1      52.925  35.303  53.418  0.00  0.00    -0.198 OA
BRANCH  16  19
ATOM     19  C   UNL d   1      53.769  34.365  54.498  0.00  0.00     0.105 A 
ATOM     20  C   UNL d   1      54.512  34.067  54.296  0.00  0.00     0.015 A 
ATOM     21  C   UNL d   1      54.937  33.598  54.827  0.00  0.00     0.030 A 
ATOM     22  C   UNL d   1      54.603  33.429  55.572  0.00  0.00     0.140 A 
ATOM     23  C   UNL d   1      53.860  33.726  55.774  0.00  0.00     0.030 A 
ATOM     24  F   UNL d   1      55.029  32.954  56.115  0.00  0.00    -0.204 F 
ATOM     25  C   UNL d   1      53.444  34.194  55.237  0.00  0.00     0.015 A 
ENDBRANCH  16  19
ENDBRANCH  15  16
ENDBRANCH  14  15
ENDBRANCH   1  14
BRANCH   1  26
ATOM     26  C   UNL d   1      52.112  32.770  52.838  0.00  0.00     0.118 A 
ATOM     27  O   UNL d   1      52.654  32.389  52.351  0.00  0.00    -0.304 OA
ATOM     28  C   UNL d   1      52.636  31.579  52.530  0.00  0.00     0.123 A 
ATOM     29  C   UNL d   1      52.087  31.467  53.123  0.00  0.00     0.029 A 
ATOM     30  C   UNL d   1      51.762  32.202  53.315  0.00  0.00     0.028 A 
ENDBRANCH   1  26
TORSDOF 7
ENDMDL
MODEL 4
REMARK VINA RESULT:      -5.9      1.947      4.559
REMARK  7 active torsions:
REMARK  status: ('A' for Active; 'I' for Inactive)
REMARK    1  A    between atoms: N_4  and  S_1 
REMARK    2  A    between atoms: C_8  and  S_1 
REMARK    3  A    between atoms: N_2  and  C_3 
REMARK    4  A    between atoms: C_3  and  C_6 
REMARK    5  A    between atoms: C_7  and  C_3 
REMARK    6  A    between atoms: C_6  and  N_4 
REMARK    7  A    between atoms: C_17  and  N_5 
ROOT
ATOM      1  C   UNL d   1      51.934  33.833  52.884  0.00  0.00     0.107 C 
ENDROOT
BRANCH   1   2
ATOM      2  N   UNL d   1      52.138  33.039  52.978  0.00  0.00    -0.298 N 
ATOM      3  C   UNL d   1      51.740  32.572  53.530  0.00  0.00     0.100 A 
ATOM      4  C   UNL d   1      51.945  31.778  53.624  0.00  0.00     0.100 A 
ATOM      5  N   UNL d   1      52.548  31.451  53.167  0.00  0.00    -0.301 N 
ATOM      6  C   UNL d   1      52.944  31.920  52.618  0.00  0.00     0.100 A 
ATOM      7  C   UNL d   1      52.742  32.712  52.521  0.00  0.00     0.100 A 
BRANCH   5   8
ATOM      8  C   UNL d   1      52.751  30.663  53.261  0.00  0.00     0.064 A 
ATOM      9  C   UNL d   1      52.348  30.081  52.848  0.00  0.00     0.018 A 
ATOM     10  C   UNL d   1      52.550  29.288  52.941  0.00  0.00     0.002 A 
ATOM     11  C   UNL d   1      53.161  29.079  53.454  0.00  0.00     0.000 A 
ATOM     12  C   UNL d   1      53.568  29.664  53.871  0.00  0.00     0.002 A 
ATOM     13  C   UNL d   1      53.362  30.454  53.774  0.00  0.00     0.018 A 
ENDBRANCH   5   8
ENDBRANCH   1   2
BRANCH   1  14
ATOM     14  C   UNL d   1      52.464  34.438  53.074  0.00  0.00     0.132 C 
BRANCH  14  15
ATOM     15  N   UNL d   1      52.817  34.447  53.835  0.00  0.00    -0.155 NA
BRANCH  15  16
ATOM     16  S   UNL d   1      53.165  35.136  54.115  0.00  0.00     0.285 S 
ATOM     17  O   UNL d   1      53.524  35.824  54.403  0.00  0.00    -0.198 OA
ATOM     18  O   UNL d   1      52.644  35.591  53.657  0.00  0.00    -0.198 OA
BRANCH  16  19
ATOM     19  C   UNL d   1      53.685  34.676  54.572  0.00  0.00     0.105 A 
ATOM     20  C   UNL d   1      54.435  34.489  54.283  0.00  0.00     0.015 A 
ATOM     21  C   UNL d   1      54.958  34.033  54.731  0.00  0.00     0.030 A 
ATOM     22  C   UNL d   1      54.716  33.762  55.482  0.00  0.00     0.140 A 
ATOM     23  C   UNL d   1      53.966  33.949  55.771  0.00  0.00     0.030 A 
ATOM     24  F   UNL d   1      55.242  33.299  55.942  0.00  0.00    -0.204 F 
ATOM     25  C   UNL d   1      53.451  34.406  55.316  0.00  0.00     0.015 A 
ENDBRANCH  16  19
ENDBRANCH  15  16
ENDBRANCH  14  15
ENDBRANCH   1  14
BRANCH   1  26
ATOM     26  C   UNL d   1      51.174  34.034  52.590  0.00  0.00     0.118 A 
ATOM     27  O   UNL d   1      51.065  34.189  51.790  0.00  0.00    -0.304 OA
ATOM     28  C   UNL d   1      50.265  34.369  51.669  0.00  0.00     0.123 A 
ATOM     29  C   UNL d   1      49.887  34.325  52.391  0.00  0.00     0.029 A 
ATOM     30  C   UNL d   1      50.448  34.118  52.962  0.00  0.00     0.028 A 
ENDBRANCH   1  26
TORSDOF 7
ENDMDL
