MODEL 1
REMARK VINA RESULT:      -2.8      0.000      0.000
REMARK  3 active torsions:
REMARK  status: ('A' for Active; 'I' for Inactive)
REMARK    1  A    between atoms: C_4  and  C_1 
REMARK    2  A    between atoms: C_6  and  C_4 
REMARK    3  A    between atoms: N_5  and  C_7 
ROOT
ATOM      1  C   UNL d   1      31.128  17.273 -24.400  0.00  0.00     0.231 C 
ATOM      2  O   UNL d   1      31.131  18.074 -24.554  0.00  0.00    -0.283 OA
ENDROOT
BRANCH   1   3
ATOM      3  C   UNL d   1      30.444  16.897 -24.111  0.00  0.00     0.188 A 
ATOM      4  N   UNL d   1      30.423  16.317 -23.532  0.00  0.00    -0.224 NA
ATOM      5  C   UNL d   1      29.631  16.084 -23.400  0.00  0.00     0.099 A 
ATOM      6  C   UNL d   1      29.281  15.548 -22.908  0.00  0.00     0.021 A 
ATOM      7  C   UNL d   1      29.159  16.543 -23.920  0.00  0.00     0.083 A 
ATOM      8  C   UNL d   1      28.482  15.453 -22.914  0.00  0.00     0.002 A 
ATOM      9  C   UNL d   1      27.985  15.884 -23.409  0.00  0.00     0.002 A 
ATOM     10  C   UNL d   1      28.350  16.433 -23.912  0.00  0.00     0.019 A 
ATOM     11  N   UNL d   1      29.684  17.035 -24.346  0.00  0.00    -0.285 N 
ATOM     12  C   UNL d   1      29.533  17.603 -24.934  0.00  0.00     0.101 C 
ENDBRANCH   1   3
BRANCH   1  13
ATOM     13  C   UNL d   1      31.830  16.815 -24.537  0.00  0.00     0.064 A 
ATOM     14  C   UNL d   1      32.552  17.068 -24.251  0.00  0.00     0.130 A 
ATOM     15  C   UNL d   1      33.230  16.622 -24.385  0.00  0.00     0.024 A 
ATOM     16  C   UNL d   1      33.188  15.915 -24.809  0.00  0.00     0.002 A 
ATOM     17  C   UNL d   1      32.440  15.669 -25.096  0.00  0.00     0.000 A 
ATOM     18  C   UNL d   1      31.758  16.113 -24.964  0.00  0.00     0.005 A 
BRANCH  14  19
ATOM     19  N   UNL d   1      32.603  17.777 -23.823  0.00  0.00    -0.114 N 
ATOM     20  O   UNL d   1      32.763  18.439 -24.275  0.00  0.00    -0.532 OA
ATOM     21  O   UNL d   1      32.495  17.799 -22.987  0.00  0.00    -0.532 OA
ENDBRANCH  14  19
ENDBRANCH   1  13
TORSDOF 3
ENDMDL
MODEL 2
REMARK VINA RESULT:      -1.5      2.132      3.670
REMARK  3 active torsions:
REMARK  status: ('A' for Active; 'I' for Inactive)
REMARK    1  A    between atoms: C_4  and  C_1 
REMARK    2  A    between atoms: C_6  and  C_4 
REMARK    3  A    between atoms: N_5  and  C_7 
ROOT
ATOM      1  C   UNL d   1      31.905  17.745 -24.112  0.00  0.00     0.231 C 
ATOM      2  O   UNL d   1      31.353  17.839 -24.705  0.00  0.00    -0.283 OA
ENDROOT
BRANCH   1   3
ATOM      3  C   UNL d   1      32.212  18.405 -23.707  0.00  0.00     0.188 A 
ATOM      4  N   UNL d   1      32.344  18.454 -22.900  0.00  0.00    -0.224 NA
ATOM      5  C   UNL d   1      32.655  19.207 -22.714  0.00  0.00     0.099 A 
ATOM      6  C   UNL d   1      32.886  19.563 -22.027  0.00  0.00     0.021 A 
ATOM      7  C   UNL d   1      32.712  19.626 -23.439  0.00  0.00     0.083 A 
ATOM      8  C   UNL d   1      33.170  20.315 -22.034  0.00  0.00     0.002 A 
ATOM      9  C   UNL d   1      33.241  20.759 -22.725  0.00  0.00     0.002 A 
ATOM     10  C   UNL d   1      33.002  20.389 -23.427  0.00  0.00     0.019 A 
ATOM     11  N   UNL d   1      32.433  19.109 -24.034  0.00  0.00    -0.285 N 
ATOM     12  C   UNL d   1      32.360  19.221 -24.855  0.00  0.00     0.101 C 
ENDBRANCH   1   3
BRANCH   1  13
ATOM     13  C   UNL d   1      32.172  16.967 -23.904  0.00  0.00     0.064 A 
ATOM     14  C   UNL d   1      31.637  16.355 -23.817  0.00  0.00     0.130 A 
ATOM     15  C   UNL d   1      31.899  15.602 -23.615  0.00  0.00     0.024 A 
ATOM     16  C   UNL d   1      32.702  15.456 -23.498  0.00  0.00     0.002 A 
ATOM     17  C   UNL d   1      33.238  16.094 -23.590  0.00  0.00     0.000 A 
ATOM     18  C   UNL d   1      32.981  16.850 -23.793  0.00  0.00     0.005 A 
BRANCH  14  19
ATOM     19  N   UNL d   1      30.828  16.493 -23.934  0.00  0.00    -0.114 N 
ATOM     20  O   UNL d   1      30.396  16.601 -23.248  0.00  0.00    -0.532 OA
ATOM     21  O   UNL d   1      30.488  16.518 -24.706  0.00  0.00    -0.532 OA
ENDBRANCH  14  19
ENDBRANCH   1  13
TORSDOF 3
ENDMDL
MODEL 3
REMARK VINA RESULT:      -1.3      1.292      2.029
REMARK  3 active torsions:
REMARK  status: ('A' for Active; 'I' for Inactive)
REMARK    1  A    between atoms: C_4  and  C_1 
REMARK    2  A    between atoms: C_6  and  C_4 
REMARK    3  A    between atoms: N_5  and  C_7 
ROOT
ATOM      1  C   UNL d   1      32.175  17.283 -23.805  0.00  0.00     0.231 C 
ATOM      2  O   UNL d   1      32.619  16.731 -23.402  0.00  0.00    -0.283 OA
ENDROOT
BRANCH   1   3
ATOM      3  C   UNL d   1      31.372  17.141 -23.977  0.00  0.00     0.188 A 
ATOM      4  N   UNL d   1      30.769  17.695 -23.943  0.00  0.00    -0.224 NA
ATOM      5  C   UNL d   1      30.047  17.331 -24.156  0.00  0.00     0.099 A 
ATOM      6  C   UNL d   1      29.286  17.595 -24.220  0.00  0.00     0.021 A 
ATOM      7  C   UNL d   1      30.225  16.529 -24.324  0.00  0.00     0.083 A 
ATOM      8  C   UNL d   1      28.700  17.093 -24.444  0.00  0.00     0.002 A 
ATOM      9  C   UNL d   1      28.834  16.299 -24.618  0.00  0.00     0.002 A 
ATOM     10  C   UNL d   1      29.616  16.034 -24.550  0.00  0.00     0.019 A 
ATOM     11  N   UNL d   1      31.048  16.439 -24.206  0.00  0.00    -0.285 N 
ATOM     12  C   UNL d   1      31.534  15.769 -24.289  0.00  0.00     0.101 C 
ENDBRANCH   1   3
BRANCH   1  13
ATOM     13  C   UNL d   1      32.532  18.012 -24.054  0.00  0.00     0.064 A 
ATOM     14  C   UNL d   1      32.887  18.507 -23.509  0.00  0.00     0.130 A 
ATOM     15  C   UNL d   1      33.232  19.212 -23.753  0.00  0.00     0.024 A 
ATOM     16  C   UNL d   1      33.224  19.428 -24.550  0.00  0.00     0.002 A 
ATOM     17  C   UNL d   1      32.857  18.909 -25.097  0.00  0.00     0.000 A 
ATOM     18  C   UNL d   1      32.510  18.202 -24.856  0.00  0.00     0.005 A 
BRANCH  14  19
ATOM     19  N   UNL d   1      32.899  18.298 -22.706  0.00  0.00    -0.114 N 
ATOM     20  O   UNL d   1      33.241  17.573 -22.545  0.00  0.00    -0.532 OA
ATOM     21  O   UNL d   1      32.579  18.804 -22.111  0.00  0.00    -0.532 OA
ENDBRANCH  14  19
ENDBRANCH   1  13
TORSDOF 3
ENDMDL
MODEL 4
REMARK VINA RESULT:      -1.3      1.427      3.615
REMARK  3 active torsions:
REMARK  status: ('A' for Active; 'I' for Inactive)
REMARK    1  A    between atoms: C_4  and  C_1 
REMARK    2  A    between atoms: C_6  and  C_4 
REMARK    3  A    between atoms: N_5  and  C_7 
ROOT
ATOM      1  C   UNL d   1      29.825  16.760 -24.395  0.00  0.00     0.231 C 
ATOM      2  O   UNL d   1      29.636  17.131 -25.097  0.00  0.00    -0.283 OA
ENDROOT
BRANCH   1   3
ATOM      3  C   UNL d   1      30.620  16.627 -24.185  0.00  0.00     0.188 A 
ATOM      4  N   UNL d   1      31.043  17.041 -23.618  0.00  0.00    -0.224 NA
ATOM      5  C   UNL d   1      31.821  16.738 -23.574  0.00  0.00     0.099 A 
ATOM      6  C   UNL d   1      32.468  16.922 -23.128  0.00  0.00     0.021 A 
ATOM      7  C   UNL d   1      31.866  16.117 -24.137  0.00  0.00     0.083 A 
ATOM      8  C   UNL d   1      33.154  16.514 -23.220  0.00  0.00     0.002 A 
ATOM      9  C   UNL d   1      33.239  15.898 -23.762  0.00  0.00     0.002 A 
ATOM     10  C   UNL d   1      32.571  15.714 -24.217  0.00  0.00     0.019 A 
ATOM     11  N   UNL d   1      31.113  16.070 -24.499  0.00  0.00    -0.285 N 
ATOM     12  C   UNL d   1      30.832  15.562 -25.094  0.00  0.00     0.101 C 
ENDBRANCH   1   3
BRANCH   1  13
ATOM     13  C   UNL d   1      29.207  16.507 -23.872  0.00  0.00     0.064 A 
ATOM     14  C   UNL d   1      28.571  16.995 -23.715  0.00  0.00     0.130 A 
ATOM     15  C   UNL d   1      27.974  16.747 -23.208  0.00  0.00     0.024 A 
ATOM     16  C   UNL d   1      28.010  16.003 -22.852  0.00  0.00     0.002 A 
ATOM     17  C   UNL d   1      28.669  15.514 -23.023  0.00  0.00     0.000 A 
ATOM     18  C   UNL d   1      29.270  15.759 -23.531  0.00  0.00     0.005 A 
BRANCH  14  19
ATOM     19  N   UNL d   1      28.527  17.744 -24.069  0.00  0.00    -0.114 N 
ATOM     20  O   UNL d   1      28.543  18.372 -23.546  0.00  0.00    -0.532 OA
ATOM     21  O   UNL d   1      28.470  17.837 -24.906  0.00  0.00    -0.532 OA
ENDBRANCH  14  19
ENDBRANCH   1  13
TORSDOF 3
ENDMDL
