MODEL 1
REMARK VINA RESULT:      -6.3      0.000      0.000
REMARK  4 active torsions:
REMARK  status: ('A' for Active; 'I' for Inactive)
REMARK    1  A    between atoms: N_8  and  C_2 
REMARK    2  A    between atoms: C_9  and  C_3 
REMARK       I    between atoms: C_6  and  N_7 
REMARK    3  A    between atoms: C_11  and  C_6 
REMARK    4  A    between atoms: N_7  and  N_8 
ROOT
ATOM      1  N   UNL d   1      57.636  -0.748  30.916  0.00  0.00    -0.221 NA
ATOM      2  C   UNL d   1      58.149  -0.488  30.339  0.00  0.00     0.186 A 
ATOM      3  C   UNL d   1      57.300  -0.092  31.250  0.00  0.00     0.090 A 
ATOM      4  S   UNL d   1      58.128   0.321  30.318  0.00  0.00    -0.047 SA
ATOM      5  C   UNL d   1      57.600   0.567  30.884  0.00  0.00     0.058 A 
ENDROOT
BRANCH   2   6
ATOM      6  N   UNL d   1      58.623  -0.975  29.845  0.00  0.00    -0.275 N 
ATOM      7  H   UNL d   1      58.463  -1.782  29.804  0.00  0.00     0.189 HD
BRANCH   6   8
ATOM      8  N   UNL d   1      59.240  -0.642  29.409  0.00  0.00    -0.264 N 
ATOM      9  C   UNL d   1      59.703  -1.134  28.932  0.00  0.00     0.271 C 
ATOM     10  O   UNL d   1      60.320  -0.800  28.496  0.00  0.00    -0.266 OA
ATOM     11  H   UNL d   1      59.377   0.163  29.461  0.00  0.00     0.190 HD
BRANCH   9  12
ATOM     12  C   UNL d   1      59.559  -1.934  28.888  0.00  0.00     0.057 A 
ATOM     13  C   UNL d   1      60.093  -2.439  29.271  0.00  0.00     0.005 A 
ATOM     14  C   UNL d   1      59.973  -3.257  29.244  0.00  0.00     0.000 A 
ATOM     15  C   UNL d   1      59.333  -3.578  28.843  0.00  0.00     0.000 A 
ATOM     16  C   UNL d   1      58.794  -3.057  28.455  0.00  0.00     0.000 A 
ATOM     17  C   UNL d   1      58.912  -2.244  28.481  0.00  0.00     0.005 A 
ENDBRANCH   9  12
ENDBRANCH   6   8
ENDBRANCH   2   6
BRANCH   3  18
ATOM     18  C   UNL d   1      56.746  -0.098  31.859  0.00  0.00     0.018 A 
ATOM     19  C   UNL d   1      56.503  -0.819  32.181  0.00  0.00     0.002 A 
ATOM     20  C   UNL d   1      55.949  -0.832  32.789  0.00  0.00     0.000 A 
ATOM     21  C   UNL d   1      55.637  -0.117  33.077  0.00  0.00     0.000 A 
ATOM     22  C   UNL d   1      55.880   0.604  32.756  0.00  0.00     0.000 A 
ATOM     23  C   UNL d   1      55.082  -0.118  33.688  0.00  0.00     0.000 C 
ATOM     24  C   UNL d   1      56.438   0.613  32.142  0.00  0.00     0.002 A 
ENDBRANCH   3  18
TORSDOF 4
ENDMDL
MODEL 2
REMARK VINA RESULT:      -5.0      1.505      4.946
REMARK  4 active torsions:
REMARK  status: ('A' for Active; 'I' for Inactive)
REMARK    1  A    between atoms: N_8  and  C_2 
REMARK    2  A    between atoms: C_9  and  C_3 
REMARK       I    between atoms: C_6  and  N_7 
REMARK    3  A    between atoms: C_11  and  C_6 
REMARK    4  A    between atoms: N_7  and  N_8 
ROOT
ATOM      1  N   UNL d   1      58.150  -0.861  30.763  0.00  0.00    -0.221 NA
ATOM      2  C   UNL d   1      57.736  -0.179  30.924  0.00  0.00     0.186 A 
ATOM      3  C   UNL d   1      58.443  -0.790  30.012  0.00  0.00     0.090 A 
ATOM      4  S   UNL d   1      57.775   0.308  30.278  0.00  0.00    -0.047 SA
ATOM      5  C   UNL d   1      58.214  -0.072  29.711  0.00  0.00     0.058 A 
ENDROOT
BRANCH   2   6
ATOM      6  N   UNL d   1      57.334  -0.003  31.641  0.00  0.00    -0.275 N 
ATOM      7  H   UNL d   1      56.526  -0.153  31.695  0.00  0.00     0.189 HD
BRANCH   6   8
ATOM      8  N   UNL d   1      57.751   0.316  32.279  0.00  0.00    -0.264 N 
ATOM      9  C   UNL d   1      57.378   0.359  33.017  0.00  0.00     0.271 C 
ATOM     10  O   UNL d   1      57.796   0.678  33.655  0.00  0.00    -0.266 OA
ATOM     11  H   UNL d   1      58.516   0.580  32.165  0.00  0.00     0.190 HD
BRANCH   9  12
ATOM     12  C   UNL d   1      56.616   0.093  33.120  0.00  0.00     0.057 A 
ATOM     13  C   UNL d   1      56.020   0.666  33.190  0.00  0.00     0.005 A 
ATOM     14  C   UNL d   1      55.235   0.427  33.296  0.00  0.00     0.000 A 
ATOM     15  C   UNL d   1      55.035  -0.369  33.332  0.00  0.00     0.000 A 
ATOM     16  C   UNL d   1      55.648  -0.944  33.259  0.00  0.00     0.000 A 
ATOM     17  C   UNL d   1      56.429  -0.709  33.155  0.00  0.00     0.005 A 
ENDBRANCH   9  12
ENDBRANCH   6   8
ENDBRANCH   2   6
BRANCH   3  18
ATOM     18  C   UNL d   1      58.898  -1.356  29.623  0.00  0.00     0.018 A 
ATOM     19  C   UNL d   1      58.617  -2.131  29.561  0.00  0.00     0.002 A 
ATOM     20  C   UNL d   1      59.067  -2.701  29.173  0.00  0.00     0.000 A 
ATOM     21  C   UNL d   1      59.802  -2.493  28.846  0.00  0.00     0.000 A 
ATOM     22  C   UNL d   1      60.082  -1.719  28.908  0.00  0.00     0.000 A 
ATOM     23  C   UNL d   1      60.261  -3.057  28.455  0.00  0.00     0.000 C 
ATOM     24  C   UNL d   1      59.627  -1.147  29.299  0.00  0.00     0.002 A 
ENDBRANCH   3  18
TORSDOF 4
ENDMDL
MODEL 3
REMARK VINA RESULT:      -4.8      1.101      1.497
REMARK  4 active torsions:
REMARK  status: ('A' for Active; 'I' for Inactive)
REMARK    1  A    between atoms: N_8  and  C_2 
REMARK    2  A    between atoms: C_9  and  C_3 
REMARK       I    between atoms: C_6  and  N_7 
REMARK    3  A    between atoms: C_11  and  C_6 
REMARK    4  A    between atoms: N_7  and  N_8 
ROOT
ATOM      1  N   UNL d   1      57.203  -0.046  31.632  0.00  0.00    -0.221 NA
ATOM      2  C   UNL d   1      57.933   0.091  31.300  0.00  0.00     0.186 A 
ATOM      3  C   UNL d   1      57.199   0.316  32.356  0.00  0.00     0.090 A 
ATOM      4  S   UNL d   1      58.375   0.533  31.815  0.00  0.00    -0.047 SA
ATOM      5  C   UNL d   1      57.918   0.673  32.471  0.00  0.00     0.058 A 
ENDROOT
BRANCH   2   6
ATOM      6  N   UNL d   1      58.192  -0.180  30.547  0.00  0.00    -0.275 N 
ATOM      7  H   UNL d   1      58.650  -0.863  30.502  0.00  0.00     0.189 HD
BRANCH   6   8
ATOM      8  N   UNL d   1      57.984   0.239  29.866  0.00  0.00    -0.264 N 
ATOM      9  C   UNL d   1      58.287  -0.011  29.137  0.00  0.00     0.271 C 
ATOM     10  O   UNL d   1      58.079   0.408  28.456  0.00  0.00    -0.266 OA
ATOM     11  H   UNL d   1      57.489   0.886  29.930  0.00  0.00     0.190 HD
BRANCH   9  12
ATOM     12  C   UNL d   1      58.779  -0.657  29.085  0.00  0.00     0.057 A 
ATOM     13  C   UNL d   1      59.586  -0.511  28.960  0.00  0.00     0.005 A 
ATOM     14  C   UNL d   1      60.112  -1.148  28.902  0.00  0.00     0.000 A 
ATOM     15  C   UNL d   1      59.848  -1.922  28.967  0.00  0.00     0.000 A 
ATOM     16  C   UNL d   1      59.025  -2.062  29.094  0.00  0.00     0.000 A 
ATOM     17  C   UNL d   1      58.501  -1.431  29.151  0.00  0.00     0.005 A 
ENDBRANCH   9  12
ENDBRANCH   6   8
ENDBRANCH   2   6
BRANCH   3  18
ATOM     18  C   UNL d   1      56.566   0.318  32.884  0.00  0.00     0.018 A 
ATOM     19  C   UNL d   1      55.854  -0.040  32.667  0.00  0.00     0.002 A 
ATOM     20  C   UNL d   1      55.219  -0.041  33.190  0.00  0.00     0.000 A 
ATOM     21  C   UNL d   1      55.298   0.319  33.935  0.00  0.00     0.000 A 
ATOM     22  C   UNL d   1      56.010   0.677  34.152  0.00  0.00     0.000 A 
ATOM     23  C   UNL d   1      54.667   0.324  34.467  0.00  0.00     0.000 C 
ATOM     24  C   UNL d   1      56.648   0.676  33.622  0.00  0.00     0.002 A 
ENDBRANCH   3  18
TORSDOF 4
ENDMDL
MODEL 4
REMARK VINA RESULT:      -4.0      8.532      9.655
REMARK  4 active torsions:
REMARK  status: ('A' for Active; 'I' for Inactive)
REMARK    1  A    between atoms: N_8  and  C_2 
REMARK    2  A    between atoms: C_9  and  C_3 
REMARK       I    between atoms: C_6  and  N_7 
REMARK    3  A    between atoms: C_11  and  C_6 
REMARK    4  A    between atoms: N_7  and  N_8 
ROOT
ATOM      1  N   UNL d   1      59.038  -9.062  33.317  0.00  0.00    -0.221 NA
ATOM      2  C   UNL d   1      59.733  -9.130  33.735  0.00  0.00     0.186 A 
ATOM      3  C   UNL d   1      59.127  -9.487  32.635  0.00  0.00     0.090 A 
ATOM      4  S   UNL d   1      60.246  -9.593  33.313  0.00  0.00    -0.047 SA
ATOM      5  C   UNL d   1      59.869  -9.815  32.629  0.00  0.00     0.058 A 
ENDROOT
BRANCH   2   6
ATOM      6  N   UNL d   1      59.897  -8.779  34.481  0.00  0.00    -0.275 N 
ATOM      7  H   UNL d   1      59.613  -8.023  34.640  0.00  0.00     0.189 HD
BRANCH   6   8
ATOM      8  N   UNL d   1      60.339  -9.195  35.042  0.00  0.00    -0.264 N 
ATOM      9  C   UNL d   1      60.524  -8.823  35.758  0.00  0.00     0.271 C 
ATOM     10  O   UNL d   1      60.966  -9.239  36.319  0.00  0.00    -0.266 OA
ATOM     11  H   UNL d   1      60.580  -9.958  34.876  0.00  0.00     0.190 HD
BRANCH   9  12
ATOM     12  C   UNL d   1      60.279  -8.063  35.913  0.00  0.00     0.057 A 
ATOM     13  C   UNL d   1      60.834  -7.456  35.810  0.00  0.00     0.005 A 
ATOM     14  C   UNL d   1      60.615  -6.672  35.961  0.00  0.00     0.000 A 
ATOM     15  C   UNL d   1      59.856  -6.485  36.210  0.00  0.00     0.000 A 
ATOM     16  C   UNL d   1      59.297  -7.109  36.312  0.00  0.00     0.000 A 
ATOM     17  C   UNL d   1      59.513  -7.888  36.164  0.00  0.00     0.005 A 
ENDBRANCH   9  12
ENDBRANCH   6   8
ENDBRANCH   2   6
BRANCH   3  18
ATOM     18  C   UNL d   1      58.555  -9.570  32.047  0.00  0.00     0.018 A 
ATOM     19  C   UNL d   1      58.791  -9.683  31.263  0.00  0.00     0.002 A 
ATOM     20  C   UNL d   1      58.226  -9.766  30.672  0.00  0.00     0.000 A 
ATOM     21  C   UNL d   1      57.418  -9.735  30.866  0.00  0.00     0.000 A 
ATOM     22  C   UNL d   1      57.182  -9.622  31.650  0.00  0.00     0.000 A 
ATOM     23  C   UNL d   1      56.843  -9.818  30.281  0.00  0.00     0.000 C 
ATOM     24  C   UNL d   1      57.755  -9.539  32.243  0.00  0.00     0.002 A 
ENDBRANCH   3  18
TORSDOF 4
ENDMDL
