MODEL 1
REMARK VINA RESULT:      -9.0      0.000      0.000
REMARK  4 active torsions:
REMARK  status: ('A' for Active; 'I' for Inactive)
REMARK    1  A    between atoms: C_9  and  N_2 
REMARK    2  A    between atoms: C_7  and  O_10 
REMARK    3  A    between atoms: C_11  and  C_9 
REMARK    4  A    between atoms: O_10  and  C_11 
ROOT
ATOM      1  C   UNL d   1      54.294  33.560  54.994  0.00  0.00     0.378 A 
ATOM      2  N   UNL d   1      53.996  33.341  54.248  0.00  0.00    -0.249 N 
ATOM      3  O   UNL d   1      53.950  34.285  55.206  0.00  0.00    -0.258 OA
ATOM      4  C   UNL d   1      53.470  33.931  54.004  0.00  0.00     0.092 A 
ATOM      5  C   UNL d   1      53.443  34.513  54.596  0.00  0.00     0.121 A 
ATOM      6  O   UNL d   1      54.836  33.126  55.434  0.00  0.00    -0.237 OA
ATOM      7  C   UNL d   1      53.012  34.014  53.319  0.00  0.00     0.020 A 
ATOM      8  C   UNL d   1      52.952  35.177  54.494  0.00  0.00     0.026 A 
ATOM      9  C   UNL d   1      52.529  34.677  53.229  0.00  0.00     0.002 A 
ATOM     10  C   UNL d   1      52.499  35.256  53.812  0.00  0.00     0.002 A 
ENDROOT
BRANCH   2  11
ATOM     11  C   UNL d   1      54.164  32.670  53.797  0.00  0.00     0.112 C 
BRANCH  11  12
ATOM     12  C   UNL d   1      53.829  31.951  53.996  0.00  0.00     0.142 C 
BRANCH  12  13
ATOM     13  O   UNL d   1      53.819  31.337  53.446  0.00  0.00    -0.304 OA
BRANCH  13  14
ATOM     14  C   UNL d   1      53.504  30.601  53.654  0.00  0.00     0.100 A 
ATOM     15  C   UNL d   1      53.010  30.215  53.128  0.00  0.00     0.023 A 
ATOM     16  C   UNL d   1      52.828  30.553  52.401  0.00  0.00     0.002 C 
ATOM     17  C   UNL d   1      52.691  29.477  53.329  0.00  0.00     0.002 A 
ATOM     18  C   UNL d   1      52.878  29.141  54.064  0.00  0.00     0.000 A 
ATOM     19  C   UNL d   1      53.377  29.539  54.586  0.00  0.00     0.002 A 
ATOM     20  C   UNL d   1      53.687  30.266  54.379  0.00  0.00     0.025 A 
ENDBRANCH  13  14
ENDBRANCH  12  13
ENDBRANCH  11  12
ENDBRANCH   2  11
TORSDOF 4
ENDMDL
MODEL 2
REMARK VINA RESULT:      -7.9      0.993      4.469
REMARK  4 active torsions:
REMARK  status: ('A' for Active; 'I' for Inactive)
REMARK    1  A    between atoms: C_9  and  N_2 
REMARK    2  A    between atoms: C_7  and  O_10 
REMARK    3  A    between atoms: C_11  and  C_9 
REMARK    4  A    between atoms: O_10  and  C_11 
ROOT
ATOM      1  C   UNL d   1      52.724  31.006  52.710  0.00  0.00     0.378 A 
ATOM      2  N   UNL d   1      53.304  31.078  53.303  0.00  0.00    -0.249 N 
ATOM      3  O   UNL d   1      52.383  30.252  52.773  0.00  0.00    -0.258 OA
ATOM      4  C   UNL d   1      53.319  30.368  53.729  0.00  0.00     0.092 A 
ATOM      5  C   UNL d   1      52.750  29.860  53.400  0.00  0.00     0.121 A 
ATOM      6  O   UNL d   1      52.531  31.589  52.163  0.00  0.00    -0.237 OA
ATOM      7  C   UNL d   1      53.776  30.120  54.372  0.00  0.00     0.020 A 
ATOM      8  C   UNL d   1      52.645  29.100  53.724  0.00  0.00     0.026 A 
ATOM      9  C   UNL d   1      53.663  29.364  54.685  0.00  0.00     0.002 A 
ATOM     10  C   UNL d   1      53.102  28.857  54.363  0.00  0.00     0.002 A 
ENDROOT
BRANCH   2  11
ATOM     11  C   UNL d   1      53.797  31.718  53.473  0.00  0.00     0.112 C 
BRANCH  11  12
ATOM     12  C   UNL d   1      53.473  32.449  53.641  0.00  0.00     0.142 C 
BRANCH  12  13
ATOM     13  O   UNL d   1      53.946  33.045  53.959  0.00  0.00    -0.304 OA
BRANCH  13  14
ATOM     14  C   UNL d   1      53.618  33.784  54.132  0.00  0.00     0.100 A 
ATOM     15  C   UNL d   1      53.822  34.157  54.832  0.00  0.00     0.023 A 
ATOM     16  C   UNL d   1      54.345  33.803  55.357  0.00  0.00     0.002 C 
ATOM     17  C   UNL d   1      53.497  34.898  55.013  0.00  0.00     0.002 A 
ATOM     18  C   UNL d   1      52.970  35.251  54.480  0.00  0.00     0.000 A 
ATOM     19  C   UNL d   1      52.772  34.866  53.778  0.00  0.00     0.002 A 
ATOM     20  C   UNL d   1      53.096  34.136  53.608  0.00  0.00     0.025 A 
ENDBRANCH  13  14
ENDBRANCH  12  13
ENDBRANCH  11  12
ENDBRANCH   2  11
TORSDOF 4
ENDMDL
MODEL 3
REMARK VINA RESULT:      -7.7      2.079      4.079
REMARK  4 active torsions:
REMARK  status: ('A' for Active; 'I' for Inactive)
REMARK    1  A    between atoms: C_9  and  N_2 
REMARK    2  A    between atoms: C_7  and  O_10 
REMARK    3  A    between atoms: C_11  and  C_9 
REMARK    4  A    between atoms: O_10  and  C_11 
ROOT
ATOM      1  C   UNL d   1      52.972  32.192  53.148  0.00  0.00     0.378 A 
ATOM      2  N   UNL d   1      52.956  33.018  53.256  0.00  0.00    -0.249 N 
ATOM      3  O   UNL d   1      53.449  31.864  53.742  0.00  0.00    -0.258 OA
ATOM      4  C   UNL d   1      53.423  33.194  53.916  0.00  0.00     0.092 A 
ATOM      5  C   UNL d   1      53.727  32.481  54.215  0.00  0.00     0.121 A 
ATOM      6  O   UNL d   1      52.579  31.784  52.552  0.00  0.00    -0.237 OA
ATOM      7  C   UNL d   1      53.611  33.912  54.283  0.00  0.00     0.020 A 
ATOM      8  C   UNL d   1      54.220  32.497  54.884  0.00  0.00     0.026 A 
ATOM      9  C   UNL d   1      54.101  33.914  54.947  0.00  0.00     0.002 A 
ATOM     10  C   UNL d   1      54.404  33.211  55.246  0.00  0.00     0.002 A 
ENDROOT
BRANCH   2  11
ATOM     11  C   UNL d   1      52.562  33.593  52.813  0.00  0.00     0.112 C 
BRANCH  11  12
ATOM     12  C   UNL d   1      51.752  33.680  52.888  0.00  0.00     0.142 C 
BRANCH  12  13
ATOM     13  O   UNL d   1      51.324  34.059  52.293  0.00  0.00    -0.304 OA
BRANCH  13  14
ATOM     14  C   UNL d   1      50.577  34.373  52.459  0.00  0.00     0.100 A 
ATOM     15  C   UNL d   1      50.027  34.434  51.856  0.00  0.00     0.023 A 
ATOM     16  C   UNL d   1      50.212  34.185  51.095  0.00  0.00     0.002 C 
ATOM     17  C   UNL d   1      49.277  34.748  52.014  0.00  0.00     0.002 A 
ATOM     18  C   UNL d   1      49.095  34.998  52.783  0.00  0.00     0.000 A 
ATOM     19  C   UNL d   1      49.657  34.932  53.383  0.00  0.00     0.002 A 
ATOM     20  C   UNL d   1      50.394  34.621  53.218  0.00  0.00     0.025 A 
ENDBRANCH  13  14
ENDBRANCH  12  13
ENDBRANCH  11  12
ENDBRANCH   2  11
TORSDOF 4
ENDMDL
MODEL 4
REMARK VINA RESULT:      -7.6      1.700      4.041
REMARK  4 active torsions:
REMARK  status: ('A' for Active; 'I' for Inactive)
REMARK    1  A    between atoms: C_9  and  N_2 
REMARK    2  A    between atoms: C_7  and  O_10 
REMARK    3  A    between atoms: C_11  and  C_9 
REMARK    4  A    between atoms: O_10  and  C_11 
ROOT
ATOM      1  C   UNL d   1      53.776  32.482  54.120  0.00  0.00     0.378 A 
ATOM      2  N   UNL d   1      53.324  32.363  53.430  0.00  0.00    -0.249 N 
ATOM      3  O   UNL d   1      53.942  31.739  54.450  0.00  0.00    -0.258 OA
ATOM      4  C   UNL d   1      53.214  31.548  53.339  0.00  0.00     0.092 A 
ATOM      5  C   UNL d   1      53.597  31.164  53.969  0.00  0.00     0.121 A 
ATOM      6  O   UNL d   1      54.010  33.214  54.413  0.00  0.00    -0.237 OA
ATOM      7  C   UNL d   1      52.816  31.107  52.763  0.00  0.00     0.020 A 
ATOM      8  C   UNL d   1      53.574  30.334  54.014  0.00  0.00     0.026 A 
ATOM      9  C   UNL d   1      52.801  30.283  52.819  0.00  0.00     0.002 A 
ATOM     10  C   UNL d   1      53.178  29.899  53.441  0.00  0.00     0.002 A 
ENDROOT
BRANCH   2  11
ATOM     11  C   UNL d   1      53.021  32.923  52.905  0.00  0.00     0.112 C 
BRANCH  11  12
ATOM     12  C   UNL d   1      52.339  33.333  53.095  0.00  0.00     0.142 C 
BRANCH  12  13
ATOM     13  O   UNL d   1      51.995  33.837  52.541  0.00  0.00    -0.304 OA
BRANCH  13  14
ATOM     14  C   UNL d   1      51.230  34.126  52.663  0.00  0.00     0.100 A 
ATOM     15  C   UNL d   1      50.758  34.294  52.016  0.00  0.00     0.023 A 
ATOM     16  C   UNL d   1      51.040  34.179  51.253  0.00  0.00     0.002 C 
ATOM     17  C   UNL d   1      49.990  34.584  52.131  0.00  0.00     0.002 A 
ATOM     18  C   UNL d   1      49.711  34.698  52.903  0.00  0.00     0.000 A 
ATOM     19  C   UNL d   1      50.195  34.525  53.548  0.00  0.00     0.002 A 
ATOM     20  C   UNL d   1      50.951  34.240  53.425  0.00  0.00     0.025 A 
ENDBRANCH  13  14
ENDBRANCH  12  13
ENDBRANCH  11  12
ENDBRANCH   2  11
TORSDOF 4
ENDMDL
MODEL 5
REMARK VINA RESULT:      -7.6      2.047      4.017
REMARK  4 active torsions:
REMARK  status: ('A' for Active; 'I' for Inactive)
REMARK    1  A    between atoms: C_9  and  N_2 
REMARK    2  A    between atoms: C_7  and  O_10 
REMARK    3  A    between atoms: C_11  and  C_9 
REMARK    4  A    between atoms: O_10  and  C_11 
ROOT
ATOM      1  C   UNL d   1      53.222  35.117  54.487  0.00  0.00     0.378 A 
ATOM      2  N   UNL d   1      53.074  34.491  53.958  0.00  0.00    -0.249 N 
ATOM      3  O   UNL d   1      53.692  34.825  55.106  0.00  0.00    -0.258 OA
ATOM      4  C   UNL d   1      53.453  33.817  54.252  0.00  0.00     0.092 A 
ATOM      5  C   UNL d   1      53.834  34.026  54.961  0.00  0.00     0.121 A 
ATOM      6  O   UNL d   1      52.944  35.886  54.401  0.00  0.00    -0.237 OA
ATOM      7  C   UNL d   1      53.501  33.042  53.967  0.00  0.00     0.020 A 
ATOM      8  C   UNL d   1      54.262  33.447  55.379  0.00  0.00     0.026 A 
ATOM      9  C   UNL d   1      53.929  32.477  54.391  0.00  0.00     0.002 A 
ATOM     10  C   UNL d   1      54.307  32.678  55.092  0.00  0.00     0.002 A 
ENDROOT
BRANCH   2  11
ATOM     11  C   UNL d   1      52.636  34.495  53.258  0.00  0.00     0.112 C 
BRANCH  11  12
ATOM     12  C   UNL d   1      51.820  34.538  53.287  0.00  0.00     0.142 C 
BRANCH  12  13
ATOM     13  O   UNL d   1      51.374  34.328  52.626  0.00  0.00    -0.304 OA
BRANCH  13  14
ATOM     14  C   UNL d   1      50.570  34.518  52.593  0.00  0.00     0.100 A 
ATOM     15  C   UNL d   1      50.168  34.429  51.886  0.00  0.00     0.023 A 
ATOM     16  C   UNL d   1      50.556  34.154  51.216  0.00  0.00     0.002 C 
ATOM     17  C   UNL d   1      49.362  34.618  51.845  0.00  0.00     0.002 A 
ATOM     18  C   UNL d   1      48.975  34.895  52.523  0.00  0.00     0.000 A 
ATOM     19  C   UNL d   1      49.390  34.981  53.230  0.00  0.00     0.002 A 
ATOM     20  C   UNL d   1      50.185  34.793  53.262  0.00  0.00     0.025 A 
ENDBRANCH  13  14
ENDBRANCH  12  13
ENDBRANCH  11  12
ENDBRANCH   2  11
TORSDOF 4
ENDMDL
MODEL 6
REMARK VINA RESULT:      -7.5      1.171      1.615
REMARK  4 active torsions:
REMARK  status: ('A' for Active; 'I' for Inactive)
REMARK    1  A    between atoms: C_9  and  N_2 
REMARK    2  A    between atoms: C_7  and  O_10 
REMARK    3  A    between atoms: C_11  and  C_9 
REMARK    4  A    between atoms: O_10  and  C_11 
ROOT
ATOM      1  C   UNL d   1      52.209  33.654  52.788  0.00  0.00     0.378 A 
ATOM      2  N   UNL d   1      52.887  33.407  53.205  0.00  0.00    -0.249 N 
ATOM      3  O   UNL d   1      51.967  34.383  53.101  0.00  0.00    -0.258 OA
ATOM      4  C   UNL d   1      53.059  33.984  53.771  0.00  0.00     0.092 A 
ATOM      5  C   UNL d   1      52.490  34.586  53.706  0.00  0.00     0.121 A 
ATOM      6  O   UNL d   1      51.852  33.238  52.176  0.00  0.00    -0.237 OA
ATOM      7  C   UNL d   1      53.659  34.040  54.338  0.00  0.00     0.020 A 
ATOM      8  C   UNL d   1      52.531  35.243  54.215  0.00  0.00     0.026 A 
ATOM      9  C   UNL d   1      53.690  34.697  54.838  0.00  0.00     0.002 A 
ATOM     10  C   UNL d   1      53.129  35.295  54.777  0.00  0.00     0.002 A 
ENDROOT
BRANCH   2  11
ATOM     11  C   UNL d   1      53.337  32.722  53.106  0.00  0.00     0.112 C 
BRANCH  11  12
ATOM     12  C   UNL d   1      53.057  32.006  53.384  0.00  0.00     0.142 C 
BRANCH  12  13
ATOM     13  O   UNL d   1      53.384  31.301  53.108  0.00  0.00    -0.304 OA
BRANCH  13  14
ATOM     14  C   UNL d   1      53.303  30.607  53.550  0.00  0.00     0.100 A 
ATOM     15  C   UNL d   1      53.055  29.922  53.176  0.00  0.00     0.023 A 
ATOM     16  C   UNL d   1      52.889  29.922  52.372  0.00  0.00     0.002 C 
ATOM     17  C   UNL d   1      52.972  29.223  53.613  0.00  0.00     0.002 A 
ATOM     18  C   UNL d   1      53.141  29.228  54.424  0.00  0.00     0.000 A 
ATOM     19  C   UNL d   1      53.390  29.924  54.790  0.00  0.00     0.002 A 
ATOM     20  C   UNL d   1      53.469  30.609  54.353  0.00  0.00     0.025 A 
ENDBRANCH  13  14
ENDBRANCH  12  13
ENDBRANCH  11  12
ENDBRANCH   2  11
TORSDOF 4
ENDMDL
MODEL 7
REMARK VINA RESULT:      -6.7      2.053      3.344
REMARK  4 active torsions:
REMARK  status: ('A' for Active; 'I' for Inactive)
REMARK    1  A    between atoms: C_9  and  N_2 
REMARK    2  A    between atoms: C_7  and  O_10 
REMARK    3  A    between atoms: C_11  and  C_9 
REMARK    4  A    between atoms: O_10  and  C_11 
ROOT
ATOM      1  C   UNL d   1      51.449  32.049  53.213  0.00  0.00     0.378 A 
ATOM      2  N   UNL d   1      52.004  32.653  53.065  0.00  0.00    -0.249 N 
ATOM      3  O   UNL d   1      50.690  32.380  53.167  0.00  0.00    -0.258 OA
ATOM      4  C   UNL d   1      51.583  33.352  52.928  0.00  0.00     0.092 A 
ATOM      5  C   UNL d   1      50.773  33.182  52.991  0.00  0.00     0.121 A 
ATOM      6  O   UNL d   1      51.635  31.265  53.376  0.00  0.00    -0.237 OA
ATOM      7  C   UNL d   1      51.834  34.121  52.754  0.00  0.00     0.020 A 
ATOM      8  C   UNL d   1      50.218  33.792  52.878  0.00  0.00     0.026 A 
ATOM      9  C   UNL d   1      51.274  34.718  52.644  0.00  0.00     0.002 A 
ATOM     10  C   UNL d   1      50.471  34.554  52.705  0.00  0.00     0.002 A 
ENDROOT
BRANCH   2  11
ATOM     11  C   UNL d   1      52.828  32.609  53.048  0.00  0.00     0.112 C 
BRANCH  11  12
ATOM     12  C   UNL d   1      53.253  32.639  53.746  0.00  0.00     0.142 C 
BRANCH  12  13
ATOM     13  O   UNL d   1      54.077  32.649  53.725  0.00  0.00    -0.304 OA
BRANCH  13  14
ATOM     14  C   UNL d   1      54.501  33.033  54.322  0.00  0.00     0.100 A 
ATOM     15  C   UNL d   1      55.209  33.399  54.138  0.00  0.00     0.023 A 
ATOM     16  C   UNL d   1      55.497  33.387  53.368  0.00  0.00     0.002 C 
ATOM     17  C   UNL d   1      55.639  33.785  54.731  0.00  0.00     0.002 A 
ATOM     18  C   UNL d   1      55.344  33.794  55.506  0.00  0.00     0.000 A 
ATOM     19  C   UNL d   1      54.629  33.422  55.680  0.00  0.00     0.002 A 
ATOM     20  C   UNL d   1      54.212  33.043  55.089  0.00  0.00     0.025 A 
ENDBRANCH  13  14
ENDBRANCH  12  13
ENDBRANCH  11  12
ENDBRANCH   2  11
TORSDOF 4
ENDMDL
MODEL 8
REMARK VINA RESULT:      -6.1      2.578      3.430
REMARK  4 active torsions:
REMARK  status: ('A' for Active; 'I' for Inactive)
REMARK    1  A    between atoms: C_9  and  N_2 
REMARK    2  A    between atoms: C_7  and  O_10 
REMARK    3  A    between atoms: C_11  and  C_9 
REMARK    4  A    between atoms: O_10  and  C_11 
ROOT
ATOM      1  C   UNL d   1      50.771  34.809  53.273  0.00  0.00     0.378 A 
ATOM      2  N   UNL d   1      50.905  34.381  52.571  0.00  0.00    -0.249 N 
ATOM      3  O   UNL d   1      49.996  35.106  53.249  0.00  0.00    -0.258 OA
ATOM      4  C   UNL d   1      50.213  34.415  52.119  0.00  0.00     0.092 A 
ATOM      5  C   UNL d   1      49.653  34.863  52.539  0.00  0.00     0.121 A 
ATOM      6  O   UNL d   1      51.319  34.913  53.876  0.00  0.00    -0.237 OA
ATOM      7  C   UNL d   1      50.020  34.097  51.380  0.00  0.00     0.020 A 
ATOM      8  C   UNL d   1      48.899  34.987  52.208  0.00  0.00     0.026 A 
ATOM      9  C   UNL d   1      49.269  34.227  51.062  0.00  0.00     0.002 A 
ATOM     10  C   UNL d   1      48.712  34.669  51.474  0.00  0.00     0.002 A 
ENDROOT
BRANCH   2  11
ATOM     11  C   UNL d   1      51.585  33.980  52.329  0.00  0.00     0.112 C 
BRANCH  11  12
ATOM     12  C   UNL d   1      51.984  33.499  52.856  0.00  0.00     0.142 C 
BRANCH  12  13
ATOM     13  O   UNL d   1      52.405  32.846  52.579  0.00  0.00    -0.304 OA
BRANCH  13  14
ATOM     14  C   UNL d   1      53.013  32.522  53.036  0.00  0.00     0.100 A 
ATOM     15  C   UNL d   1      53.034  31.712  53.155  0.00  0.00     0.023 A 
ATOM     16  C   UNL d   1      52.460  31.226  52.825  0.00  0.00     0.002 C 
ATOM     17  C   UNL d   1      53.641  31.380  53.613  0.00  0.00     0.002 A 
ATOM     18  C   UNL d   1      54.217  31.875  53.943  0.00  0.00     0.000 A 
ATOM     19  C   UNL d   1      54.186  32.689  53.816  0.00  0.00     0.002 A 
ATOM     20  C   UNL d   1      53.585  33.009  53.364  0.00  0.00     0.025 A 
ENDBRANCH  13  14
ENDBRANCH  12  13
ENDBRANCH  11  12
ENDBRANCH   2  11
TORSDOF 4
ENDMDL
