MODEL 1
REMARK VINA RESULT:      37.7      0.000      0.000
REMARK  5 active torsions:
REMARK  status: ('A' for Active; 'I' for Inactive)
REMARK    1  A    between atoms: S_2  and  C_1 
REMARK    2  A    between atoms: N_11  and  S_2 
REMARK    3  A    between atoms: C_14  and  N_11 
REMARK    4  A    between atoms: C_16  and  C_14 
REMARK    5  A    between atoms: C_15  and  C_16 
ROOT
ATOM      1  S   UNL d   1     -51.209  25.337  33.747  0.00  0.00     0.287 S 
ATOM      2  O   UNL d   1     -50.709  24.814  34.205  0.00  0.00    -0.198 OA
ATOM      3  O   UNL d   1     -51.704  25.833  33.306  0.00  0.00    -0.198 OA
ENDROOT
BRANCH   1   4
ATOM      4  C   UNL d   1     -50.573  25.866  33.656  0.00  0.00     0.125 A 
ATOM      5  C   UNL d   1     -50.717  26.681  33.520  0.00  0.00     0.121 A 
ATOM      6  N   UNL d   1     -51.425  27.121  33.450  0.00  0.00    -0.190 NA
ATOM      7  C   UNL d   1     -50.075  27.192  33.432  0.00  0.00     0.110 A 
ATOM      8  S   UNL d   1     -51.194  27.901  33.318  0.00  0.00     0.117 SA
ATOM      9  N   UNL d   1     -50.366  27.947  33.307  0.00  0.00    -0.190 NA
ATOM     10  C   UNL d   1     -49.288  26.890  33.478  0.00  0.00     0.021 A 
ATOM     11  C   UNL d   1     -49.165  26.086  33.612  0.00  0.00     0.002 A 
ATOM     12  C   UNL d   1     -49.797  25.568  33.702  0.00  0.00     0.015 A 
ENDBRANCH   1   4
BRANCH   1  13
ATOM     13  N   UNL d   1     -51.845  24.797  33.845  0.00  0.00    -0.157 NA
BRANCH  13  14
ATOM     14  C   UNL d   1     -51.929  24.133  33.342  0.00  0.00     0.112 C 
BRANCH  14  15
ATOM     15  C   UNL d   1     -52.224  23.417  33.632  0.00  0.00     0.021 C 
BRANCH  15  16
ATOM     16  C   UNL d   1     -53.037  23.378  33.857  0.00  0.00     0.002 A 
ATOM     17  C   UNL d   1     -53.234  23.226  34.649  0.00  0.00     0.000 A 
ATOM     18  C   UNL d   1     -54.021  23.189  34.861  0.00  0.00     0.000 A 
ATOM     19  C   UNL d   1     -54.602  23.301  34.297  0.00  0.00     0.000 A 
ATOM     20  C   UNL d   1     -54.412  23.449  33.527  0.00  0.00     0.000 A 
ATOM     21  C   UNL d   1     -53.623  23.488  33.306  0.00  0.00     0.000 A 
ENDBRANCH  15  16
ENDBRANCH  14  15
ENDBRANCH  13  14
ENDBRANCH   1  13
TORSDOF 5
ENDMDL
MODEL 2
REMARK VINA RESULT:      39.0      1.621      4.681
REMARK  5 active torsions:
REMARK  status: ('A' for Active; 'I' for Inactive)
REMARK    1  A    between atoms: S_2  and  C_1 
REMARK    2  A    between atoms: N_11  and  S_2 
REMARK    3  A    between atoms: C_14  and  N_11 
REMARK    4  A    between atoms: C_16  and  C_14 
REMARK    5  A    between atoms: C_15  and  C_16 
ROOT
ATOM      1  S   UNL d   1     -51.012  25.950  33.318  0.00  0.00     0.287 S 
ATOM      2  O   UNL d   1     -50.431  25.320  33.308  0.00  0.00    -0.198 OA
ATOM      3  O   UNL d   1     -51.561  26.569  33.327  0.00  0.00    -0.198 OA
ENDROOT
BRANCH   1   4
ATOM      4  C   UNL d   1     -51.624  25.387  33.324  0.00  0.00     0.125 A 
ATOM      5  C   UNL d   1     -51.444  24.567  33.318  0.00  0.00     0.121 A 
ATOM      6  N   UNL d   1     -50.717  24.153  33.306  0.00  0.00    -0.190 NA
ATOM      7  C   UNL d   1     -52.062  24.021  33.325  0.00  0.00     0.110 A 
ATOM      8  S   UNL d   1     -50.913  23.353  33.306  0.00  0.00     0.117 SA
ATOM      9  N   UNL d   1     -51.738  23.270  33.317  0.00  0.00    -0.190 NA
ATOM     10  C   UNL d   1     -52.862  24.292  33.338  0.00  0.00     0.021 A 
ATOM     11  C   UNL d   1     -53.021  25.100  33.344  0.00  0.00     0.002 A 
ATOM     12  C   UNL d   1     -52.413  25.653  33.337  0.00  0.00     0.015 A 
ENDBRANCH   1   4
BRANCH   1  13
ATOM     13  N   UNL d   1     -50.386  26.511  33.311  0.00  0.00    -0.157 NA
BRANCH  13  14
ATOM     14  C   UNL d   1     -50.089  26.834  34.023  0.00  0.00     0.112 C 
BRANCH  14  15
ATOM     15  C   UNL d   1     -49.304  27.088  34.077  0.00  0.00     0.021 C 
BRANCH  15  16
ATOM     16  C   UNL d   1     -49.089  27.603  34.711  0.00  0.00     0.002 A 
ATOM     17  C   UNL d   1     -48.491  28.167  34.594  0.00  0.00     0.000 A 
ATOM     18  C   UNL d   1     -48.288  28.662  35.209  0.00  0.00     0.000 A 
ATOM     19  C   UNL d   1     -48.670  28.599  35.929  0.00  0.00     0.000 A 
ATOM     20  C   UNL d   1     -49.252  28.051  36.044  0.00  0.00     0.000 A 
ATOM     21  C   UNL d   1     -49.462  27.550  35.430  0.00  0.00     0.000 A 
ENDBRANCH  15  16
ENDBRANCH  14  15
ENDBRANCH  13  14
ENDBRANCH   1  13
TORSDOF 5
ENDMDL
