MODEL 1
REMARK VINA RESULT:      85.6      0.000      0.000
REMARK  5 active torsions:
REMARK  status: ('A' for Active; 'I' for Inactive)
REMARK    1  A    between atoms: N_6  and  C_1 
REMARK    2  A    between atoms: C_10  and  C_2 
REMARK       I    between atoms: C_9  and  N_6 
REMARK    3  A    between atoms: C_14  and  C_9 
REMARK    4  A    between atoms: C_13  and  C_15 
REMARK    5  A    between atoms: C_19  and  C_13 
ROOT
ATOM      1  N   UNL d   1     -49.554  27.300  33.912  0.00  0.00    -0.201 NA
ATOM      2  C   UNL d   1     -49.450  27.635  34.659  0.00  0.00     0.280 C 
ATOM      3  O   UNL d   1     -49.920  27.398  35.290  0.00  0.00    -0.265 OA
ENDROOT
BRANCH   1   4
ATOM      4  C   UNL d   1     -50.135  26.723  33.794  0.00  0.00     0.118 A 
ATOM      5  C   UNL d   1     -50.007  25.912  33.703  0.00  0.00     0.083 A 
ATOM      6  C   UNL d   1     -50.739  25.556  33.600  0.00  0.00     0.008 A 
ATOM      7  C   UNL d   1     -50.946  24.763  33.485  0.00  0.00    -0.004 A 
ATOM      8  C   UNL d   1     -51.316  26.131  33.625  0.00  0.00     0.028 A 
ATOM      9  C   UNL d   1     -51.742  24.559  33.395  0.00  0.00     0.099 A 
ATOM     10  C   UNL d   1     -51.157  23.975  33.370  0.00  0.00     0.029 C 
ATOM     11  C   UNL d   1     -52.534  24.350  33.306  0.00  0.00     0.029 C 
ATOM     12  N   UNL d   1     -52.328  25.143  33.421  0.00  0.00    -0.294 NA
ATOM     13  C   UNL d   1     -52.116  25.930  33.536  0.00  0.00     0.104 A 
ATOM     14  C   UNL d   1     -52.941  25.929  33.469  0.00  0.00     0.029 C 
ATOM     15  C   UNL d   1     -52.117  26.748  33.637  0.00  0.00     0.029 C 
ATOM     16  S   UNL d   1     -50.947  26.862  33.746  0.00  0.00    -0.070 SA
BRANCH   5  17
ATOM     17  C   UNL d   1     -49.276  25.544  33.717  0.00  0.00     0.299 C 
ATOM     18  O   UNL d   1     -49.187  24.842  34.146  0.00  0.00    -0.264 OA
ATOM     19  N   UNL d   1     -48.634  25.867  33.310  0.00  0.00    -0.102 N 
ENDBRANCH   5  17
ENDBRANCH   1   4
BRANCH   2  20
ATOM     20  C   UNL d   1     -48.878  28.203  34.776  0.00  0.00     0.058 A 
ATOM     21  C   UNL d   1     -48.190  28.199  34.319  0.00  0.00     0.005 A 
ATOM     22  C   UNL d   1     -47.609  28.776  34.438  0.00  0.00     0.003 A 
ATOM     23  C   UNL d   1     -47.716  29.358  35.013  0.00  0.00     0.039 A 
ATOM     24  C   UNL d   1     -48.396  29.358  35.462  0.00  0.00     0.003 A 
ATOM     25  C   UNL d   1     -48.977  28.780  35.343  0.00  0.00     0.005 A 
BRANCH  23  26
ATOM     26  C   UNL d   1     -47.135  29.931  35.128  0.00  0.00     0.196 C 
ATOM     27  O   UNL d   1     -46.374  29.708  35.328  0.00  0.00    -0.287 OA
BRANCH  26  28
ATOM     28  C   UNL d   1     -47.323  30.726  35.042  0.00  0.00     0.039 A 
ATOM     29  C   UNL d   1     -47.697  30.996  34.367  0.00  0.00     0.003 A 
ATOM     30  C   UNL d   1     -47.886  31.791  34.280  0.00  0.00     0.000 A 
ATOM     31  C   UNL d   1     -47.693  32.324  34.883  0.00  0.00     0.000 A 
ATOM     32  C   UNL d   1     -47.315  32.056  35.567  0.00  0.00     0.000 A 
ATOM     33  C   UNL d   1     -47.131  31.258  35.645  0.00  0.00     0.003 A 
ENDBRANCH  26  28
ENDBRANCH  23  26
ENDBRANCH   2  20
TORSDOF 5
ENDMDL
