MODEL 1
REMARK VINA RESULT:       1.5      0.000      0.000
REMARK  8 active torsions:
REMARK  status: ('A' for Active; 'I' for Inactive)
REMARK    1  A    between atoms: C_20  and  N_7 
REMARK    2  A    between atoms: C_10  and  C_8 
REMARK       I    between atoms: N_18  and  C_10 
REMARK    3  A    between atoms: N_14  and  C_22 
REMARK    4  A    between atoms: C_21  and  N_18 
REMARK    5  A    between atoms: C_23  and  C_20 
REMARK    6  A    between atoms: C_22  and  C_21 
REMARK    7  A    between atoms: C_30  and  C_23 
REMARK    8  A    between atoms: O_27  and  C_30 
ROOT
ATOM      1  C   UNL d   1      56.961  -0.533  31.969  0.00  0.00     0.154 A 
ATOM      2  C   UNL d   1      56.420  -1.147  31.868  0.00  0.00     0.093 A 
ATOM      3  N   UNL d   1      56.995  -0.131  32.669  0.00  0.00    -0.210 NA
ATOM      4  N   UNL d   1      55.957  -0.951  33.157  0.00  0.00    -0.258 N 
ATOM      5  C   UNL d   1      56.498  -0.337  33.258  0.00  0.00     0.152 A 
ATOM      6  C   UNL d   1      55.915  -1.361  32.459  0.00  0.00     0.269 A 
ATOM      7  N   UNL d   1      57.456  -0.326  31.384  0.00  0.00    -0.285 N 
ATOM      8  C   UNL d   1      57.420  -0.727  30.692  0.00  0.00     0.137 A 
ATOM      9  C   UNL d   1      56.887  -1.331  30.592  0.00  0.00     0.031 A 
ATOM     10  C   UNL d   1      56.532   0.059  33.946  0.00  0.00     0.035 A 
ATOM     11  C   UNL d   1      55.450  -1.169  33.743  0.00  0.00     0.084 A 
ATOM     12  O   UNL d   1      55.373  -1.975  32.358  0.00  0.00    -0.266 OA
ATOM     13  C   UNL d   1      55.498  -0.758  34.433  0.00  0.00     0.019 A 
ATOM     14  C   UNL d   1      56.039  -0.144  34.535  0.00  0.00     0.005 A 
ATOM     15  C   UNL d   1      57.085   0.682  34.041  0.00  0.00     0.003 C 
ENDROOT
BRANCH   8  16
ATOM     16  C   UNL d   1      57.929  -0.513  30.093  0.00  0.00     0.344 C 
ATOM     17  O   UNL d   1      58.131   0.275  29.986  0.00  0.00    -0.249 OA
ATOM     18  N   UNL d   1      58.238  -1.108  29.594  0.00  0.00    -0.359 NA
BRANCH  18  19
ATOM     19  C   UNL d   1      58.550  -1.695  29.093  0.00  0.00     0.184 C 
BRANCH  19  20
ATOM     20  C   UNL d   1      59.377  -1.816  29.052  0.00  0.00     0.116 C 
BRANCH  20  21
ATOM     21  N   UNL d   1      59.676  -2.592  28.963  0.00  0.00    -0.297 N 
ATOM     22  C   UNL d   1      59.576  -3.420  28.928  0.00  0.00     0.107 A 
ATOM     23  C   UNL d   1      60.239  -3.918  28.803  0.00  0.00     0.142 A 
ATOM     24  O   UNL d   1      61.007  -3.581  28.714  0.00  0.00    -0.300 OA
ATOM     25  C   UNL d   1      61.108  -2.745  28.749  0.00  0.00     0.142 A 
ATOM     26  C   UNL d   1      60.442  -2.251  28.874  0.00  0.00     0.107 A 
ENDBRANCH  20  21
ENDBRANCH  19  20
ENDBRANCH  18  19
ENDBRANCH   8  16
BRANCH   7  27
ATOM     27  C   UNL d   1      58.000   0.295  31.495  0.00  0.00     0.084 C 
BRANCH  27  28
ATOM     28  C   UNL d   1      58.818   0.146  31.467  0.00  0.00     0.045 C 
BRANCH  28  29
ATOM     29  C   UNL d   1      59.343   0.656  31.865  0.00  0.00     0.118 C 
BRANCH  29  30
ATOM     30  O   UNL d   1      59.978   0.335  32.295  0.00  0.00    -0.326 OA
ATOM     31  C   UNL d   1      60.742   0.674  32.227  0.00  0.00     0.181 C 
ENDBRANCH  29  30
ENDBRANCH  28  29
ENDBRANCH  27  28
ENDBRANCH   7  27
TORSDOF 8
ENDMDL
