MODEL 1
REMARK VINA RESULT:      -2.5      0.000      0.000
REMARK  6 active torsions:
REMARK  status: ('A' for Active; 'I' for Inactive)
REMARK    1  A    between atoms: C_15  and  N_1 
REMARK    2  A    between atoms: S_12  and  C_3 
REMARK    3  A    between atoms: C_4  and  N_11 
REMARK    4  A    between atoms: C_14  and  C_8 
REMARK       I    between atoms: N_11  and  C_13 
REMARK    5  A    between atoms: C_17  and  S_12 
REMARK    6  A    between atoms: C_13  and  C_17 
ROOT
ATOM      1  N   UNL d   1      32.869  17.315 -22.684  0.00  0.00    -0.018 NA
ATOM      2  C   UNL d   1      32.340  16.909 -23.160  0.00  0.00     0.302 C 
ATOM      3  O   UNL d   1      32.241  16.089 -23.064  0.00  0.00    -0.264 OA
ENDROOT
BRANCH   2   4
ATOM      4  C   UNL d   1      31.907  17.312 -23.734  0.00  0.00     0.101 C 
BRANCH   4   5
ATOM      5  S   UNL d   1      31.165  17.024 -23.977  0.00  0.00    -0.041 SA
BRANCH   5   6
ATOM      6  C   UNL d   1      30.644  17.516 -24.382  0.00  0.00     0.219 A 
ATOM      7  N   UNL d   1      29.835  17.335 -24.387  0.00  0.00    -0.186 N 
ATOM      8  N   UNL d   1      29.448  17.916 -24.831  0.00  0.00    -0.038 NA
ATOM      9  N   UNL d   1      30.012  18.449 -25.097  0.00  0.00    -0.022 NA
ATOM     10  N   UNL d   1      30.748  18.200 -24.819  0.00  0.00    -0.101 NA
BRANCH   7  11
ATOM     11  C   UNL d   1      29.444  16.708 -24.032  0.00  0.00     0.087 A 
ATOM     12  C   UNL d   1      29.389  16.676 -23.209  0.00  0.00     0.019 A 
ATOM     13  C   UNL d   1      28.996  16.047 -22.849  0.00  0.00     0.002 A 
ATOM     14  C   UNL d   1      28.658  15.453 -23.295  0.00  0.00     0.000 A 
ATOM     15  C   UNL d   1      28.710  15.480 -24.129  0.00  0.00     0.002 A 
ATOM     16  C   UNL d   1      29.106  16.113 -24.497  0.00  0.00     0.019 A 
ENDBRANCH   7  11
ENDBRANCH   5   6
ENDBRANCH   4   5
ENDBRANCH   2   4
BRANCH   1  17
ATOM     17  C   UNL d   1      32.968  18.136 -22.781  0.00  0.00     0.760 A 
ATOM     18  N   UNL d   1      32.875  18.712 -22.211  0.00  0.00    -0.051 NA
ATOM     19  C   UNL d   1      33.029  19.434 -22.558  0.00  0.00     0.147 A 
ATOM     20  S   UNL d   1      33.215  19.303 -23.335  0.00  0.00     0.052 SA
ATOM     21  N   UNL d   1      33.175  18.494 -23.464  0.00  0.00    -0.019 NA
BRANCH  19  22
ATOM     22  C   UNL d   1      32.991  20.157 -22.152  0.00  0.00     0.026 A 
ATOM     23  C   UNL d   1      32.963  20.157 -21.327  0.00  0.00     0.003 A 
ATOM     24  C   UNL d   1      32.925  20.875 -20.927  0.00  0.00     0.011 A 
ATOM     25  C   UNL d   1      32.916  21.586 -21.350  0.00  0.00     0.058 A 
ATOM     26  C   UNL d   1      32.944  21.581 -22.161  0.00  0.00     0.011 A 
ATOM     27 CL   UNL d   1      32.878  22.307 -20.964  0.00  0.00    -0.082 Cl
ATOM     28  C   UNL d   1      32.982  20.863 -22.569  0.00  0.00     0.003 A 
ENDBRANCH  19  22
ENDBRANCH   1  17
TORSDOF 6
ENDMDL
MODEL 2
REMARK VINA RESULT:      -0.9      2.739      5.718
REMARK  6 active torsions:
REMARK  status: ('A' for Active; 'I' for Inactive)
REMARK    1  A    between atoms: C_15  and  N_1 
REMARK    2  A    between atoms: S_12  and  C_3 
REMARK    3  A    between atoms: C_4  and  N_11 
REMARK    4  A    between atoms: C_14  and  C_8 
REMARK       I    between atoms: N_11  and  C_13 
REMARK    5  A    between atoms: C_17  and  S_12 
REMARK    6  A    between atoms: C_13  and  C_17 
ROOT
ATOM      1  N   UNL d   1      32.993  19.179 -21.223  0.00  0.00    -0.018 NA
ATOM      2  C   UNL d   1      33.152  19.958 -21.026  0.00  0.00     0.302 C 
ATOM      3  O   UNL d   1      33.225  20.177 -20.227  0.00  0.00    -0.264 OA
ENDROOT
BRANCH   2   4
ATOM      4  C   UNL d   1      33.241  20.524 -21.618  0.00  0.00     0.101 C 
BRANCH   4   5
ATOM      5  S   UNL d   1      33.030  21.315 -21.474  0.00  0.00    -0.041 SA
BRANCH   5   6
ATOM      6  C   UNL d   1      33.053  21.867 -22.085  0.00  0.00     0.219 A 
ATOM      7  N   UNL d   1      32.860  22.657 -21.927  0.00  0.00    -0.186 N 
ATOM      8  N   UNL d   1      32.931  23.081 -22.635  0.00  0.00    -0.038 NA
ATOM      9  N   UNL d   1      33.165  22.558 -23.221  0.00  0.00    -0.022 NA
ATOM     10  N   UNL d   1      33.240  21.810 -22.880  0.00  0.00    -0.101 NA
BRANCH   7  11
ATOM     11  C   UNL d   1      32.635  23.003 -21.219  0.00  0.00     0.087 A 
ATOM     12  C   UNL d   1      33.213  23.247 -20.683  0.00  0.00     0.019 A 
ATOM     13  C   UNL d   1      32.991  23.595 -19.970  0.00  0.00     0.002 A 
ATOM     14  C   UNL d   1      32.204  23.702 -19.783  0.00  0.00     0.000 A 
ATOM     15  C   UNL d   1      31.613  23.457 -20.322  0.00  0.00     0.002 A 
ATOM     16  C   UNL d   1      31.834  23.105 -21.044  0.00  0.00     0.019 A 
ENDBRANCH   7  11
ENDBRANCH   5   6
ENDBRANCH   4   5
ENDBRANCH   2   4
BRANCH   1  17
ATOM     17  C   UNL d   1      32.921  18.960 -22.023  0.00  0.00     0.760 A 
ATOM     18  N   UNL d   1      32.601  18.269 -22.316  0.00  0.00    -0.051 NA
ATOM     19  C   UNL d   1      32.648  18.297 -23.130  0.00  0.00     0.147 A 
ATOM     20  S   UNL d   1      32.993  19.000 -23.336  0.00  0.00     0.052 SA
ATOM     21  N   UNL d   1      33.159  19.404 -22.642  0.00  0.00    -0.019 NA
BRANCH  19  22
ATOM     22  C   UNL d   1      32.377  17.690 -23.627  0.00  0.00     0.026 A 
ATOM     23  C   UNL d   1      31.804  17.857 -24.197  0.00  0.00     0.003 A 
ATOM     24  C   UNL d   1      31.537  17.253 -24.687  0.00  0.00     0.011 A 
ATOM     25  C   UNL d   1      31.843  16.488 -24.607  0.00  0.00     0.058 A 
ATOM     26  C   UNL d   1      32.406  16.329 -24.046  0.00  0.00     0.011 A 
ATOM     27 CL   UNL d   1      31.586  15.878 -25.089  0.00  0.00    -0.082 Cl
ATOM     28  C   UNL d   1      32.678  16.931 -23.549  0.00  0.00     0.003 A 
ENDBRANCH  19  22
ENDBRANCH   1  17
TORSDOF 6
ENDMDL
