MODEL 1
REMARK VINA RESULT:      34.4      0.000      0.000
REMARK  8 active torsions:
REMARK  status: ('A' for Active; 'I' for Inactive)
REMARK    1  A    between atoms: C_2  and  C_8 
REMARK    2  A    between atoms: O_17  and  C_2 
REMARK    3  A    between atoms: C_15  and  C_3 
REMARK    4  A    between atoms: C_20  and  C_4 
REMARK    5  A    between atoms: C_5  and  C_16 
REMARK       I    between atoms: N_9  and  C_5 
REMARK    6  A    between atoms: C_14  and  N_9 
REMARK    7  A    between atoms: C_16  and  C_15 
REMARK    8  A    between atoms: C_21  and  O_17 
ROOT
ATOM      1  C   UNL d   1     -55.060 -99.811 -44.947  0.00  0.00     0.279 C 
ATOM      2  N   UNL d   1     -54.807-100.585 -44.880  0.00  0.00    -0.208 NA
ATOM      3  O   UNL d   1     -55.076 -99.440 -45.690  0.00  0.00    -0.265 OA
ENDROOT
BRANCH   2   4
ATOM      4  C   UNL d   1     -54.791-100.953 -44.140  0.00  0.00     0.085 A 
ATOM      5  C   UNL d   1     -54.738-101.773 -44.094  0.00  0.00     0.019 A 
ATOM      6  C   UNL d   1     -54.723-102.139 -43.358  0.00  0.00     0.007 A 
ATOM      7  C   UNL d   1     -54.761-101.683 -42.671  0.00  0.00     0.064 A 
ATOM      8  C   UNL d   1     -54.815-100.864 -42.716  0.00  0.00     0.007 A 
ATOM      9  C   UNL d   1     -54.830-100.498 -43.465  0.00  0.00     0.019 A 
BRANCH   7  10
ATOM     10  C   UNL d   1     -54.746-102.054 -41.928  0.00  0.00     0.300 C 
ATOM     11  O   UNL d   1     -54.762-102.876 -41.881  0.00  0.00    -0.259 OA
BRANCH  10  12
ATOM     12  O   UNL d   1     -54.714-101.603 -41.246  0.00  0.00    -0.271 OA
BRANCH  12  13
ATOM     13  C   UNL d   1     -54.764-101.967 -40.507  0.00  0.00     0.126 C 
ATOM     14  C   UNL d   1     -55.479-102.298 -40.257  0.00  0.00     0.029 C 
ENDBRANCH  12  13
ENDBRANCH  10  12
ENDBRANCH   7  10
ENDBRANCH   2   4
BRANCH   1  15
ATOM     15  C   UNL d   1     -55.303 -99.396 -44.275  0.00  0.00     0.065 C 
BRANCH  15  16
ATOM     16  C   UNL d   1     -55.827 -98.762 -44.346  0.00  0.00     0.030 C 
BRANCH  16  17
ATOM     17  C   UNL d   1     -56.593 -98.826 -44.055  0.00  0.00     0.100 A 
ATOM     18  O   UNL d   1     -57.288 -98.904 -44.505  0.00  0.00    -0.307 OA
ATOM     19  C   UNL d   1     -57.923 -98.949 -43.992  0.00  0.00     0.100 A 
ATOM     20  C   UNL d   1     -57.635 -98.900 -43.219  0.00  0.00     0.027 A 
ATOM     21  C   UNL d   1     -56.814 -98.824 -43.263  0.00  0.00     0.027 A 
BRANCH  19  22
ATOM     22  C   UNL d   1     -58.710 -99.030 -44.212  0.00  0.00     0.025 C 
ATOM     23  C   UNL d   1     -58.938 -98.876 -44.993  0.00  0.00     0.002 C 
ENDBRANCH  19  22
ENDBRANCH  16  17
ENDBRANCH  15  16
ENDBRANCH   1  15
TORSDOF 8
ENDMDL
