MODEL 1
REMARK VINA RESULT:      -8.5      0.000      0.000
REMARK  5 active torsions:
REMARK  status: ('A' for Active; 'I' for Inactive)
REMARK    1  A    between atoms: N_2  and  C_1 
REMARK    2  A    between atoms: C_10  and  C_5 
REMARK       I    between atoms: N_6  and  C_7 
REMARK    3  A    between atoms: C_8  and  N_6 
REMARK    4  A    between atoms: C_7  and  C_11 
REMARK    5  A    between atoms: C_11  and  C_10 
ROOT
ATOM      1  N   UNL d   1      52.299  33.436  53.187  0.00  0.00    -0.208 NA
ATOM      2  C   UNL d   1      51.873  34.133  53.066  0.00  0.00     0.279 C 
ATOM      3  O   UNL d   1      52.072  34.811  53.467  0.00  0.00    -0.265 OA
ENDROOT
BRANCH   2   4
ATOM      4  C   UNL d   1      51.243  34.138  52.534  0.00  0.00     0.063 C 
BRANCH   4   5
ATOM      5  C   UNL d   1      50.493  34.342  52.783  0.00  0.00     0.011 C 
BRANCH   5   6
ATOM      6  C   UNL d   1      49.877  34.462  52.225  0.00  0.00     0.031 A 
ATOM      7  S   UNL d   1      49.152  34.845  52.286  0.00  0.00    -0.064 SA
ATOM      8  C   UNL d   1      48.790  34.780  51.558  0.00  0.00     0.156 A 
ATOM      9  C   UNL d   1      49.265  34.371  51.050  0.00  0.00     0.031 A 
ATOM     10  C   UNL d   1      49.949  34.171  51.470  0.00  0.00     0.009 A 
BRANCH   8  11
ATOM     11  N   UNL d   1      48.048  35.093  51.386  0.00  0.00    -0.107 N 
ATOM     12  O   UNL d   1      47.768  35.768  51.768  0.00  0.00    -0.531 OA
ATOM     13  O   UNL d   1      47.584  34.722  50.822  0.00  0.00    -0.531 OA
ENDBRANCH   8  11
ENDBRANCH   5   6
ENDBRANCH   4   5
ENDBRANCH   2   4
BRANCH   1  14
ATOM     14  C   UNL d   1      52.930  33.432  53.719  0.00  0.00     0.085 A 
ATOM     15  C   UNL d   1      53.412  32.762  53.778  0.00  0.00     0.018 A 
ATOM     16  C   UNL d   1      54.029  32.758  54.298  0.00  0.00     0.002 A 
ATOM     17  C   UNL d   1      53.252  32.098  53.296  0.00  0.00     0.002 C 
ATOM     18  C   UNL d   1      54.177  33.423  54.771  0.00  0.00     0.000 A 
ATOM     19  C   UNL d   1      53.691  34.099  54.711  0.00  0.00     0.002 A 
ATOM     20  C   UNL d   1      54.812  33.401  55.297  0.00  0.00     0.000 C 
ATOM     21  C   UNL d   1      53.079  34.084  54.185  0.00  0.00     0.019 A 
ENDBRANCH   1  14
TORSDOF 5
ENDMDL
MODEL 2
REMARK VINA RESULT:      -8.2      3.435      5.098
REMARK  5 active torsions:
REMARK  status: ('A' for Active; 'I' for Inactive)
REMARK    1  A    between atoms: N_2  and  C_1 
REMARK    2  A    between atoms: C_10  and  C_5 
REMARK       I    between atoms: N_6  and  C_7 
REMARK    3  A    between atoms: C_8  and  N_6 
REMARK    4  A    between atoms: C_7  and  C_11 
REMARK    5  A    between atoms: C_11  and  C_10 
ROOT
ATOM      1  N   UNL d   1      53.641  32.880  54.116  0.00  0.00    -0.208 NA
ATOM      2  C   UNL d   1      53.396  32.481  53.436  0.00  0.00     0.279 C 
ATOM      3  O   UNL d   1      52.983  32.873  52.857  0.00  0.00    -0.265 OA
ENDROOT
BRANCH   2   4
ATOM      4  C   UNL d   1      53.574  31.680  53.348  0.00  0.00     0.063 C 
BRANCH   4   5
ATOM      5  C   UNL d   1      52.996  31.150  53.123  0.00  0.00     0.011 C 
BRANCH   5   6
ATOM      6  C   UNL d   1      53.005  30.362  53.411  0.00  0.00     0.031 A 
ATOM      7  S   UNL d   1      53.283  30.041  54.116  0.00  0.00    -0.064 SA
ATOM      8  C   UNL d   1      53.139  29.240  54.081  0.00  0.00     0.156 A 
ATOM      9  C   UNL d   1      52.783  29.052  53.382  0.00  0.00     0.031 A 
ATOM     10  C   UNL d   1      52.699  29.760  52.960  0.00  0.00     0.009 A 
BRANCH   8  11
ATOM     11  N   UNL d   1      53.336  28.713  54.683  0.00  0.00    -0.107 N 
ATOM     12  O   UNL d   1      53.112  28.852  55.465  0.00  0.00    -0.531 OA
ATOM     13  O   UNL d   1      53.762  28.039  54.496  0.00  0.00    -0.531 OA
ENDBRANCH   8  11
ENDBRANCH   5   6
ENDBRANCH   4   5
ENDBRANCH   2   4
BRANCH   1  14
ATOM     14  C   UNL d   1      53.463  33.681  54.205  0.00  0.00     0.085 A 
ATOM     15  C   UNL d   1      53.840  34.123  54.793  0.00  0.00     0.018 A 
ATOM     16  C   UNL d   1      53.666  34.906  54.879  0.00  0.00     0.002 A 
ATOM     17  C   UNL d   1      54.399  33.750  55.292  0.00  0.00     0.002 C 
ATOM     18  C   UNL d   1      53.111  35.265  54.379  0.00  0.00     0.000 A 
ATOM     19  C   UNL d   1      52.730  34.819  53.785  0.00  0.00     0.002 A 
ATOM     20  C   UNL d   1      52.945  36.067  54.481  0.00  0.00     0.000 C 
ATOM     21  C   UNL d   1      52.918  34.037  53.714  0.00  0.00     0.019 A 
ENDBRANCH   1  14
TORSDOF 5
ENDMDL
MODEL 3
REMARK VINA RESULT:      -8.1      1.924      5.345
REMARK  5 active torsions:
REMARK  status: ('A' for Active; 'I' for Inactive)
REMARK    1  A    between atoms: N_2  and  C_1 
REMARK    2  A    between atoms: C_10  and  C_5 
REMARK       I    between atoms: N_6  and  C_7 
REMARK    3  A    between atoms: C_8  and  N_6 
REMARK    4  A    between atoms: C_7  and  C_11 
REMARK    5  A    between atoms: C_11  and  C_10 
ROOT
ATOM      1  N   UNL d   1      50.564  34.312  52.938  0.00  0.00    -0.208 NA
ATOM      2  C   UNL d   1      51.323  34.170  52.647  0.00  0.00     0.279 C 
ATOM      3  O   UNL d   1      51.467  34.190  51.848  0.00  0.00    -0.265 OA
ENDROOT
BRANCH   2   4
ATOM      4  C   UNL d   1      51.936  34.007  53.174  0.00  0.00     0.063 C 
BRANCH   4   5
ATOM      5  C   UNL d   1      52.619  33.642  52.915  0.00  0.00     0.011 C 
BRANCH   5   6
ATOM      6  C   UNL d   1      53.203  33.391  53.464  0.00  0.00     0.031 A 
ATOM      7  S   UNL d   1      53.502  33.746  54.143  0.00  0.00    -0.064 SA
ATOM      8  C   UNL d   1      54.061  33.236  54.446  0.00  0.00     0.156 A 
ATOM      9  C   UNL d   1      54.119  32.580  53.980  0.00  0.00     0.031 A 
ATOM     10  C   UNL d   1      53.578  32.678  53.361  0.00  0.00     0.009 A 
BRANCH   8  11
ATOM     11  N   UNL d   1      54.495  33.386  55.130  0.00  0.00    -0.107 N 
ATOM     12  O   UNL d   1      55.000  34.036  55.183  0.00  0.00    -0.531 OA
ATOM     13  O   UNL d   1      54.419  32.876  55.767  0.00  0.00    -0.531 OA
ENDBRANCH   8  11
ENDBRANCH   5   6
ENDBRANCH   4   5
ENDBRANCH   2   4
BRANCH   1  14
ATOM     14  C   UNL d   1      49.950  34.476  52.411  0.00  0.00     0.085 A 
ATOM     15  C   UNL d   1      49.310  34.939  52.657  0.00  0.00     0.018 A 
ATOM     16  C   UNL d   1      48.710  35.099  52.142  0.00  0.00     0.002 A 
ATOM     17  C   UNL d   1      49.294  35.235  53.439  0.00  0.00     0.002 C 
ATOM     18  C   UNL d   1      48.736  34.799  51.369  0.00  0.00     0.000 A 
ATOM     19  C   UNL d   1      49.382  34.332  51.121  0.00  0.00     0.002 A 
ATOM     20  C   UNL d   1      48.115  34.972  50.855  0.00  0.00     0.000 C 
ATOM     21  C   UNL d   1      49.973  34.183  51.651  0.00  0.00     0.019 A 
ENDBRANCH   1  14
TORSDOF 5
ENDMDL
MODEL 4
REMARK VINA RESULT:      -8.0      1.863      5.521
REMARK  5 active torsions:
REMARK  status: ('A' for Active; 'I' for Inactive)
REMARK    1  A    between atoms: N_2  and  C_1 
REMARK    2  A    between atoms: C_10  and  C_5 
REMARK       I    between atoms: N_6  and  C_7 
REMARK    3  A    between atoms: C_8  and  N_6 
REMARK    4  A    between atoms: C_7  and  C_11 
REMARK    5  A    between atoms: C_11  and  C_10 
ROOT
ATOM      1  N   UNL d   1      49.105  35.243  53.011  0.00  0.00    -0.208 NA
ATOM      2  C   UNL d   1      49.622  34.745  52.603  0.00  0.00     0.279 C 
ATOM      3  O   UNL d   1      49.446  34.499  51.850  0.00  0.00    -0.265 OA
ENDROOT
BRANCH   2   4
ATOM      4  C   UNL d   1      50.320  34.497  52.967  0.00  0.00     0.063 C 
BRANCH   4   5
ATOM      5  C   UNL d   1      50.969  34.289  52.518  0.00  0.00     0.011 C 
BRANCH   5   6
ATOM      6  C   UNL d   1      51.689  34.066  52.888  0.00  0.00     0.031 A 
ATOM      7  S   UNL d   1      51.955  33.343  53.175  0.00  0.00    -0.064 SA
ATOM      8  C   UNL d   1      52.702  33.470  53.474  0.00  0.00     0.156 A 
ATOM      9  C   UNL d   1      52.908  34.244  53.384  0.00  0.00     0.031 A 
ATOM     10  C   UNL d   1      52.270  34.620  53.014  0.00  0.00     0.009 A 
BRANCH   8  11
ATOM     11  N   UNL d   1      53.164  32.880  53.817  0.00  0.00    -0.107 N 
ATOM     12  O   UNL d   1      53.365  32.197  53.401  0.00  0.00    -0.531 OA
ATOM     13  O   UNL d   1      53.427  32.980  54.586  0.00  0.00    -0.531 OA
ENDBRANCH   8  11
ENDBRANCH   5   6
ENDBRANCH   4   5
ENDBRANCH   2   4
BRANCH   1  14
ATOM     14  C   UNL d   1      48.407  35.490  52.648  0.00  0.00     0.085 A 
ATOM     15  C   UNL d   1      47.906  36.021  53.038  0.00  0.00     0.018 A 
ATOM     16  C   UNL d   1      47.223  36.263  52.683  0.00  0.00     0.002 A 
ATOM     17  C   UNL d   1      48.117  36.300  53.798  0.00  0.00     0.002 C 
ATOM     18  C   UNL d   1      47.026  35.979  51.930  0.00  0.00     0.000 A 
ATOM     19  C   UNL d   1      47.530  35.444  51.535  0.00  0.00     0.002 A 
ATOM     20  C   UNL d   1      46.323  36.237  51.581  0.00  0.00     0.000 C 
ATOM     21  C   UNL d   1      48.209  35.214  51.907  0.00  0.00     0.019 A 
ENDBRANCH   1  14
TORSDOF 5
ENDMDL
MODEL 5
REMARK VINA RESULT:      -6.3     10.734     11.167
REMARK  5 active torsions:
REMARK  status: ('A' for Active; 'I' for Inactive)
REMARK    1  A    between atoms: N_2  and  C_1 
REMARK    2  A    between atoms: C_10  and  C_5 
REMARK       I    between atoms: N_6  and  C_7 
REMARK    3  A    between atoms: C_8  and  N_6 
REMARK    4  A    between atoms: C_7  and  C_11 
REMARK    5  A    between atoms: C_11  and  C_10 
ROOT
ATOM      1  N   UNL d   1      44.320  29.634  60.729  0.00  0.00    -0.208 NA
ATOM      2  C   UNL d   1      44.652  29.810  59.994  0.00  0.00     0.279 C 
ATOM      3  O   UNL d   1      44.986  30.538  59.857  0.00  0.00    -0.265 OA
ENDROOT
BRANCH   2   4
ATOM      4  C   UNL d   1      44.644  29.240  59.397  0.00  0.00     0.063 C 
BRANCH   4   5
ATOM      5  C   UNL d   1      45.178  29.278  58.781  0.00  0.00     0.011 C 
BRANCH   5   6
ATOM      6  C   UNL d   1      45.147  28.719  58.155  0.00  0.00     0.031 A 
ATOM      7  S   UNL d   1      45.377  27.931  58.116  0.00  0.00    -0.064 SA
ATOM      8  C   UNL d   1      45.210  27.676  57.360  0.00  0.00     0.156 A 
ATOM      9  C   UNL d   1      44.885  28.276  56.930  0.00  0.00     0.031 A 
ATOM     10  C   UNL d   1      44.845  28.934  57.432  0.00  0.00     0.009 A 
BRANCH   8  11
ATOM     11  N   UNL d   1      45.359  26.911  57.091  0.00  0.00    -0.107 N 
ATOM     12  O   UNL d   1      45.871  26.771  56.460  0.00  0.00    -0.531 OA
ATOM     13  O   UNL d   1      44.988  26.282  57.462  0.00  0.00    -0.531 OA
ENDBRANCH   8  11
ENDBRANCH   5   6
ENDBRANCH   4   5
ENDBRANCH   2   4
BRANCH   1  14
ATOM     14  C   UNL d   1      44.328  30.203  61.326  0.00  0.00     0.085 A 
ATOM     15  C   UNL d   1      44.325  29.968  62.119  0.00  0.00     0.018 A 
ATOM     16  C   UNL d   1      44.333  30.525  62.702  0.00  0.00     0.002 A 
ATOM     17  C   UNL d   1      44.314  29.152  62.304  0.00  0.00     0.002 C 
ATOM     18  C   UNL d   1      44.344  31.330  62.506  0.00  0.00     0.000 A 
ATOM     19  C   UNL d   1      44.347  31.569  61.706  0.00  0.00     0.002 A 
ATOM     20  C   UNL d   1      44.352  31.887  63.115  0.00  0.00     0.000 C 
ATOM     21  C   UNL d   1      44.339  30.996  61.137  0.00  0.00     0.019 A 
ENDBRANCH   1  14
TORSDOF 5
ENDMDL
MODEL 6
REMARK VINA RESULT:      -5.8     10.375     10.991
REMARK  5 active torsions:
REMARK  status: ('A' for Active; 'I' for Inactive)
REMARK    1  A    between atoms: N_2  and  C_1 
REMARK    2  A    between atoms: C_10  and  C_5 
REMARK       I    between atoms: N_6  and  C_7 
REMARK    3  A    between atoms: C_8  and  N_6 
REMARK    4  A    between atoms: C_7  and  C_11 
REMARK    5  A    between atoms: C_11  and  C_10 
ROOT
ATOM      1  N   UNL d   1      45.071  28.027  56.801  0.00  0.00    -0.208 NA
ATOM      2  C   UNL d   1      44.917  27.281  57.118  0.00  0.00     0.279 C 
ATOM      3  O   UNL d   1      44.716  27.201  57.902  0.00  0.00    -0.265 OA
ENDROOT
BRANCH   2   4
ATOM      4  C   UNL d   1      44.967  26.615  56.635  0.00  0.00     0.063 C 
BRANCH   4   5
ATOM      5  C   UNL d   1      44.532  25.946  56.804  0.00  0.00     0.011 C 
BRANCH   5   6
ATOM      6  C   UNL d   1      44.593  25.263  56.319  0.00  0.00     0.031 A 
ATOM      7  S   UNL d   1      44.577  25.170  55.502  0.00  0.00    -0.064 SA
ATOM      8  C   UNL d   1      44.663  24.373  55.356  0.00  0.00     0.156 A 
ATOM      9  C   UNL d   1      44.732  23.970  56.051  0.00  0.00     0.031 A 
ATOM     10  C   UNL d   1      44.688  24.531  56.658  0.00  0.00     0.009 A 
BRANCH   8  11
ATOM     11  N   UNL d   1      44.675  24.045  54.600  0.00  0.00    -0.107 N 
ATOM     12  O   UNL d   1      44.314  24.424  53.962  0.00  0.00    -0.531 OA
ATOM     13  O   UNL d   1      45.055  23.328  54.486  0.00  0.00    -0.531 OA
ENDBRANCH   8  11
ENDBRANCH   5   6
ENDBRANCH   4   5
ENDBRANCH   2   4
BRANCH   1  14
ATOM     14  C   UNL d   1      45.021  28.694  57.285  0.00  0.00     0.085 A 
ATOM     15  C   UNL d   1      44.834  29.429  56.954  0.00  0.00     0.018 A 
ATOM     16  C   UNL d   1      44.785  30.080  57.428  0.00  0.00     0.002 A 
ATOM     17  C   UNL d   1      44.699  29.485  56.131  0.00  0.00     0.002 C 
ATOM     18  C   UNL d   1      44.922  30.012  58.242  0.00  0.00     0.000 A 
ATOM     19  C   UNL d   1      45.110  29.270  58.577  0.00  0.00     0.002 A 
ATOM     20  C   UNL d   1      44.867  30.688  58.712  0.00  0.00     0.000 C 
ATOM     21  C   UNL d   1      45.154  28.630  58.087  0.00  0.00     0.019 A 
ENDBRANCH   1  14
TORSDOF 5
ENDMDL
MODEL 7
REMARK VINA RESULT:      -5.5     10.203     10.917
REMARK  5 active torsions:
REMARK  status: ('A' for Active; 'I' for Inactive)
REMARK    1  A    between atoms: N_2  and  C_1 
REMARK    2  A    between atoms: C_10  and  C_5 
REMARK       I    between atoms: N_6  and  C_7 
REMARK    3  A    between atoms: C_8  and  N_6 
REMARK    4  A    between atoms: C_7  and  C_11 
REMARK    5  A    between atoms: C_11  and  C_10 
ROOT
ATOM      1  N   UNL d   1      44.953  28.678  57.570  0.00  0.00    -0.208 NA
ATOM      2  C   UNL d   1      44.869  28.201  56.901  0.00  0.00     0.279 C 
ATOM      3  O   UNL d   1      44.703  28.533  56.178  0.00  0.00    -0.265 OA
ENDROOT
BRANCH   2   4
ATOM      4  C   UNL d   1      44.954  27.384  56.971  0.00  0.00     0.063 C 
BRANCH   4   5
ATOM      5  C   UNL d   1      44.516  26.880  56.502  0.00  0.00     0.011 C 
BRANCH   5   6
ATOM      6  C   UNL d   1      44.569  26.048  56.605  0.00  0.00     0.031 A 
ATOM      7  S   UNL d   1      44.431  25.569  57.259  0.00  0.00    -0.064 SA
ATOM      8  C   UNL d   1      44.574  24.802  57.022  0.00  0.00     0.156 A 
ATOM      9  C   UNL d   1      44.796  24.789  56.247  0.00  0.00     0.031 A 
ATOM     10  C   UNL d   1      44.793  25.574  55.984  0.00  0.00     0.009 A 
BRANCH   8  11
ATOM     11  N   UNL d   1      44.498  24.148  57.517  0.00  0.00    -0.107 N 
ATOM     12  O   UNL d   1      44.603  24.213  58.333  0.00  0.00    -0.531 OA
ATOM     13  O   UNL d   1      44.315  23.421  57.187  0.00  0.00    -0.531 OA
ENDBRANCH   8  11
ENDBRANCH   5   6
ENDBRANCH   4   5
ENDBRANCH   2   4
BRANCH   1  14
ATOM     14  C   UNL d   1      44.867  29.496  57.499  0.00  0.00     0.085 A 
ATOM     15  C   UNL d   1      44.991  29.980  58.159  0.00  0.00     0.018 A 
ATOM     16  C   UNL d   1      44.907  30.780  58.090  0.00  0.00     0.002 A 
ATOM     17  C   UNL d   1      45.203  29.632  58.889  0.00  0.00     0.002 C 
ATOM     18  C   UNL d   1      44.698  31.113  57.361  0.00  0.00     0.000 A 
ATOM     19  C   UNL d   1      44.572  30.625  56.695  0.00  0.00     0.002 A 
ATOM     20  C   UNL d   1      44.616  31.932  57.308  0.00  0.00     0.000 C 
ATOM     21  C   UNL d   1      44.661  29.827  56.784  0.00  0.00     0.019 A 
ENDBRANCH   1  14
TORSDOF 5
ENDMDL
