MODEL 1
REMARK VINA RESULT:      -9.1      0.000      0.000
REMARK  5 active torsions:
REMARK  status: ('A' for Active; 'I' for Inactive)
REMARK    1  A    between atoms: C_9  and  S_1 
REMARK    2  A    between atoms: C_2  and  C_10 
REMARK       I    between atoms: C_8  and  N_15 
REMARK    3  A    between atoms: C_10  and  C_8 
REMARK    4  A    between atoms: N_15  and  C_22 
REMARK    5  A    between atoms: O_26  and  C_21 
ROOT
ATOM      1  C   UNL d   1      51.795  33.853  53.692  0.00  0.00     0.063 C 
ENDROOT
BRANCH   1   2
ATOM      2  C   UNL d   1      52.330  33.249  53.540  0.00  0.00     0.012 A 
ATOM      3  C   UNL d   1      53.088  33.277  53.866  0.00  0.00     0.023 A 
ATOM      4  C   UNL d   1      53.623  32.667  53.710  0.00  0.00     0.105 A 
ATOM      5  C   UNL d   1      53.305  33.910  54.342  0.00  0.00     0.004 A 
ATOM      6  C   UNL d   1      54.385  32.690  54.035  0.00  0.00     0.049 A 
ATOM      7  O   UNL d   1      53.411  32.029  53.232  0.00  0.00    -0.273 OA
ATOM      8  C   UNL d   1      54.597  33.328  54.512  0.00  0.00     0.096 A 
ATOM      9  C   UNL d   1      54.059  33.936  54.665  0.00  0.00     0.024 A 
ATOM     10  C   UNL d   1      52.642  32.003  52.903  0.00  0.00     0.300 A 
ATOM     11  C   UNL d   1      52.104  32.610  53.056  0.00  0.00     0.069 A 
ATOM     12  O   UNL d   1      52.422  31.374  52.428  0.00  0.00    -0.259 OA
BRANCH   8  13
ATOM     13  O   UNL d   1      55.349  33.359  54.837  0.00  0.00    -0.328 OA
ATOM     14  C   UNL d   1      55.526  33.927  55.406  0.00  0.00     0.181 C 
ENDBRANCH   8  13
ENDBRANCH   1   2
BRANCH   1  15
ATOM     15  C   UNL d   1      51.088  33.905  53.269  0.00  0.00     0.279 C 
ATOM     16  N   UNL d   1      50.890  34.595  52.868  0.00  0.00    -0.208 NA
ATOM     17  O   UNL d   1      50.581  33.259  53.251  0.00  0.00    -0.265 OA
BRANCH  16  18
ATOM     18  C   UNL d   1      50.185  34.640  52.449  0.00  0.00     0.085 A 
ATOM     19  C   UNL d   1      50.168  34.390  51.662  0.00  0.00     0.020 A 
ATOM     20  C   UNL d   1      49.455  34.437  51.242  0.00  0.00     0.015 A 
ATOM     21  C   UNL d   1      48.776  34.725  51.600  0.00  0.00     0.107 A 
ATOM     22  C   UNL d   1      48.797  34.973  52.384  0.00  0.00     0.015 A 
ATOM     23  C   UNL d   1      49.503  34.930  52.810  0.00  0.00     0.020 A 
BRANCH  21  24
ATOM     24  S   UNL d   1      48.071  34.769  51.178  0.00  0.00     0.302 S 
ATOM     25  O   UNL d   1      47.443  34.643  50.672  0.00  0.00    -0.197 OA
ATOM     26  O   UNL d   1      48.446  34.105  50.897  0.00  0.00    -0.197 OA
ATOM     27  N   UNL d   1      47.549  35.388  51.327  0.00  0.00    -0.043 N 
ENDBRANCH  21  24
ENDBRANCH  16  18
ENDBRANCH   1  15
TORSDOF 5
ENDMDL
MODEL 2
REMARK VINA RESULT:      -8.5      2.754      5.405
REMARK  5 active torsions:
REMARK  status: ('A' for Active; 'I' for Inactive)
REMARK    1  A    between atoms: C_9  and  S_1 
REMARK    2  A    between atoms: C_2  and  C_10 
REMARK       I    between atoms: C_8  and  N_15 
REMARK    3  A    between atoms: C_10  and  C_8 
REMARK    4  A    between atoms: N_15  and  C_22 
REMARK    5  A    between atoms: O_26  and  C_21 
ROOT
ATOM      1  C   UNL d   1      52.662  33.121  52.640  0.00  0.00     0.063 C 
ENDROOT
BRANCH   1   2
ATOM      2  C   UNL d   1      52.407  33.802  53.023  0.00  0.00     0.012 A 
ATOM      3  C   UNL d   1      51.637  34.077  52.906  0.00  0.00     0.023 A 
ATOM      4  C   UNL d   1      51.385  34.762  53.293  0.00  0.00     0.105 A 
ATOM      5  C   UNL d   1      51.128  33.669  52.408  0.00  0.00     0.004 A 
ATOM      6  C   UNL d   1      50.613  35.043  53.180  0.00  0.00     0.049 A 
ATOM      7  O   UNL d   1      51.892  35.176  53.795  0.00  0.00    -0.273 OA
ATOM      8  C   UNL d   1      50.107  34.628  52.678  0.00  0.00     0.096 A 
ATOM      9  C   UNL d   1      50.363  33.944  52.293  0.00  0.00     0.024 A 
ATOM     10  C   UNL d   1      52.671  34.896  53.912  0.00  0.00     0.300 A 
ATOM     11  C   UNL d   1      52.927  34.211  53.527  0.00  0.00     0.069 A 
ATOM     12  O   UNL d   1      53.182  35.299  54.408  0.00  0.00    -0.259 OA
BRANCH   8  13
ATOM     13  O   UNL d   1      49.343  34.899  52.561  0.00  0.00    -0.328 OA
ATOM     14  C   UNL d   1      48.997  34.839  51.816  0.00  0.00     0.181 C 
ENDBRANCH   8  13
ENDBRANCH   1   2
BRANCH   1  15
ATOM     15  C   UNL d   1      52.787  32.424  53.063  0.00  0.00     0.279 C 
ATOM     16  N   UNL d   1      52.805  31.698  52.677  0.00  0.00    -0.208 NA
ATOM     17  O   UNL d   1      52.893  32.459  53.876  0.00  0.00    -0.265 OA
BRANCH  16  18
ATOM     18  C   UNL d   1      52.930  31.007  53.104  0.00  0.00     0.085 A 
ATOM     19  C   UNL d   1      52.297  30.493  53.232  0.00  0.00     0.020 A 
ATOM     20  C   UNL d   1      52.426  29.797  53.663  0.00  0.00     0.015 A 
ATOM     21  C   UNL d   1      53.170  29.620  53.958  0.00  0.00     0.107 A 
ATOM     22  C   UNL d   1      53.799  30.135  53.829  0.00  0.00     0.015 A 
ATOM     23  C   UNL d   1      53.680  30.830  53.400  0.00  0.00     0.020 A 
BRANCH  21  24
ATOM     24  S   UNL d   1      53.293  28.927  54.386  0.00  0.00     0.302 S 
ATOM     25  O   UNL d   1      53.346  28.153  54.639  0.00  0.00    -0.197 OA
ATOM     26  O   UNL d   1      53.011  28.684  53.663  0.00  0.00    -0.197 OA
ATOM     27  N   UNL d   1      53.582  28.973  55.155  0.00  0.00    -0.043 N 
ENDBRANCH  21  24
ENDBRANCH  16  18
ENDBRANCH   1  15
TORSDOF 5
ENDMDL
MODEL 3
REMARK VINA RESULT:      -8.1      2.171      6.070
REMARK  5 active torsions:
REMARK  status: ('A' for Active; 'I' for Inactive)
REMARK    1  A    between atoms: C_9  and  S_1 
REMARK    2  A    between atoms: C_2  and  C_10 
REMARK       I    between atoms: C_8  and  N_15 
REMARK    3  A    between atoms: C_10  and  C_8 
REMARK    4  A    between atoms: N_15  and  C_22 
REMARK    5  A    between atoms: O_26  and  C_21 
ROOT
ATOM      1  C   UNL d   1      49.308  34.744  52.139  0.00  0.00     0.063 C 
ENDROOT
BRANCH   1   2
ATOM      2  C   UNL d   1      48.776  35.272  52.475  0.00  0.00     0.012 A 
ATOM      3  C   UNL d   1      48.061  35.433  52.095  0.00  0.00     0.023 A 
ATOM      4  C   UNL d   1      47.528  35.965  52.436  0.00  0.00     0.105 A 
ATOM      5  C   UNL d   1      47.883  35.065  51.384  0.00  0.00     0.004 A 
ATOM      6  C   UNL d   1      46.808  36.131  52.060  0.00  0.00     0.049 A 
ATOM      7  O   UNL d   1      47.701  36.338  53.151  0.00  0.00    -0.273 OA
ATOM      8  C   UNL d   1      46.636  35.757  51.345  0.00  0.00     0.096 A 
ATOM      9  C   UNL d   1      47.171  35.226  51.008  0.00  0.00     0.024 A 
ATOM     10  C   UNL d   1      48.426  36.174  53.534  0.00  0.00     0.300 A 
ATOM     11  C   UNL d   1      48.961  35.643  53.197  0.00  0.00     0.069 A 
ATOM     12  O   UNL d   1      48.607  36.539  54.243  0.00  0.00    -0.259 OA
BRANCH   8  13
ATOM     13  O   UNL d   1      45.926  35.916  50.967  0.00  0.00    -0.328 OA
ATOM     14  C   UNL d   1      45.262  35.462  51.138  0.00  0.00     0.181 C 
ENDBRANCH   8  13
ENDBRANCH   1   2
BRANCH   1  15
ATOM     15  C   UNL d   1      49.951  34.463  52.574  0.00  0.00     0.279 C 
ATOM     16  N   UNL d   1      50.703  34.444  52.244  0.00  0.00    -0.208 NA
ATOM     17  O   UNL d   1      49.833  34.200  53.343  0.00  0.00    -0.265 OA
BRANCH  16  18
ATOM     18  C   UNL d   1      51.339  34.162  52.682  0.00  0.00     0.085 A 
ATOM     19  C   UNL d   1      51.901  34.697  52.966  0.00  0.00     0.020 A 
ATOM     20  C   UNL d   1      52.540  34.409  53.408  0.00  0.00     0.015 A 
ATOM     21  C   UNL d   1      52.616  33.608  53.562  0.00  0.00     0.107 A 
ATOM     22  C   UNL d   1      52.054  33.078  53.277  0.00  0.00     0.015 A 
ATOM     23  C   UNL d   1      51.414  33.355  52.836  0.00  0.00     0.020 A 
BRANCH  21  24
ATOM     24  S   UNL d   1      53.253  33.328  54.002  0.00  0.00     0.302 S 
ATOM     25  O   UNL d   1      53.804  33.168  54.583  0.00  0.00    -0.197 OA
ATOM     26  O   UNL d   1      52.847  33.820  54.506  0.00  0.00    -0.197 OA
ATOM     27  N   UNL d   1      53.787  32.807  53.653  0.00  0.00    -0.043 N 
ENDBRANCH  21  24
ENDBRANCH  16  18
ENDBRANCH   1  15
TORSDOF 5
ENDMDL
MODEL 4
REMARK VINA RESULT:      -7.3      2.851      4.958
REMARK  5 active torsions:
REMARK  status: ('A' for Active; 'I' for Inactive)
REMARK    1  A    between atoms: C_9  and  S_1 
REMARK    2  A    between atoms: C_2  and  C_10 
REMARK       I    between atoms: C_8  and  N_15 
REMARK    3  A    between atoms: C_10  and  C_8 
REMARK    4  A    between atoms: N_15  and  C_22 
REMARK    5  A    between atoms: O_26  and  C_21 
ROOT
ATOM      1  C   UNL d   1      52.541  32.954  52.544  0.00  0.00     0.063 C 
ENDROOT
BRANCH   1   2
ATOM      2  C   UNL d   1      52.032  33.551  52.790  0.00  0.00     0.012 A 
ATOM      3  C   UNL d   1      52.327  34.195  53.214  0.00  0.00     0.023 A 
ATOM      4  C   UNL d   1      51.812  34.793  53.458  0.00  0.00     0.105 A 
ATOM      5  C   UNL d   1      53.128  34.238  53.390  0.00  0.00     0.004 A 
ATOM      6  C   UNL d   1      52.102  35.443  53.884  0.00  0.00     0.049 A 
ATOM      7  O   UNL d   1      51.006  34.756  53.284  0.00  0.00    -0.273 OA
ATOM      8  C   UNL d   1      52.907  35.479  54.058  0.00  0.00     0.096 A 
ATOM      9  C   UNL d   1      53.418  34.879  53.812  0.00  0.00     0.024 A 
ATOM     10  C   UNL d   1      50.711  34.103  52.854  0.00  0.00     0.300 A 
ATOM     11  C   UNL d   1      51.222  33.503  52.608  0.00  0.00     0.069 A 
ATOM     12  O   UNL d   1      49.913  34.057  52.676  0.00  0.00    -0.259 OA
BRANCH   8  13
ATOM     13  O   UNL d   1      53.202  36.117  54.479  0.00  0.00    -0.328 OA
ATOM     14  C   UNL d   1      53.249  36.079  55.300  0.00  0.00     0.181 C 
ENDBRANCH   8  13
ENDBRANCH   1   2
BRANCH   1  15
ATOM     15  C   UNL d   1      52.557  32.229  52.937  0.00  0.00     0.279 C 
ATOM     16  N   UNL d   1      53.229  31.755  52.913  0.00  0.00    -0.208 NA
ATOM     17  O   UNL d   1      51.894  31.982  53.354  0.00  0.00    -0.265 OA
BRANCH  16  18
ATOM     18  C   UNL d   1      53.238  31.034  53.307  0.00  0.00     0.085 A 
ATOM     19  C   UNL d   1      53.661  30.965  54.013  0.00  0.00     0.020 A 
ATOM     20  C   UNL d   1      53.668  30.236  54.407  0.00  0.00     0.015 A 
ATOM     21  C   UNL d   1      53.262  29.592  54.103  0.00  0.00     0.107 A 
ATOM     22  C   UNL d   1      52.841  29.664  53.400  0.00  0.00     0.015 A 
ATOM     23  C   UNL d   1      52.828  30.386  53.000  0.00  0.00     0.020 A 
BRANCH  21  24
ATOM     24  S   UNL d   1      53.273  28.870  54.499  0.00  0.00     0.302 S 
ATOM     25  O   UNL d   1      53.249  28.080  54.705  0.00  0.00    -0.197 OA
ATOM     26  O   UNL d   1      53.136  28.683  53.720  0.00  0.00    -0.197 OA
ATOM     27  N   UNL d   1      53.400  28.858  55.312  0.00  0.00    -0.043 N 
ENDBRANCH  21  24
ENDBRANCH  16  18
ENDBRANCH   1  15
TORSDOF 5
ENDMDL
MODEL 5
REMARK VINA RESULT:      -6.7     10.390     11.366
REMARK  5 active torsions:
REMARK  status: ('A' for Active; 'I' for Inactive)
REMARK    1  A    between atoms: C_9  and  S_1 
REMARK    2  A    between atoms: C_2  and  C_10 
REMARK       I    between atoms: C_8  and  N_15 
REMARK    3  A    between atoms: C_10  and  C_8 
REMARK    4  A    between atoms: N_15  and  C_22 
REMARK    5  A    between atoms: O_26  and  C_21 
ROOT
ATOM      1  C   UNL d   1      44.697  27.140  56.517  0.00  0.00     0.063 C 
ENDROOT
BRANCH   1   2
ATOM      2  C   UNL d   1      44.856  27.491  57.243  0.00  0.00     0.012 A 
ATOM      3  C   UNL d   1      44.873  28.313  57.309  0.00  0.00     0.023 A 
ATOM      4  C   UNL d   1      45.033  28.661  58.041  0.00  0.00     0.105 A 
ATOM      5  C   UNL d   1      44.732  28.780  56.649  0.00  0.00     0.004 A 
ATOM      6  C   UNL d   1      45.052  29.486  58.114  0.00  0.00     0.049 A 
ATOM      7  O   UNL d   1      45.176  28.197  58.709  0.00  0.00    -0.273 OA
ATOM      8  C   UNL d   1      44.909  29.950  57.447  0.00  0.00     0.096 A 
ATOM      9  C   UNL d   1      44.749  29.598  56.717  0.00  0.00     0.024 A 
ATOM     10  C   UNL d   1      45.159  27.364  58.639  0.00  0.00     0.300 A 
ATOM     11  C   UNL d   1      44.999  27.012  57.909  0.00  0.00     0.069 A 
ATOM     12  O   UNL d   1      45.299  26.895  59.295  0.00  0.00    -0.259 OA
BRANCH   8  13
ATOM     13  O   UNL d   1      44.925  30.766  57.510  0.00  0.00    -0.328 OA
ATOM     14  C   UNL d   1      44.564  31.228  56.933  0.00  0.00     0.181 C 
ENDBRANCH   8  13
ENDBRANCH   1   2
BRANCH   1  15
ATOM     15  C   UNL d   1      44.894  26.351  56.379  0.00  0.00     0.279 C 
ATOM     16  N   UNL d   1      44.318  25.810  56.152  0.00  0.00    -0.208 NA
ATOM     17  O   UNL d   1      45.673  26.108  56.471  0.00  0.00    -0.265 OA
BRANCH  16  18
ATOM     18  C   UNL d   1      44.521  25.025  56.017  0.00  0.00     0.085 A 
ATOM     19  C   UNL d   1      44.776  24.799  55.264  0.00  0.00     0.020 A 
ATOM     20  C   UNL d   1      44.979  24.007  55.131  0.00  0.00     0.015 A 
ATOM     21  C   UNL d   1      44.930  23.455  55.735  0.00  0.00     0.107 A 
ATOM     22  C   UNL d   1      44.676  23.684  56.484  0.00  0.00     0.015 A 
ATOM     23  C   UNL d   1      44.471  24.470  56.626  0.00  0.00     0.020 A 
BRANCH  21  24
ATOM     24  S   UNL d   1      45.133  22.669  55.597  0.00  0.00     0.302 S 
ATOM     25  O   UNL d   1      45.153  21.886  55.368  0.00  0.00    -0.197 OA
ATOM     26  O   UNL d   1      44.399  22.761  55.260  0.00  0.00    -0.197 OA
ATOM     27  N   UNL d   1      45.856  22.385  55.870  0.00  0.00    -0.043 N 
ENDBRANCH  21  24
ENDBRANCH  16  18
ENDBRANCH   1  15
TORSDOF 5
ENDMDL
