MODEL 1
REMARK VINA RESULT:      -0.7      0.000      0.000
REMARK  5 active torsions:
REMARK  status: ('A' for Active; 'I' for Inactive)
REMARK    1  A    between atoms: O_8  and  C_2 
REMARK    2  A    between atoms: C_11  and  C_5 
REMARK    3  A    between atoms: C_15  and  O_8 
REMARK    4  A    between atoms: N_14  and  C_11 
REMARK    5  A    between atoms: O_23  and  C_16 
ROOT
ATOM      1  C   UNL d   1     -42.223-122.720 -50.966  0.00  0.00     0.108 A 
ATOM      2  C   UNL d   1     -41.499-122.430 -52.433  0.00  0.00     0.161 A 
ATOM      3  C   UNL d   1     -42.230-121.949 -51.292  0.00  0.00     0.064 A 
ATOM      4  C   UNL d   1     -41.872-121.804 -52.018  0.00  0.00     0.222 A 
ATOM      5  C   UNL d   1     -42.585-122.865 -50.232  0.00  0.00     0.079 A 
ATOM      6  O   UNL d   1     -41.856-123.344 -51.369  0.00  0.00    -0.305 OA
ATOM      7  C   UNL d   1     -41.492-123.193 -52.110  0.00  0.00     0.126 A 
ATOM      8  C   UNL d   1     -42.603-121.334 -50.872  0.00  0.00     0.009 A 
ATOM      9  C   UNL d   1     -42.951-122.244 -49.827  0.00  0.00     0.199 A 
ATOM     10  O   UNL d   1     -41.877-121.046 -52.342  0.00  0.00    -0.284 OA
ATOM     11  C   UNL d   1     -42.960-121.482 -50.146  0.00  0.00     0.042 A 
ATOM     12  O   UNL d   1     -43.309-122.399 -49.097  0.00  0.00    -0.286 OA
ATOM     13  C   UNL d   1     -41.126-123.807 -52.518  0.00  0.00     0.029 C 
ENDROOT
BRANCH   2  14
ATOM     14  O   UNL d   1     -41.141-122.283 -53.159  0.00  0.00    -0.302 OA
BRANCH  14  15
ATOM     15  C   UNL d   1     -41.593-122.284 -53.847  0.00  0.00     0.100 A 
ATOM     16  C   UNL d   1     -41.828-123.002 -54.180  0.00  0.00     0.027 A 
ATOM     17  C   UNL d   1     -42.276-123.009 -54.863  0.00  0.00     0.026 A 
ATOM     18  C   UNL d   1     -42.497-122.289 -55.224  0.00  0.00     0.094 A 
ATOM     19  C   UNL d   1     -42.260-121.574 -54.887  0.00  0.00     0.026 A 
ATOM     20  C   UNL d   1     -41.808-121.572 -54.199  0.00  0.00     0.027 A 
BRANCH  18  21
ATOM     21  O   UNL d   1     -42.949-122.292 -55.912  0.00  0.00    -0.328 OA
ATOM     22  C   UNL d   1     -42.663-121.925 -56.593  0.00  0.00     0.181 C 
ENDBRANCH  18  21
ENDBRANCH  14  15
ENDBRANCH   2  14
BRANCH   5  23
ATOM     23  C   UNL d   1     -42.576-123.626 -49.914  0.00  0.00     0.086 C 
BRANCH  23  24
ATOM     24  N   UNL d   1     -42.304-123.742 -49.151  0.00  0.00    -0.300 N 
ATOM     25  C   UNL d   1     -41.495-123.817 -49.009  0.00  0.00     0.100 C 
ATOM     26  C   UNL d   1     -42.836-123.784 -48.518  0.00  0.00     0.100 C 
ENDBRANCH  23  24
ENDBRANCH   5  23
TORSDOF 5
ENDMDL
MODEL 2
REMARK VINA RESULT:       1.1      1.255      2.209
REMARK  5 active torsions:
REMARK  status: ('A' for Active; 'I' for Inactive)
REMARK    1  A    between atoms: O_8  and  C_2 
REMARK    2  A    between atoms: C_11  and  C_5 
REMARK    3  A    between atoms: C_15  and  O_8 
REMARK    4  A    between atoms: N_14  and  C_11 
REMARK    5  A    between atoms: O_23  and  C_16 
ROOT
ATOM      1  C   UNL d   1     -42.387-122.683 -49.321  0.00  0.00     0.108 A 
ATOM      2  C   UNL d   1     -42.452-121.968 -50.819  0.00  0.00     0.161 A 
ATOM      3  C   UNL d   1     -43.077-122.753 -49.789  0.00  0.00     0.064 A 
ATOM      4  C   UNL d   1     -43.110-122.400 -50.530  0.00  0.00     0.222 A 
ATOM      5  C   UNL d   1     -42.353-123.040 -48.572  0.00  0.00     0.079 A 
ATOM      6  O   UNL d   1     -41.731-122.258 -49.598  0.00  0.00    -0.305 OA
ATOM      7  C   UNL d   1     -41.768-121.899 -50.356  0.00  0.00     0.126 A 
ATOM      8  C   UNL d   1     -43.725-123.184 -49.494  0.00  0.00     0.009 A 
ATOM      9  C   UNL d   1     -43.006-123.465 -48.292  0.00  0.00     0.199 A 
ATOM     10  O   UNL d   1     -43.789-122.467 -50.995  0.00  0.00    -0.284 OA
ATOM     11  C   UNL d   1     -43.688-123.537 -48.751  0.00  0.00     0.042 A 
ATOM     12  O   UNL d   1     -42.963-123.818 -47.544  0.00  0.00    -0.286 OA
ATOM     13  C   UNL d   1     -41.123-121.475 -50.640  0.00  0.00     0.029 C 
ENDROOT
BRANCH   2  14
ATOM     14  O   UNL d   1     -42.489-121.616 -51.562  0.00  0.00    -0.302 OA
BRANCH  14  15
ATOM     15  C   UNL d   1     -42.147-121.989 -52.211  0.00  0.00     0.100 A 
ATOM     16  C   UNL d   1     -42.453-121.858 -52.966  0.00  0.00     0.027 A 
ATOM     17  C   UNL d   1     -42.117-122.226 -53.613  0.00  0.00     0.026 A 
ATOM     18  C   UNL d   1     -41.464-122.735 -53.510  0.00  0.00     0.094 A 
ATOM     19  C   UNL d   1     -41.161-122.863 -52.753  0.00  0.00     0.026 A 
ATOM     20  C   UNL d   1     -41.503-122.490 -52.104  0.00  0.00     0.027 A 
BRANCH  18  21
ATOM     21  O   UNL d   1     -41.123-123.108 -54.160  0.00  0.00    -0.328 OA
ATOM     22  C   UNL d   1     -41.583-123.280 -54.823  0.00  0.00     0.181 C 
ENDBRANCH  18  21
ENDBRANCH  14  15
ENDBRANCH   2  14
BRANCH   5  23
ATOM     23  C   UNL d   1     -41.671-122.969 -48.113  0.00  0.00     0.086 C 
BRANCH  23  24
ATOM     24  N   UNL d   1     -41.721-123.047 -47.300  0.00  0.00    -0.300 N 
ATOM     25  C   UNL d   1     -41.761-123.798 -46.960  0.00  0.00     0.100 C 
ATOM     26  C   UNL d   1     -41.732-122.377 -46.814  0.00  0.00     0.100 C 
ENDBRANCH  23  24
ENDBRANCH   5  23
TORSDOF 5
ENDMDL
