MODEL 1
REMARK VINA RESULT:      36.3      0.000      0.000
REMARK  3 active torsions:
REMARK  status: ('A' for Active; 'I' for Inactive)
REMARK    1  A    between atoms: S_7  and  C_1 
REMARK    2  A    between atoms: C_16  and  N_2 
REMARK    3  A    between atoms: C_4  and  S_7 
ROOT
ATOM      1  S   UNL d   1      13.893  12.941  -2.627  0.00  0.00    -0.028 SA
ENDROOT
BRANCH   1   2
ATOM      2  C   UNL d   1      13.717  12.570  -1.868  0.00  0.00     0.117 A 
ATOM      3  C   UNL d   1      14.249  12.648  -1.250  0.00  0.00     0.048 A 
ATOM      4  C   UNL d   1      14.080  12.290  -0.516  0.00  0.00     0.114 A 
ATOM      5  C   UNL d   1      14.976  13.029  -1.166  0.00  0.00     0.010 A 
ATOM      6  S   UNL d   1      14.710  12.465  -0.014  0.00  0.00    -0.068 SA
ATOM      7  N   UNL d   1      13.385  11.865  -0.427  0.00  0.00    -0.217 NA
ATOM      8  C   UNL d   1      15.260  12.930  -0.444  0.00  0.00     0.031 A 
ATOM      9  C   UNL d   1      16.002  13.243  -0.148  0.00  0.00     0.007 C 
ATOM     10  C   UNL d   1      12.836  11.779  -1.053  0.00  0.00     0.200 A 
ATOM     11  N   UNL d   1      13.005  12.138  -1.786  0.00  0.00    -0.217 NA
ATOM     12  C   UNL d   1      15.383  13.477  -1.773  0.00  0.00     0.001 C 
ENDBRANCH   1   2
BRANCH   1  13
ATOM     13  C   UNL d   1      13.577  12.601  -3.323  0.00  0.00     0.220 A 
ATOM     14  N   UNL d   1      13.335  13.062  -4.001  0.00  0.00    -0.186 N 
ATOM     15  N   UNL d   1      13.052  12.548  -4.582  0.00  0.00    -0.038 NA
ATOM     16  N   UNL d   1      13.112  11.779  -4.282  0.00  0.00    -0.022 NA
ATOM     17  N   UNL d   1      13.433  11.810  -3.512  0.00  0.00    -0.101 NA
BRANCH  14  18
ATOM     18  C   UNL d   1      13.419  13.890  -3.963  0.00  0.00     0.087 A 
ATOM     19  C   UNL d   1      14.006  14.160  -3.750  0.00  0.00     0.019 A 
ATOM     20  C   UNL d   1      14.093  14.963  -3.711  0.00  0.00     0.002 A 
ATOM     21  C   UNL d   1      13.470  15.496  -3.930  0.00  0.00     0.000 A 
ATOM     22  C   UNL d   1      12.916  15.223  -4.131  0.00  0.00     0.002 A 
ATOM     23  C   UNL d   1      12.797  14.423  -4.181  0.00  0.00     0.019 A 
ENDBRANCH  14  18
ENDBRANCH   1  13
TORSDOF 3
ENDMDL
