MODEL 1
REMARK VINA RESULT:      -0.2      0.000      0.000
REMARK  6 active torsions:
REMARK  status: ('A' for Active; 'I' for Inactive)
REMARK    1  A    between atoms: C_7  and  C_1 
REMARK    2  A    between atoms: C_6  and  O_13 
REMARK    3  A    between atoms: C_12  and  C_6 
REMARK    4  A    between atoms: O_13  and  C_10 
REMARK    5  A    between atoms: C_28  and  C_14 
REMARK    6  A    between atoms: C_31  and  C_28 
ROOT
ATOM      1  C   UNL d   1     -41.713-123.170 -50.253  0.00  0.00     0.064 A 
ATOM      2  C   UNL d   1     -41.490-122.265 -51.331  0.00  0.00     0.062 A 
ATOM      3  C   UNL d   1     -41.572-122.405 -50.523  0.00  0.00     0.199 A 
ATOM      4  C   UNL d   1     -41.773-123.793 -50.788  0.00  0.00     0.126 A 
ATOM      5  C   UNL d   1     -41.549-122.889 -51.866  0.00  0.00     0.105 A 
ATOM      6  O   UNL d   1     -41.691-123.654 -51.595  0.00  0.00    -0.305 OA
ATOM      7  C   UNL d   1     -41.348-121.501 -51.601  0.00  0.00     0.007 A 
ATOM      8  C   UNL d   1     -41.325-121.981 -52.947  0.00  0.00     0.105 A 
ATOM      9  C   UNL d   1     -41.468-122.749 -52.673  0.00  0.00     0.050 A 
ATOM     10  C   UNL d   1     -41.266-121.358 -52.412  0.00  0.00     0.023 A 
ATOM     11  O   UNL d   1     -41.512-121.781 -49.987  0.00  0.00    -0.286 OA
ENDROOT
BRANCH   1  12
ATOM     12  C   UNL d   1     -41.795-123.310 -49.445  0.00  0.00     0.007 A 
ATOM     13  C   UNL d   1     -42.554-123.396 -49.108  0.00  0.00     0.027 A 
ATOM     14  C   UNL d   1     -42.639-123.535 -48.309  0.00  0.00     0.123 A 
ATOM     15  O   UNL d   1     -43.390-123.619 -47.982  0.00  0.00    -0.301 OA
ATOM     16  C   UNL d   1     -41.963-123.592 -47.819  0.00  0.00     0.123 A 
ATOM     17  C   UNL d   1     -43.474-123.760 -47.171  0.00  0.00     0.149 A 
ATOM     18  C   UNL d   1     -42.810-123.817 -46.685  0.00  0.00     0.149 A 
ATOM     19  O   UNL d   1     -42.048-123.732 -47.013  0.00  0.00    -0.301 OA
ATOM     20  C   UNL d   1     -41.205-123.505 -48.155  0.00  0.00     0.027 A 
ATOM     21  C   UNL d   1     -41.123-123.365 -48.963  0.00  0.00     0.002 A 
ENDBRANCH   1  12
BRANCH  10  22
ATOM     22  C   UNL d   1     -41.123-120.588 -52.689  0.00  0.00     0.002 C 
BRANCH  22  23
ATOM     23  C   UNL d   1     -41.237-119.942 -52.191  0.00  0.00     0.000 C 
ATOM     24  C   UNL d   1     -41.178-119.179 -52.484  0.00  0.00     0.000 C 
ENDBRANCH  22  23
ENDBRANCH  10  22
BRANCH   8  25
ATOM     25  O   UNL d   1     -41.242-121.836 -53.761  0.00  0.00    -0.271 OA
BRANCH  25  26
ATOM     26  C   UNL d   1     -41.440-122.422 -54.308  0.00  0.00     0.323 C 
ATOM     27  O   UNL d   1     -41.233-123.204 -54.175  0.00  0.00    -0.257 OA
BRANCH  26  28
ATOM     28  C   UNL d   1     -41.851-122.218 -54.998  0.00  0.00     0.163 A 
ATOM     29  O   UNL d   1     -41.698-121.572 -55.483  0.00  0.00    -0.300 OA
ATOM     30  C   UNL d   1     -42.236-121.576 -56.108  0.00  0.00     0.123 A 
ATOM     31  C   UNL d   1     -42.728-122.238 -56.006  0.00  0.00     0.029 A 
ATOM     32  C   UNL d   1     -42.485-122.632 -55.317  0.00  0.00     0.032 A 
ENDBRANCH  26  28
ENDBRANCH  25  26
ENDBRANCH   8  25
TORSDOF 6
ENDMDL
