MODEL 1
REMARK VINA RESULT:      19.9      0.000      0.000
REMARK  2 active torsions:
REMARK  status: ('A' for Active; 'I' for Inactive)
REMARK    1  A    between atoms: C_5  and  N_1 
REMARK    2  A    between atoms: C_7  and  C_5 
ROOT
ATOM      1  N   UNL d   1     -52.055  25.171  33.411  0.00  0.00    -0.251 N 
ATOM      2  C   UNL d   1     -51.342  24.764  33.388  0.00  0.00     0.378 A 
ATOM      3  O   UNL d   1     -51.504  23.958  33.460  0.00  0.00    -0.258 OA
ATOM      4  C   UNL d   1     -52.664  24.614  33.498  0.00  0.00     0.092 A 
ATOM      5  C   UNL d   1     -52.322  23.866  33.528  0.00  0.00     0.121 A 
ATOM      6  O   UNL d   1     -50.592  25.098  33.306  0.00  0.00    -0.237 OA
ATOM      7  C   UNL d   1     -53.481  24.705  33.552  0.00  0.00     0.020 A 
ATOM      8  C   UNL d   1     -52.805  23.199  33.614  0.00  0.00     0.026 A 
ATOM      9  C   UNL d   1     -53.960  24.038  33.638  0.00  0.00     0.002 A 
ATOM     10  C   UNL d   1     -53.623  23.288  33.669  0.00  0.00     0.002 A 
ENDROOT
BRANCH   1  11
ATOM     11  C   UNL d   1     -52.153  25.990  33.357  0.00  0.00     0.086 C 
BRANCH  11  12
ATOM     12  C   UNL d   1     -51.497  26.478  33.343  0.00  0.00     0.028 A 
ATOM     13  C   UNL d   1     -51.590  27.300  33.320  0.00  0.00     0.059 A 
ATOM     14 CL   UNL d   1     -52.367  27.595  33.311  0.00  0.00    -0.082 Cl
ATOM     15  C   UNL d   1     -50.932  27.786  33.306  0.00  0.00     0.011 A 
ATOM     16  C   UNL d   1     -50.168  27.459  33.316  0.00  0.00     0.001 A 
ATOM     17  C   UNL d   1     -50.073  26.638  33.339  0.00  0.00     0.000 A 
ATOM     18  C   UNL d   1     -50.736  26.150  33.353  0.00  0.00     0.002 A 
ENDBRANCH  11  12
ENDBRANCH   1  11
TORSDOF 2
ENDMDL
