MODEL 1
REMARK VINA RESULT:      -3.2      0.000      0.000
REMARK  3 active torsions:
REMARK  status: ('A' for Active; 'I' for Inactive)
REMARK    1  A    between atoms: C_6  and  N_2 
REMARK    2  A    between atoms: C_7  and  C_6 
REMARK       I    between atoms: N_11  and  C_7 
REMARK    3  A    between atoms: C_14  and  N_11 
ROOT
ATOM      1  S   UNL d   1      32.619  21.109 -21.022  0.00  0.00     0.274 S 
ATOM      2  N   UNL d   1      32.952  20.895 -21.735  0.00  0.00    -0.192 N 
ATOM      3  C   UNL d   1      32.957  21.558 -22.231  0.00  0.00     0.275 A 
ATOM      4  C   UNL d   1      32.623  22.175 -21.809  0.00  0.00     0.069 A 
ATOM      5  C   UNL d   1      32.416  21.900 -21.070  0.00  0.00     0.109 A 
ATOM      6  O   UNL d   1      32.871  20.328 -21.112  0.00  0.00    -0.200 OA
ATOM      7  O   UNL d   1      32.329  21.077 -20.242  0.00  0.00    -0.200 OA
ATOM      8  O   UNL d   1      33.239  21.598 -22.997  0.00  0.00    -0.266 OA
ATOM      9  C   UNL d   1      32.482  22.962 -22.014  0.00  0.00     0.005 A 
ATOM     10  C   UNL d   1      32.065  22.407 -20.522  0.00  0.00     0.013 A 
ATOM     11  C   UNL d   1      32.130  23.470 -21.465  0.00  0.00     0.000 A 
ATOM     12  C   UNL d   1      31.923  23.195 -20.726  0.00  0.00     0.001 A 
ENDROOT
BRANCH   2  13
ATOM     13  C   UNL d   1      33.238  20.143 -21.935  0.00  0.00     0.157 C 
BRANCH  13  14
ATOM     14  C   UNL d   1      32.853  19.705 -22.507  0.00  0.00     0.298 C 
ATOM     15  N   UNL d   1      33.232  19.045 -22.840  0.00  0.00    -0.207 NA
ATOM     16  O   UNL d   1      32.100  19.905 -22.758  0.00  0.00    -0.264 OA
BRANCH  15  17
ATOM     17  C   UNL d   1      32.851  18.597 -23.419  0.00  0.00     0.085 A 
ATOM     18  C   UNL d   1      32.897  18.832 -24.196  0.00  0.00     0.019 A 
ATOM     19  C   UNL d   1      32.516  18.383 -24.775  0.00  0.00     0.002 A 
ATOM     20  C   UNL d   1      32.098  17.713 -24.566  0.00  0.00     0.000 A 
ATOM     21  C   UNL d   1      32.055  17.480 -23.775  0.00  0.00     0.002 A 
ATOM     22  C   UNL d   1      32.427  17.917 -23.207  0.00  0.00     0.019 A 
ENDBRANCH  15  17
ENDBRANCH  13  14
ENDBRANCH   2  13
TORSDOF 3
ENDMDL
MODEL 2
REMARK VINA RESULT:      -2.6      1.564      2.347
REMARK  3 active torsions:
REMARK  status: ('A' for Active; 'I' for Inactive)
REMARK    1  A    between atoms: C_6  and  N_2 
REMARK    2  A    between atoms: C_7  and  C_6 
REMARK       I    between atoms: N_11  and  C_7 
REMARK    3  A    between atoms: C_14  and  N_11 
ROOT
ATOM      1  S   UNL d   1      33.208  19.249 -22.287  0.00  0.00     0.274 S 
ATOM      2  N   UNL d   1      33.201  18.972 -23.054  0.00  0.00    -0.192 N 
ATOM      3  C   UNL d   1      33.208  19.622 -23.568  0.00  0.00     0.275 A 
ATOM      4  C   UNL d   1      33.220  20.294 -23.102  0.00  0.00     0.069 A 
ATOM      5  C   UNL d   1      33.220  20.067 -22.319  0.00  0.00     0.109 A 
ATOM      6  O   UNL d   1      33.196  18.432 -22.403  0.00  0.00    -0.200 OA
ATOM      7  O   UNL d   1      33.212  19.277 -21.456  0.00  0.00    -0.200 OA
ATOM      8  O   UNL d   1      33.205  19.603 -24.385  0.00  0.00    -0.266 OA
ATOM      9  C   UNL d   1      33.230  21.095 -23.302  0.00  0.00     0.005 A 
ATOM     10  C   UNL d   1      33.230  20.635 -21.722  0.00  0.00     0.013 A 
ATOM     11  C   UNL d   1      33.241  21.665 -22.703  0.00  0.00     0.000 A 
ATOM     12  C   UNL d   1      33.241  21.438 -21.920  0.00  0.00     0.001 A 
ENDROOT
BRANCH   2  13
ATOM     13  C   UNL d   1      33.189  18.176 -23.286  0.00  0.00     0.157 C 
BRANCH  13  14
ATOM     14  C   UNL d   1      32.506  17.859 -23.602  0.00  0.00     0.298 C 
ATOM     15  N   UNL d   1      32.364  17.044 -23.535  0.00  0.00    -0.207 NA
ATOM     16  O   UNL d   1      31.957  18.333 -23.984  0.00  0.00    -0.264 OA
BRANCH  15  17
ATOM     17  C   UNL d   1      31.675  16.715 -23.851  0.00  0.00     0.085 A 
ATOM     18  C   UNL d   1      31.619  16.614 -24.656  0.00  0.00     0.019 A 
ATOM     19  C   UNL d   1      30.930  16.285 -24.972  0.00  0.00     0.002 A 
ATOM     20  C   UNL d   1      30.316  16.066 -24.480  0.00  0.00     0.000 A 
ATOM     21  C   UNL d   1      30.381  16.171 -23.663  0.00  0.00     0.002 A 
ATOM     22  C   UNL d   1      31.053  16.492 -23.352  0.00  0.00     0.019 A 
ENDBRANCH  15  17
ENDBRANCH  13  14
ENDBRANCH   2  13
TORSDOF 3
ENDMDL
MODEL 3
REMARK VINA RESULT:      -2.6      3.042      5.316
REMARK  3 active torsions:
REMARK  status: ('A' for Active; 'I' for Inactive)
REMARK    1  A    between atoms: C_6  and  N_2 
REMARK    2  A    between atoms: C_7  and  C_6 
REMARK       I    between atoms: N_11  and  C_7 
REMARK    3  A    between atoms: C_14  and  N_11 
ROOT
ATOM      1  S   UNL d   1      30.718  16.086 -23.765  0.00  0.00     0.274 S 
ATOM      2  N   UNL d   1      30.881  16.692 -24.287  0.00  0.00    -0.192 N 
ATOM      3  C   UNL d   1      30.164  17.028 -24.530  0.00  0.00     0.275 A 
ATOM      4  C   UNL d   1      29.567  16.619 -24.148  0.00  0.00     0.069 A 
ATOM      5  C   UNL d   1      29.906  16.043 -23.681  0.00  0.00     0.109 A 
ATOM      6  O   UNL d   1      31.509  16.242 -23.943  0.00  0.00    -0.200 OA
ATOM      7  O   UNL d   1      30.812  15.453 -23.234  0.00  0.00    -0.200 OA
ATOM      8  O   UNL d   1      30.064  17.650 -25.050  0.00  0.00    -0.266 OA
ATOM      9  C   UNL d   1      28.747  16.705 -24.173  0.00  0.00     0.005 A 
ATOM     10  C   UNL d   1      29.431  15.543 -23.229  0.00  0.00     0.013 A 
ATOM     11  C   UNL d   1      28.270  16.203 -23.720  0.00  0.00     0.000 A 
ATOM     12  C   UNL d   1      28.609  15.628 -23.253  0.00  0.00     0.001 A 
ENDROOT
BRANCH   2  13
ATOM     13  C   UNL d   1      31.635  16.933 -24.536  0.00  0.00     0.157 C 
BRANCH  13  14
ATOM     14  C   UNL d   1      31.889  17.692 -24.371  0.00  0.00     0.298 C 
ATOM     15  N   UNL d   1      32.459  17.812 -23.780  0.00  0.00    -0.207 NA
ATOM     16  O   UNL d   1      31.590  18.337 -24.778  0.00  0.00    -0.264 OA
BRANCH  15  17
ATOM     17  C   UNL d   1      32.722  18.575 -23.606  0.00  0.00     0.085 A 
ATOM     18  C   UNL d   1      32.746  18.818 -22.831  0.00  0.00     0.019 A 
ATOM     19  C   UNL d   1      33.009  19.582 -22.657  0.00  0.00     0.002 A 
ATOM     20  C   UNL d   1      33.241  20.083 -23.258  0.00  0.00     0.000 A 
ATOM     21  C   UNL d   1      33.214  19.829 -24.044  0.00  0.00     0.002 A 
ATOM     22  C   UNL d   1      32.958  19.084 -24.217  0.00  0.00     0.019 A 
ENDBRANCH  15  17
ENDBRANCH  13  14
ENDBRANCH   2  13
TORSDOF 3
ENDMDL
MODEL 4
REMARK VINA RESULT:      -2.2      1.135      4.342
REMARK  3 active torsions:
REMARK  status: ('A' for Active; 'I' for Inactive)
REMARK    1  A    between atoms: C_6  and  N_2 
REMARK    2  A    between atoms: C_7  and  C_6 
REMARK       I    between atoms: N_11  and  C_7 
REMARK    3  A    between atoms: C_14  and  N_11 
ROOT
ATOM      1  S   UNL d   1      32.668  18.293 -22.993  0.00  0.00     0.274 S 
ATOM      2  N   UNL d   1      32.836  19.075 -23.150  0.00  0.00    -0.192 N 
ATOM      3  C   UNL d   1      32.534  19.263 -23.899  0.00  0.00     0.275 A 
ATOM      4  C   UNL d   1      32.182  18.585 -24.190  0.00  0.00     0.069 A 
ATOM      5  C   UNL d   1      32.263  17.992 -23.637  0.00  0.00     0.109 A 
ATOM      6  O   UNL d   1      33.078  18.724 -22.420  0.00  0.00    -0.200 OA
ATOM      7  O   UNL d   1      32.621  17.555 -22.612  0.00  0.00    -0.200 OA
ATOM      8  O   UNL d   1      32.576  19.985 -24.279  0.00  0.00    -0.266 OA
ATOM      9  C   UNL d   1      31.792  18.438 -24.903  0.00  0.00     0.005 A 
ATOM     10  C   UNL d   1      31.957  17.241 -23.785  0.00  0.00     0.013 A 
ATOM     11  C   UNL d   1      31.485  17.684 -25.052  0.00  0.00     0.000 A 
ATOM     12  C   UNL d   1      31.567  17.092 -24.498  0.00  0.00     0.001 A 
ENDROOT
BRANCH   2  13
ATOM     13  C   UNL d   1      33.241  19.599 -22.650  0.00  0.00     0.157 C 
BRANCH  13  14
ATOM     14  C   UNL d   1      32.833  20.208 -22.290  0.00  0.00     0.298 C 
ATOM     15  N   UNL d   1      33.241  20.893 -22.058  0.00  0.00    -0.207 NA
ATOM     16  O   UNL d   1      32.026  20.156 -22.154  0.00  0.00    -0.264 OA
BRANCH  15  17
ATOM     17  C   UNL d   1      32.836  21.514 -21.694  0.00  0.00     0.085 A 
ATOM     18  C   UNL d   1      32.414  21.367 -21.015  0.00  0.00     0.019 A 
ATOM     19  C   UNL d   1      32.009  21.988 -20.651  0.00  0.00     0.002 A 
ATOM     20  C   UNL d   1      32.036  22.739 -20.972  0.00  0.00     0.000 A 
ATOM     21  C   UNL d   1      32.467  22.881 -21.662  0.00  0.00     0.002 A 
ATOM     22  C   UNL d   1      32.863  22.276 -22.019  0.00  0.00     0.019 A 
ENDBRANCH  15  17
ENDBRANCH  13  14
ENDBRANCH   2  13
TORSDOF 3
ENDMDL
MODEL 5
REMARK VINA RESULT:      -1.4      2.602      3.918
REMARK  3 active torsions:
REMARK  status: ('A' for Active; 'I' for Inactive)
REMARK    1  A    between atoms: C_6  and  N_2 
REMARK    2  A    between atoms: C_7  and  C_6 
REMARK       I    between atoms: N_11  and  C_7 
REMARK    3  A    between atoms: C_14  and  N_11 
ROOT
ATOM      1  S   UNL d   1      32.655  17.832 -22.979  0.00  0.00     0.274 S 
ATOM      2  N   UNL d   1      32.510  17.502 -23.710  0.00  0.00    -0.192 N 
ATOM      3  C   UNL d   1      32.621  18.084 -24.288  0.00  0.00     0.275 A 
ATOM      4  C   UNL d   1      32.836  18.770 -23.897  0.00  0.00     0.069 A 
ATOM      5  C   UNL d   1      32.857  18.616 -23.097  0.00  0.00     0.109 A 
ATOM      6  O   UNL d   1      32.439  17.036 -23.007  0.00  0.00    -0.200 OA
ATOM      7  O   UNL d   1      32.745  17.928 -22.157  0.00  0.00    -0.200 OA
ATOM      8  O   UNL d   1      32.534  17.998 -25.096  0.00  0.00    -0.266 OA
ATOM      9  C   UNL d   1      33.016  19.524 -24.181  0.00  0.00     0.005 A 
ATOM     10  C   UNL d   1      33.059  19.213 -22.565  0.00  0.00     0.013 A 
ATOM     11  C   UNL d   1      33.218  20.123 -23.647  0.00  0.00     0.000 A 
ATOM     12  C   UNL d   1      33.240  19.969 -22.847  0.00  0.00     0.001 A 
ENDROOT
BRANCH   2  13
ATOM     13  C   UNL d   1      32.287  16.715 -23.855  0.00  0.00     0.157 C 
BRANCH  13  14
ATOM     14  C   UNL d   1      31.562  16.559 -24.198  0.00  0.00     0.298 C 
ATOM     15  N   UNL d   1      30.929  16.313 -23.721  0.00  0.00    -0.207 NA
ATOM     16  O   UNL d   1      31.449  16.642 -25.005  0.00  0.00    -0.264 OA
BRANCH  15  17
ATOM     17  C   UNL d   1      30.193  16.154 -24.058  0.00  0.00     0.085 A 
ATOM     18  C   UNL d   1      30.145  15.618 -24.668  0.00  0.00     0.019 A 
ATOM     19  C   UNL d   1      29.408  15.458 -25.006  0.00  0.00     0.002 A 
ATOM     20  C   UNL d   1      28.739  15.835 -24.728  0.00  0.00     0.000 A 
ATOM     21  C   UNL d   1      28.795  16.378 -24.108  0.00  0.00     0.002 A 
ATOM     22  C   UNL d   1      29.513  16.536 -23.777  0.00  0.00     0.019 A 
ENDBRANCH  15  17
ENDBRANCH  13  14
ENDBRANCH   2  13
TORSDOF 3
ENDMDL
MODEL 6
REMARK VINA RESULT:      -1.3      3.711      5.645
REMARK  3 active torsions:
REMARK  status: ('A' for Active; 'I' for Inactive)
REMARK    1  A    between atoms: C_6  and  N_2 
REMARK    2  A    between atoms: C_7  and  C_6 
REMARK       I    between atoms: N_11  and  C_7 
REMARK    3  A    between atoms: C_14  and  N_11 
ROOT
ATOM      1  S   UNL d   1      29.110  17.126 -24.477  0.00  0.00     0.274 S 
ATOM      2  N   UNL d   1      29.835  16.772 -24.595  0.00  0.00    -0.192 N 
ATOM      3  C   UNL d   1      29.867  16.080 -24.140  0.00  0.00     0.275 A 
ATOM      4  C   UNL d   1      29.152  16.021 -23.746  0.00  0.00     0.069 A 
ATOM      5  C   UNL d   1      28.689  16.660 -23.952  0.00  0.00     0.109 A 
ATOM      6  O   UNL d   1      29.641  17.494 -24.990  0.00  0.00    -0.200 OA
ATOM      7  O   UNL d   1      28.472  17.658 -24.523  0.00  0.00    -0.200 OA
ATOM      8  O   UNL d   1      30.489  15.553 -24.089  0.00  0.00    -0.266 OA
ATOM      9  C   UNL d   1      28.867  15.454 -23.219  0.00  0.00     0.005 A 
ATOM     10  C   UNL d   1      27.933  16.744 -23.635  0.00  0.00     0.013 A 
ATOM     11  C   UNL d   1      28.108  15.538 -22.901  0.00  0.00     0.000 A 
ATOM     12  C   UNL d   1      27.645  16.176 -23.107  0.00  0.00     0.001 A 
ENDROOT
BRANCH   2  13
ATOM     13  C   UNL d   1      30.442  17.053 -25.086  0.00  0.00     0.157 C 
BRANCH  13  14
ATOM     14  C   UNL d   1      31.126  17.348 -24.751  0.00  0.00     0.298 C 
ATOM     15  N   UNL d   1      31.192  18.163 -24.607  0.00  0.00    -0.207 NA
ATOM     16  O   UNL d   1      31.749  16.853 -24.555  0.00  0.00    -0.264 OA
BRANCH  15  17
ATOM     17  C   UNL d   1      31.880  18.470 -24.269  0.00  0.00     0.085 A 
ATOM     18  C   UNL d   1      32.429  18.831 -24.748  0.00  0.00     0.019 A 
ATOM     19  C   UNL d   1      33.117  19.138 -24.409  0.00  0.00     0.002 A 
ATOM     20  C   UNL d   1      33.241  19.078 -23.604  0.00  0.00     0.000 A 
ATOM     21  C   UNL d   1      32.679  18.710 -23.124  0.00  0.00     0.002 A 
ATOM     22  C   UNL d   1      32.006  18.409 -23.452  0.00  0.00     0.019 A 
ENDBRANCH  15  17
ENDBRANCH  13  14
ENDBRANCH   2  13
TORSDOF 3
ENDMDL
