MODEL 1
REMARK VINA RESULT:      15.4      0.000      0.000
REMARK  3 active torsions:
REMARK  status: ('A' for Active; 'I' for Inactive)
REMARK    1  A    between atoms: S_10  and  C_6 
REMARK    2  A    between atoms: C_13  and  S_10 
REMARK    3  A    between atoms: C_14  and  C_13 
ROOT
ATOM      1  C   UNL d   1      14.286  12.598  -1.466  0.00  0.00     0.141 A 
ATOM      2  O   UNL d   1      14.577  12.888  -2.182  0.00  0.00    -0.303 OA
ATOM      3  C   UNL d   1      13.617  12.139  -1.627  0.00  0.00     0.110 A 
ATOM      4  C   UNL d   1      13.496  12.147  -2.441  0.00  0.00     0.043 A 
ATOM      5  C   UNL d   1      14.086  12.608  -2.788  0.00  0.00     0.102 A 
ATOM      6  C   UNL d   1      14.544  12.693  -0.694  0.00  0.00     0.137 A 
ATOM      7  N   UNL d   1      14.134  12.328  -0.071  0.00  0.00    -0.215 NA
ATOM      8  N   UNL d   1      13.214  11.779  -1.007  0.00  0.00    -0.222 NA
ATOM      9  C   UNL d   1      13.472  11.874  -0.234  0.00  0.00     0.200 A 
ATOM     10  C   UNL d   1      12.917  11.788  -2.913  0.00  0.00     0.004 A 
ATOM     11  C   UNL d   1      14.103  12.715  -3.609  0.00  0.00     0.025 A 
ATOM     12  C   UNL d   1      12.934  11.895  -3.734  0.00  0.00     0.000 A 
ATOM     13  C   UNL d   1      13.524  12.356  -4.076  0.00  0.00     0.002 A 
ENDROOT
BRANCH   6  14
ATOM     14  S   UNL d   1      15.215  13.152  -0.524  0.00  0.00    -0.065 SA
BRANCH  14  15
ATOM     15  C   UNL d   1      15.121  13.921  -0.237  0.00  0.00     0.037 C 
BRANCH  15  16
ATOM     16  C   UNL d   1      15.781  14.366  -0.024  0.00  0.00     0.007 C 
ATOM     17  C   UNL d   1      15.761  15.184  -0.113  0.00  0.00     0.001 C 
ENDBRANCH  15  16
ENDBRANCH  14  15
ENDBRANCH   6  14
TORSDOF 3
ENDMDL
