MODEL 1
REMARK VINA RESULT:      -8.4      0.000      0.000
REMARK  4 active torsions:
REMARK  status: ('A' for Active; 'I' for Inactive)
REMARK    1  A    between atoms: N_5  and  C_1 
REMARK    2  A    between atoms: C_9  and  C_4 
REMARK    3  A    between atoms: C_8  and  N_5 
REMARK    4  A    between atoms: O_12  and  C_9 
ROOT
ATOM      1  N   UNL d   1     -48.620  13.889  22.517  0.00  0.00    -0.222 NA
ENDROOT
BRANCH   1   2
ATOM      2  C   UNL d   1     -48.177  13.244  22.809  0.00  0.00     0.186 A 
ATOM      3  O   UNL d   1     -48.476  12.550  23.126  0.00  0.00    -0.255 OA
ATOM      4  C   UNL d   1     -47.878  12.056  23.349  0.00  0.00     0.301 A 
ATOM      5  O   UNL d   1     -47.966  11.294  23.696  0.00  0.00    -0.259 OA
ATOM      6  C   UNL d   1     -47.168  12.438  23.173  0.00  0.00     0.067 A 
ATOM      7  C   UNL d   1     -47.353  13.173  22.838  0.00  0.00     0.046 A 
ATOM      8  C   UNL d   1     -46.379  12.221  23.269  0.00  0.00     0.005 A 
ATOM      9  C   UNL d   1     -46.747  13.684  22.604  0.00  0.00     0.004 A 
ATOM     10  C   UNL d   1     -45.959  13.463  22.702  0.00  0.00     0.000 A 
ATOM     11  C   UNL d   1     -45.774  12.727  23.036  0.00  0.00     0.000 A 
ENDBRANCH   1   2
BRANCH   1  12
ATOM     12  C   UNL d   1     -49.391  13.790  22.170  0.00  0.00     0.089 A 
ATOM     13  C   UNL d   1     -49.936  14.346  22.229  0.00  0.00     0.081 A 
ATOM     14  C   UNL d   1     -50.678  14.240  21.890  0.00  0.00     0.007 A 
ATOM     15  C   UNL d   1     -50.838  13.528  21.483  0.00  0.00     0.000 A 
ATOM     16  C   UNL d   1     -50.253  12.953  21.430  0.00  0.00     0.002 A 
ATOM     17  C   UNL d   1     -49.523  13.073  21.771  0.00  0.00     0.019 A 
BRANCH  13  18
ATOM     18  C   UNL d   1     -49.736  15.034  22.640  0.00  0.00     0.297 C 
ATOM     19  O   UNL d   1     -49.261  15.600  22.287  0.00  0.00    -0.259 OA
BRANCH  18  20
ATOM     20  O   UNL d   1     -50.018  15.142  23.408  0.00  0.00    -0.296 OA
ATOM     21  C   UNL d   1     -50.109  15.921  23.694  0.00  0.00     0.185 C 
ENDBRANCH  18  20
ENDBRANCH  13  18
ENDBRANCH   1  12
TORSDOF 4
ENDMDL
MODEL 2
REMARK VINA RESULT:      -7.9      1.224      2.076
REMARK  4 active torsions:
REMARK  status: ('A' for Active; 'I' for Inactive)
REMARK    1  A    between atoms: N_5  and  C_1 
REMARK    2  A    between atoms: C_9  and  C_4 
REMARK    3  A    between atoms: C_8  and  N_5 
REMARK    4  A    between atoms: O_12  and  C_9 
ROOT
ATOM      1  N   UNL d   1     -48.745  13.401  22.618  0.00  0.00    -0.222 NA
ENDROOT
BRANCH   1   2
ATOM      2  C   UNL d   1     -47.928  13.333  22.777  0.00  0.00     0.186 A 
ATOM      3  O   UNL d   1     -47.356  13.906  22.647  0.00  0.00    -0.255 OA
ATOM      4  C   UNL d   1     -46.627  13.638  22.869  0.00  0.00     0.301 A 
ATOM      5  O   UNL d   1     -45.904  14.066  22.820  0.00  0.00    -0.259 OA
ATOM      6  C   UNL d   1     -46.726  12.869  23.152  0.00  0.00     0.067 A 
ATOM      7  C   UNL d   1     -47.531  12.680  23.095  0.00  0.00     0.046 A 
ATOM      8  C   UNL d   1     -46.197  12.313  23.453  0.00  0.00     0.005 A 
ATOM      9  C   UNL d   1     -47.799  11.938  23.340  0.00  0.00     0.004 A 
ATOM     10  C   UNL d   1     -47.267  11.385  23.641  0.00  0.00     0.000 A 
ATOM     11  C   UNL d   1     -46.462  11.574  23.698  0.00  0.00     0.000 A 
ENDBRANCH   1   2
BRANCH   1  12
ATOM     12  C   UNL d   1     -49.167  14.135  22.716  0.00  0.00     0.089 A 
ATOM     13  C   UNL d   1     -49.839  14.268  22.342  0.00  0.00     0.081 A 
ATOM     14  C   UNL d   1     -50.238  14.981  22.444  0.00  0.00     0.007 A 
ATOM     15  C   UNL d   1     -49.912  15.557  22.954  0.00  0.00     0.000 A 
ATOM     16  C   UNL d   1     -49.203  15.400  23.340  0.00  0.00     0.002 A 
ATOM     17  C   UNL d   1     -48.820  14.689  23.228  0.00  0.00     0.019 A 
BRANCH  13  18
ATOM     18  C   UNL d   1     -50.125  13.671  21.848  0.00  0.00     0.297 C 
ATOM     19  O   UNL d   1     -49.898  13.644  21.062  0.00  0.00    -0.259 OA
BRANCH  18  20
ATOM     20  O   UNL d   1     -50.641  13.105  22.156  0.00  0.00    -0.296 OA
ATOM     21  C   UNL d   1     -51.064  12.619  21.626  0.00  0.00     0.185 C 
ENDBRANCH  18  20
ENDBRANCH  13  18
ENDBRANCH   1  12
TORSDOF 4
ENDMDL
MODEL 3
REMARK VINA RESULT:      -7.1      0.726      3.946
REMARK  4 active torsions:
REMARK  status: ('A' for Active; 'I' for Inactive)
REMARK    1  A    between atoms: N_5  and  C_1 
REMARK    2  A    between atoms: C_9  and  C_4 
REMARK    3  A    between atoms: C_8  and  N_5 
REMARK    4  A    between atoms: O_12  and  C_9 
ROOT
ATOM      1  N   UNL d   1     -48.254  13.384  22.407  0.00  0.00    -0.222 NA
ENDROOT
BRANCH   1   2
ATOM      2  C   UNL d   1     -48.825  13.989  22.471  0.00  0.00     0.186 A 
ATOM      3  O   UNL d   1     -48.767  14.671  22.922  0.00  0.00    -0.255 OA
ATOM      4  C   UNL d   1     -49.431  15.124  22.843  0.00  0.00     0.301 A 
ATOM      5  O   UNL d   1     -49.576  15.863  23.220  0.00  0.00    -0.259 OA
ATOM      6  C   UNL d   1     -49.937  14.727  22.326  0.00  0.00     0.067 A 
ATOM      7  C   UNL d   1     -49.562  14.024  22.096  0.00  0.00     0.046 A 
ATOM      8  C   UNL d   1     -50.686  14.905  22.032  0.00  0.00     0.005 A 
ATOM      9  C   UNL d   1     -49.940  13.508  21.574  0.00  0.00     0.004 A 
ATOM     10  C   UNL d   1     -50.690  13.690  21.283  0.00  0.00     0.000 A 
ATOM     11  C   UNL d   1     -51.064  14.392  21.513  0.00  0.00     0.000 A 
ENDBRANCH   1   2
BRANCH   1  12
ATOM     12  C   UNL d   1     -47.451  13.488  22.675  0.00  0.00     0.089 A 
ATOM     13  C   UNL d   1     -47.033  12.885  22.942  0.00  0.00     0.081 A 
ATOM     14  C   UNL d   1     -46.259  12.997  23.199  0.00  0.00     0.007 A 
ATOM     15  C   UNL d   1     -45.930  13.764  23.168  0.00  0.00     0.000 A 
ATOM     16  C   UNL d   1     -46.385  14.387  22.884  0.00  0.00     0.002 A 
ATOM     17  C   UNL d   1     -47.150  14.260  22.634  0.00  0.00     0.019 A 
BRANCH  13  18
ATOM     18  C   UNL d   1     -47.397  12.144  22.955  0.00  0.00     0.297 C 
ATOM     19  O   UNL d   1     -47.499  11.724  22.260  0.00  0.00    -0.259 OA
BRANCH  18  20
ATOM     20  O   UNL d   1     -47.656  11.833  23.674  0.00  0.00    -0.296 OA
ATOM     21  C   UNL d   1     -47.917  11.041  23.698  0.00  0.00     0.185 C 
ENDBRANCH  18  20
ENDBRANCH  13  18
ENDBRANCH   1  12
TORSDOF 4
ENDMDL
MODEL 4
REMARK VINA RESULT:      -6.3      8.599     10.011
REMARK  4 active torsions:
REMARK  status: ('A' for Active; 'I' for Inactive)
REMARK    1  A    between atoms: N_5  and  C_1 
REMARK    2  A    between atoms: C_9  and  C_4 
REMARK    3  A    between atoms: C_8  and  N_5 
REMARK    4  A    between atoms: O_12  and  C_9 
ROOT
ATOM      1  N   UNL d   1     -40.147  15.104  18.645  0.00  0.00    -0.222 NA
ENDROOT
BRANCH   1   2
ATOM      2  C   UNL d   1     -39.781  15.335  19.359  0.00  0.00     0.186 A 
ATOM      3  O   UNL d   1     -38.978  15.433  19.486  0.00  0.00    -0.255 OA
ATOM      4  C   UNL d   1     -38.834  15.661  20.247  0.00  0.00     0.301 A 
ATOM      5  O   UNL d   1     -38.079  15.815  20.586  0.00  0.00    -0.259 OA
ATOM      6  C   UNL d   1     -39.564  15.714  20.628  0.00  0.00     0.067 A 
ATOM      7  C   UNL d   1     -40.151  15.513  20.078  0.00  0.00     0.046 A 
ATOM      8  C   UNL d   1     -39.779  15.918  21.397  0.00  0.00     0.005 A 
ATOM      9  C   UNL d   1     -40.946  15.516  20.302  0.00  0.00     0.004 A 
ATOM     10  C   UNL d   1     -41.156  15.720  21.073  0.00  0.00     0.000 A 
ATOM     11  C   UNL d   1     -40.570  15.922  21.623  0.00  0.00     0.000 A 
ENDBRANCH   1   2
BRANCH   1  12
ATOM     12  C   UNL d   1     -39.797  14.531  18.120  0.00  0.00     0.089 A 
ATOM     13  C   UNL d   1     -39.892  14.580  17.346  0.00  0.00     0.081 A 
ATOM     14  C   UNL d   1     -39.549  14.022  16.849  0.00  0.00     0.007 A 
ATOM     15  C   UNL d   1     -39.098  13.404  17.185  0.00  0.00     0.000 A 
ATOM     16  C   UNL d   1     -39.008  13.368  18.001  0.00  0.00     0.002 A 
ATOM     17  C   UNL d   1     -39.354  13.929  18.481  0.00  0.00     0.019 A 
BRANCH  13  18
ATOM     18  C   UNL d   1     -40.345  15.207  17.057  0.00  0.00     0.297 C 
ATOM     19  O   UNL d   1     -39.990  15.922  16.875  0.00  0.00    -0.259 OA
BRANCH  18  20
ATOM     20  O   UNL d   1     -41.158  15.104  16.954  0.00  0.00    -0.296 OA
ATOM     21  C   UNL d   1     -41.576  15.657  16.489  0.00  0.00     0.185 C 
ENDBRANCH  18  20
ENDBRANCH  13  18
ENDBRANCH   1  12
TORSDOF 4
ENDMDL
MODEL 5
REMARK VINA RESULT:      -6.3      8.312      9.833
REMARK  4 active torsions:
REMARK  status: ('A' for Active; 'I' for Inactive)
REMARK    1  A    between atoms: N_5  and  C_1 
REMARK    2  A    between atoms: C_9  and  C_4 
REMARK    3  A    between atoms: C_8  and  N_5 
REMARK    4  A    between atoms: O_12  and  C_9 
ROOT
ATOM      1  N   UNL d   1     -39.815  14.846  19.025  0.00  0.00    -0.222 NA
ENDROOT
BRANCH   1   2
ATOM      2  C   UNL d   1     -40.113  15.146  19.745  0.00  0.00     0.186 A 
ATOM      3  O   UNL d   1     -40.901  15.267  19.936  0.00  0.00    -0.255 OA
ATOM      4  C   UNL d   1     -40.972  15.565  20.683  0.00  0.00     0.301 A 
ATOM      5  O   UNL d   1     -41.692  15.760  21.073  0.00  0.00    -0.259 OA
ATOM      6  C   UNL d   1     -40.210  15.641  20.989  0.00  0.00     0.067 A 
ATOM      7  C   UNL d   1     -39.678  15.382  20.408  0.00  0.00     0.046 A 
ATOM      8  C   UNL d   1     -39.924  15.909  21.714  0.00  0.00     0.005 A 
ATOM      9  C   UNL d   1     -38.865  15.394  20.559  0.00  0.00     0.004 A 
ATOM     10  C   UNL d   1     -38.584  15.663  21.285  0.00  0.00     0.000 A 
ATOM     11  C   UNL d   1     -39.116  15.922  21.866  0.00  0.00     0.000 A 
ENDBRANCH   1   2
BRANCH   1  12
ATOM     12  C   UNL d   1     -40.165  15.040  18.273  0.00  0.00     0.089 A 
ATOM     13  C   UNL d   1     -40.027  14.607  17.638  0.00  0.00     0.081 A 
ATOM     14  C   UNL d   1     -40.370  14.805  16.917  0.00  0.00     0.007 A 
ATOM     15  C   UNL d   1     -40.868  15.474  16.876  0.00  0.00     0.000 A 
ATOM     16  C   UNL d   1     -41.003  15.919  17.554  0.00  0.00     0.002 A 
ATOM     17  C   UNL d   1     -40.655  15.710  18.261  0.00  0.00     0.019 A 
BRANCH  13  18
ATOM     18  C   UNL d   1     -39.529  13.954  17.723  0.00  0.00     0.297 C 
ATOM     19  O   UNL d   1     -39.819  13.254  18.032  0.00  0.00    -0.259 OA
BRANCH  18  20
ATOM     20  O   UNL d   1     -38.738  14.017  17.495  0.00  0.00    -0.296 OA
ATOM     21  C   UNL d   1     -38.313  13.318  17.329  0.00  0.00     0.185 C 
ENDBRANCH  18  20
ENDBRANCH  13  18
ENDBRANCH   1  12
TORSDOF 4
ENDMDL
MODEL 6
REMARK VINA RESULT:      -6.1      1.221      3.694
REMARK  4 active torsions:
REMARK  status: ('A' for Active; 'I' for Inactive)
REMARK    1  A    between atoms: N_5  and  C_1 
REMARK    2  A    between atoms: C_9  and  C_4 
REMARK    3  A    between atoms: C_8  and  N_5 
REMARK    4  A    between atoms: O_12  and  C_9 
ROOT
ATOM      1  N   UNL d   1     -47.907  13.496  22.962  0.00  0.00    -0.222 NA
ENDROOT
BRANCH   1   2
ATOM      2  C   UNL d   1     -48.638  13.653  22.592  0.00  0.00     0.186 A 
ATOM      3  O   UNL d   1     -48.996  13.206  22.005  0.00  0.00    -0.255 OA
ATOM      4  C   UNL d   1     -49.700  13.533  21.784  0.00  0.00     0.301 A 
ATOM      5  O   UNL d   1     -50.226  13.233  21.199  0.00  0.00    -0.259 OA
ATOM      6  C   UNL d   1     -49.806  14.213  22.239  0.00  0.00     0.067 A 
ATOM      7  C   UNL d   1     -49.149  14.288  22.739  0.00  0.00     0.046 A 
ATOM      8  C   UNL d   1     -50.407  14.776  22.269  0.00  0.00     0.005 A 
ATOM      9  C   UNL d   1     -49.100  14.924  23.263  0.00  0.00     0.004 A 
ATOM     10  C   UNL d   1     -49.704  15.485  23.290  0.00  0.00     0.000 A 
ATOM     11  C   UNL d   1     -50.361  15.410  22.790  0.00  0.00     0.000 A 
ENDBRANCH   1   2
BRANCH   1  12
ATOM     12  C   UNL d   1     -47.684  12.712  23.212  0.00  0.00     0.089 A 
ATOM     13  C   UNL d   1     -46.935  12.496  23.249  0.00  0.00     0.081 A 
ATOM     14  C   UNL d   1     -46.731  11.737  23.492  0.00  0.00     0.007 A 
ATOM     15  C   UNL d   1     -47.339  11.203  23.698  0.00  0.00     0.000 A 
ATOM     16  C   UNL d   1     -48.123  11.446  23.654  0.00  0.00     0.002 A 
ATOM     17  C   UNL d   1     -48.308  12.202  23.411  0.00  0.00     0.019 A 
BRANCH  13  18
ATOM     18  C   UNL d   1     -46.366  13.057  23.036  0.00  0.00     0.297 C 
ATOM     19  O   UNL d   1     -46.132  13.628  23.573  0.00  0.00    -0.259 OA
BRANCH  18  20
ATOM     20  O   UNL d   1     -46.040  13.033  22.278  0.00  0.00    -0.296 OA
ATOM     21  C   UNL d   1     -45.281  13.360  22.159  0.00  0.00     0.185 C 
ENDBRANCH  18  20
ENDBRANCH  13  18
ENDBRANCH   1  12
TORSDOF 4
ENDMDL
MODEL 7
REMARK VINA RESULT:      -5.8      8.231     10.082
REMARK  4 active torsions:
REMARK  status: ('A' for Active; 'I' for Inactive)
REMARK    1  A    between atoms: N_5  and  C_1 
REMARK    2  A    between atoms: C_9  and  C_4 
REMARK    3  A    between atoms: C_8  and  N_5 
REMARK    4  A    between atoms: O_12  and  C_9 
ROOT
ATOM      1  N   UNL d   1     -39.784  14.614  19.373  0.00  0.00    -0.222 NA
ENDROOT
BRANCH   1   2
ATOM      2  C   UNL d   1     -39.537  14.256  18.661  0.00  0.00     0.186 A 
ATOM      3  O   UNL d   1     -39.409  13.457  18.534  0.00  0.00    -0.255 OA
ATOM      4  C   UNL d   1     -39.174  13.321  17.774  0.00  0.00     0.301 A 
ATOM      5  O   UNL d   1     -38.990  12.571  17.436  0.00  0.00    -0.259 OA
ATOM      6  C   UNL d   1     -39.148  14.052  17.392  0.00  0.00     0.067 A 
ATOM      7  C   UNL d   1     -39.373  14.631  17.941  0.00  0.00     0.046 A 
ATOM      8  C   UNL d   1     -38.951  14.274  16.623  0.00  0.00     0.005 A 
ATOM      9  C   UNL d   1     -39.399  15.425  17.715  0.00  0.00     0.004 A 
ATOM     10  C   UNL d   1     -39.202  15.643  16.945  0.00  0.00     0.000 A 
ATOM     11  C   UNL d   1     -38.977  15.064  16.396  0.00  0.00     0.000 A 
ENDBRANCH   1   2
BRANCH   1  12
ATOM     12  C   UNL d   1     -39.475  14.377  20.131  0.00  0.00     0.089 A 
ATOM     13  C   UNL d   1     -39.893  14.466  20.785  0.00  0.00     0.081 A 
ATOM     14  C   UNL d   1     -39.585  14.233  21.511  0.00  0.00     0.007 A 
ATOM     15  C   UNL d   1     -38.819  13.901  21.537  0.00  0.00     0.000 A 
ATOM     16  C   UNL d   1     -38.392  13.815  20.840  0.00  0.00     0.002 A 
ATOM     17  C   UNL d   1     -38.712  14.050  20.127  0.00  0.00     0.019 A 
BRANCH  13  18
ATOM     18  C   UNL d   1     -40.646  14.799  20.713  0.00  0.00     0.297 C 
ATOM     19  O   UNL d   1     -41.294  14.321  20.567  0.00  0.00    -0.259 OA
BRANCH  18  20
ATOM     20  O   UNL d   1     -40.735  15.616  20.790  0.00  0.00    -0.296 OA
ATOM     21  C   UNL d   1     -41.494  15.921  20.954  0.00  0.00     0.185 C 
ENDBRANCH  18  20
ENDBRANCH  13  18
ENDBRANCH   1  12
TORSDOF 4
ENDMDL
MODEL 8
REMARK VINA RESULT:      -5.7      1.413      3.054
REMARK  4 active torsions:
REMARK  status: ('A' for Active; 'I' for Inactive)
REMARK    1  A    between atoms: N_5  and  C_1 
REMARK    2  A    between atoms: C_9  and  C_4 
REMARK    3  A    between atoms: C_8  and  N_5 
REMARK    4  A    between atoms: O_12  and  C_9 
ROOT
ATOM      1  N   UNL d   1     -48.232  13.496  23.139  0.00  0.00    -0.222 NA
ENDROOT
BRANCH   1   2
ATOM      2  C   UNL d   1     -48.544  12.740  23.309  0.00  0.00     0.186 A 
ATOM      3  O   UNL d   1     -48.118  12.047  23.406  0.00  0.00    -0.255 OA
ATOM      4  C   UNL d   1     -48.611  11.428  23.564  0.00  0.00     0.301 A 
ATOM      5  O   UNL d   1     -48.380  10.629  23.698  0.00  0.00    -0.259 OA
ATOM      6  C   UNL d   1     -49.381  11.725  23.570  0.00  0.00     0.067 A 
ATOM      7  C   UNL d   1     -49.339  12.537  23.412  0.00  0.00     0.046 A 
ATOM      8  C   UNL d   1     -50.115  11.371  23.697  0.00  0.00     0.005 A 
ATOM      9  C   UNL d   1     -50.031  12.988  23.382  0.00  0.00     0.004 A 
ATOM     10  C   UNL d   1     -50.763  12.630  23.509  0.00  0.00     0.000 A 
ATOM     11  C   UNL d   1     -50.805  11.817  23.668  0.00  0.00     0.000 A 
ENDBRANCH   1   2
BRANCH   1  12
ATOM     12  C   UNL d   1     -47.413  13.614  22.937  0.00  0.00     0.089 A 
ATOM     13  C   UNL d   1     -47.162  14.294  22.647  0.00  0.00     0.081 A 
ATOM     14  C   UNL d   1     -46.368  14.397  22.454  0.00  0.00     0.007 A 
ATOM     15  C   UNL d   1     -45.838  13.763  22.574  0.00  0.00     0.000 A 
ATOM     16  C   UNL d   1     -46.119  13.054  22.880  0.00  0.00     0.002 A 
ATOM     17  C   UNL d   1     -46.908  12.968  23.066  0.00  0.00     0.019 A 
BRANCH  13  18
ATOM     18  C   UNL d   1     -47.720  14.894  22.545  0.00  0.00     0.297 C 
ATOM     19  O   UNL d   1     -47.918  15.383  23.171  0.00  0.00    -0.259 OA
BRANCH  18  20
ATOM     20  O   UNL d   1     -48.075  14.995  21.806  0.00  0.00    -0.296 OA
ATOM     21  C   UNL d   1     -48.648  15.594  21.715  0.00  0.00     0.185 C 
ENDBRANCH  18  20
ENDBRANCH  13  18
ENDBRANCH   1  12
TORSDOF 4
ENDMDL
MODEL 9
REMARK VINA RESULT:      -5.6      8.682     10.240
REMARK  4 active torsions:
REMARK  status: ('A' for Active; 'I' for Inactive)
REMARK    1  A    between atoms: N_5  and  C_1 
REMARK    2  A    between atoms: C_9  and  C_4 
REMARK    3  A    between atoms: C_8  and  N_5 
REMARK    4  A    between atoms: O_12  and  C_9 
ROOT
ATOM      1  N   UNL d   1     -39.331  14.552  19.623  0.00  0.00    -0.222 NA
ENDROOT
BRANCH   1   2
ATOM      2  C   UNL d   1     -39.161  14.679  18.816  0.00  0.00     0.186 A 
ATOM      3  O   UNL d   1     -39.145  15.401  18.428  0.00  0.00    -0.255 OA
ATOM      4  C   UNL d   1     -38.959  15.302  17.648  0.00  0.00     0.301 A 
ATOM      5  O   UNL d   1     -38.890  15.914  17.073  0.00  0.00    -0.259 OA
ATOM      6  C   UNL d   1     -38.850  14.494  17.523  0.00  0.00     0.067 A 
ATOM      7  C   UNL d   1     -38.976  14.108  18.246  0.00  0.00     0.046 A 
ATOM      8  C   UNL d   1     -38.655  14.054  16.854  0.00  0.00     0.005 A 
ATOM      9  C   UNL d   1     -38.904  13.286  18.292  0.00  0.00     0.004 A 
ATOM     10  C   UNL d   1     -38.709  12.850  17.621  0.00  0.00     0.000 A 
ATOM     11  C   UNL d   1     -38.584  13.236  16.898  0.00  0.00     0.000 A 
ENDBRANCH   1   2
BRANCH   1  12
ATOM     12  C   UNL d   1     -39.909  15.016  20.044  0.00  0.00     0.089 A 
ATOM     13  C   UNL d   1     -39.898  15.067  20.823  0.00  0.00     0.081 A 
ATOM     14  C   UNL d   1     -40.460  15.518  21.219  0.00  0.00     0.007 A 
ATOM     15  C   UNL d   1     -41.042  15.920  20.774  0.00  0.00     0.000 A 
ATOM     16  C   UNL d   1     -41.039  15.855  19.955  0.00  0.00     0.002 A 
ATOM     17  C   UNL d   1     -40.475  15.404  19.577  0.00  0.00     0.019 A 
BRANCH  13  18
ATOM     18  C   UNL d   1     -39.305  14.654  21.223  0.00  0.00     0.297 C 
ATOM     19  O   UNL d   1     -38.561  14.985  21.312  0.00  0.00    -0.259 OA
BRANCH  18  20
ATOM     20  O   UNL d   1     -39.470  13.906  21.531  0.00  0.00    -0.296 OA
ATOM     21  C   UNL d   1     -38.992  13.612  22.149  0.00  0.00     0.185 C 
ENDBRANCH  18  20
ENDBRANCH  13  18
ENDBRANCH   1  12
TORSDOF 4
ENDMDL
