MODEL 1
REMARK VINA RESULT:      96.7      0.000      0.000
REMARK  10 active torsions:
REMARK  status: ('A' for Active; 'I' for Inactive)
REMARK    1  A    between atoms: C_2  and  S_1 
REMARK    2  A    between atoms: N_3  and  S_1 
REMARK    3  A    between atoms: C_19  and  N_3 
REMARK    4  A    between atoms: C_4  and  C_8 
REMARK       I    between atoms: N_14  and  C_4 
REMARK    5  A    between atoms: O_27  and  C_7 
REMARK    6  A    between atoms: O_28  and  C_11 
REMARK    7  A    between atoms: C_29  and  N_14 
REMARK    8  A    between atoms: C_22  and  C_19 
REMARK    9  A    between atoms: C_21  and  C_30 
REMARK   10  A    between atoms: C_30  and  C_29 
ROOT
ATOM      1  C   UNL d   1      61.254  47.383  50.199  0.00  0.00     0.058 A 
ATOM      2  C   UNL d   1      60.824  46.905  50.707  0.00  0.00     0.005 A 
ATOM      3  C   UNL d   1      61.830  47.040  49.705  0.00  0.00     0.005 A 
ATOM      4  C   UNL d   1      61.535  45.751  50.237  0.00  0.00     0.020 A 
ATOM      5  C   UNL d   1      60.965  46.083  50.727  0.00  0.00     0.002 A 
ATOM      6  C   UNL d   1      61.967  46.224  49.729  0.00  0.00     0.002 A 
ENDROOT
BRANCH   1   7
ATOM      7  C   UNL d   1      61.121  48.191  50.174  0.00  0.00     0.279 C 
ATOM      8  O   UNL d   1      61.608  48.674  49.709  0.00  0.00    -0.265 OA
ATOM      9  N   UNL d   1      60.506  48.521  50.607  0.00  0.00    -0.206 NA
BRANCH   9  10
ATOM     10  C   UNL d   1      60.375  49.336  50.579  0.00  0.00     0.102 C 
BRANCH  10  11
ATOM     11  C   UNL d   1      59.702  49.643  50.923  0.00  0.00     0.021 C 
BRANCH  11  12
ATOM     12  C   UNL d   1      59.005  49.650  50.506  0.00  0.00     0.004 A 
ATOM     13  C   UNL d   1      58.278  49.648  50.898  0.00  0.00     0.026 A 
ATOM     14  C   UNL d   1      57.582  49.656  50.472  0.00  0.00     0.116 A 
ATOM     15  C   UNL d   1      57.604  49.665  49.638  0.00  0.00     0.116 A 
ATOM     16  C   UNL d   1      58.318  49.667  49.249  0.00  0.00     0.026 A 
ATOM     17  C   UNL d   1      59.024  49.660  49.682  0.00  0.00     0.002 A 
BRANCH  14  18
ATOM     18  O   UNL d   1      56.858  49.653  50.867  0.00  0.00    -0.326 OA
ATOM     19  C   UNL d   1      56.671  49.289  51.638  0.00  0.00     0.181 C 
ENDBRANCH  14  18
BRANCH  15  20
ATOM     20  O   UNL d   1      56.923  49.673  49.200  0.00  0.00    -0.326 OA
ATOM     21  C   UNL d   1      56.371  49.085  49.289  0.00  0.00     0.181 C 
ENDBRANCH  15  20
ENDBRANCH  11  12
ENDBRANCH  10  11
ENDBRANCH   9  10
ENDBRANCH   1   7
BRANCH   4  22
ATOM     22  C   UNL d   1      61.672  44.935  50.261  0.00  0.00     0.112 C 
BRANCH  22  23
ATOM     23  N   UNL d   1      61.626  44.540  50.971  0.00  0.00    -0.157 NA
BRANCH  23  24
ATOM     24  S   UNL d   1      61.914  43.760  51.034  0.00  0.00     0.285 S 
ATOM     25  O   UNL d   1      61.268  43.490  50.599  0.00  0.00    -0.198 OA
ATOM     26  O   UNL d   1      62.559  44.037  51.469  0.00  0.00    -0.198 OA
BRANCH  24  27
ATOM     27  C   UNL d   1      62.205  42.998  51.100  0.00  0.00     0.105 A 
ATOM     28  C   UNL d   1      62.174  42.603  51.813  0.00  0.00     0.012 A 
ATOM     29  C   UNL d   1      62.469  41.832  51.876  0.00  0.00     0.001 A 
ATOM     30  C   UNL d   1      61.842  42.983  52.473  0.00  0.00     0.001 C 
ATOM     31  C   UNL d   1      62.798  41.456  51.216  0.00  0.00     0.000 A 
ATOM     32  C   UNL d   1      62.831  41.857  50.490  0.00  0.00     0.001 A 
ATOM     33  C   UNL d   1      62.534  42.630  50.429  0.00  0.00     0.013 A 
ATOM     34  C   UNL d   1      63.156  41.489  49.832  0.00  0.00     0.000 C 
ENDBRANCH  24  27
ENDBRANCH  23  24
ENDBRANCH  22  23
ENDBRANCH   4  22
TORSDOF 10
ENDMDL
