MODEL 1
REMARK VINA RESULT:      -2.3      0.000      0.000
REMARK  6 active torsions:
REMARK  status: ('A' for Active; 'I' for Inactive)
REMARK    1  A    between atoms: C_9  and  N_2 
REMARK       I    between atoms: N_5  and  C_6 
REMARK    2  A    between atoms: C_6  and  C_10 
REMARK    3  A    between atoms: C_11  and  N_7 
REMARK    4  A    between atoms: C_10  and  C_9 
REMARK    5  A    between atoms: C_18  and  C_11 
REMARK    6  A    between atoms: C_19  and  C_11 
ROOT
ATOM      1  N   UNL d   1      57.538  -0.759  31.060  0.00  0.00    -0.269 N 
ATOM      2  C   UNL d   1      56.960  -0.532  31.598  0.00  0.00     0.266 C 
ATOM      3  N   UNL d   1      58.711  -1.215  29.977  0.00  0.00    -0.301 N 
ATOM      4  C   UNL d   1      58.295  -0.416  31.098  0.00  0.00     0.102 A 
ATOM      5  C   UNL d   1      57.374  -1.322  30.487  0.00  0.00     0.102 A 
ATOM      6  C   UNL d   1      57.960  -1.550  29.945  0.00  0.00     0.100 A 
ATOM      7  C   UNL d   1      58.876  -0.640  30.564  0.00  0.00     0.100 A 
ATOM      8  O   UNL d   1      56.209  -0.874  31.558  0.00  0.00    -0.267 OA
ENDROOT
BRANCH   2   9
ATOM      9  C   UNL d   1      57.123   0.033  32.175  0.00  0.00     0.080 C 
BRANCH   9  10
ATOM     10  C   UNL d   1      56.525   0.515  32.467  0.00  0.00     0.090 C 
BRANCH  10  11
ATOM     11  N   UNL d   1      56.397   0.572  33.279  0.00  0.00    -0.251 N 
ATOM     12  C   UNL d   1      56.976   0.639  33.858  0.00  0.00     0.378 A 
ATOM     13  O   UNL d   1      56.541   0.674  34.555  0.00  0.00    -0.258 OA
ATOM     14  O   UNL d   1      57.791   0.663  33.727  0.00  0.00    -0.237 OA
ATOM     15  C   UNL d   1      55.788   0.637  34.463  0.00  0.00     0.121 A 
ATOM     16  C   UNL d   1      55.143   0.650  34.985  0.00  0.00     0.026 A 
ATOM     17  C   UNL d   1      55.659   0.570  33.651  0.00  0.00     0.092 A 
ATOM     18  C   UNL d   1      54.369   0.596  34.690  0.00  0.00     0.002 A 
ATOM     19  C   UNL d   1      54.253   0.529  33.875  0.00  0.00     0.002 A 
ATOM     20  C   UNL d   1      54.898   0.516  33.358  0.00  0.00     0.020 A 
ENDBRANCH  10  11
ENDBRANCH   9  10
ENDBRANCH   2   9
BRANCH   3  21
ATOM     21  C   UNL d   1      59.306  -1.435  29.440  0.00  0.00     0.064 C 
BRANCH  21  22
ATOM     22  C   UNL d   1      59.818  -0.875  29.123  0.00  0.00     0.016 A 
ATOM     23  C   UNL d   1      59.524  -0.147  28.871  0.00  0.00     0.001 A 
ATOM     24  C   UNL d   1      60.036   0.413  28.554  0.00  0.00     0.000 A 
ATOM     25  C   UNL d   1      60.842   0.245  28.488  0.00  0.00     0.000 A 
ATOM     26  C   UNL d   1      61.132  -0.482  28.739  0.00  0.00     0.000 A 
ATOM     27  C   UNL d   1      60.620  -1.042  29.057  0.00  0.00     0.001 A 
ENDBRANCH  21  22
BRANCH  21  28
ATOM     28  C   UNL d   1      59.377  -2.235  29.227  0.00  0.00     0.016 A 
ATOM     29  C   UNL d   1      59.957  -2.698  29.602  0.00  0.00     0.001 A 
ATOM     30  C   UNL d   1      60.027  -3.498  29.390  0.00  0.00     0.000 A 
ATOM     31  C   UNL d   1      59.531  -3.821  28.819  0.00  0.00     0.000 A 
ATOM     32  C   UNL d   1      58.960  -3.349  28.455  0.00  0.00     0.000 A 
ATOM     33  C   UNL d   1      58.881  -2.554  28.659  0.00  0.00     0.001 A 
ENDBRANCH  21  28
ENDBRANCH   3  21
TORSDOF 6
ENDMDL
MODEL 2
REMARK VINA RESULT:      -0.9      1.685      6.040
REMARK  6 active torsions:
REMARK  status: ('A' for Active; 'I' for Inactive)
REMARK    1  A    between atoms: C_9  and  N_2 
REMARK       I    between atoms: N_5  and  C_6 
REMARK    2  A    between atoms: C_6  and  C_10 
REMARK    3  A    between atoms: C_11  and  N_7 
REMARK    4  A    between atoms: C_10  and  C_9 
REMARK    5  A    between atoms: C_18  and  C_11 
REMARK    6  A    between atoms: C_19  and  C_11 
ROOT
ATOM      1  N   UNL d   1      57.495  -0.425  30.813  0.00  0.00    -0.269 N 
ATOM      2  C   UNL d   1      57.784  -0.588  30.062  0.00  0.00     0.266 C 
ATOM      3  N   UNL d   1      56.912  -0.100  32.333  0.00  0.00    -0.301 N 
ATOM      4  C   UNL d   1      57.439  -1.035  31.375  0.00  0.00     0.102 A 
ATOM      5  C   UNL d   1      57.262   0.336  31.012  0.00  0.00     0.102 A 
ATOM      6  C   UNL d   1      56.971   0.499  31.772  0.00  0.00     0.100 A 
ATOM      7  C   UNL d   1      57.151  -0.876  32.127  0.00  0.00     0.100 A 
ATOM      8  O   UNL d   1      57.840   0.019  29.504  0.00  0.00    -0.267 OA
ENDROOT
BRANCH   2   9
ATOM      9  C   UNL d   1      58.019  -1.352  29.860  0.00  0.00     0.080 C 
BRANCH   9  10
ATOM     10  C   UNL d   1      58.760  -1.488  29.532  0.00  0.00     0.090 C 
BRANCH  10  11
ATOM     11  N   UNL d   1      58.948  -2.228  29.224  0.00  0.00    -0.251 N 
ATOM     12  C   UNL d   1      58.413  -2.813  29.004  0.00  0.00     0.378 A 
ATOM     13  O   UNL d   1      58.900  -3.422  28.740  0.00  0.00    -0.258 OA
ATOM     14  O   UNL d   1      57.592  -2.760  29.054  0.00  0.00    -0.237 OA
ATOM     15  C   UNL d   1      59.644  -3.273  28.775  0.00  0.00     0.121 A 
ATOM     16  C   UNL d   1      60.326  -3.702  28.577  0.00  0.00     0.026 A 
ATOM     17  C   UNL d   1      59.711  -2.511  29.083  0.00  0.00     0.092 A 
ATOM     18  C   UNL d   1      61.076  -3.365  28.689  0.00  0.00     0.002 A 
ATOM     19  C   UNL d   1      61.131  -2.601  28.998  0.00  0.00     0.002 A 
ATOM     20  C   UNL d   1      60.449  -2.177  29.194  0.00  0.00     0.020 A 
ENDBRANCH  10  11
ENDBRANCH   9  10
ENDBRANCH   2   9
BRANCH   3  21
ATOM     21  C   UNL d   1      56.621   0.051  33.098  0.00  0.00     0.064 C 
BRANCH  21  22
ATOM     22  C   UNL d   1      57.129   0.256  33.711  0.00  0.00     0.016 A 
ATOM     23  C   UNL d   1      56.821   0.455  34.449  0.00  0.00     0.001 A 
ATOM     24  C   UNL d   1      57.330   0.660  35.062  0.00  0.00     0.000 A 
ATOM     25  C   UNL d   1      58.146   0.668  34.936  0.00  0.00     0.000 A 
ATOM     26  C   UNL d   1      58.450   0.470  34.198  0.00  0.00     0.000 A 
ATOM     27  C   UNL d   1      57.941   0.264  33.586  0.00  0.00     0.001 A 
ENDBRANCH  21  22
BRANCH  21  28
ATOM     28  C   UNL d   1      55.804  -0.011  33.234  0.00  0.00     0.016 A 
ATOM     29  C   UNL d   1      55.344   0.681  33.222  0.00  0.00     0.001 A 
ATOM     30  C   UNL d   1      54.527   0.620  33.358  0.00  0.00     0.000 A 
ATOM     31  C   UNL d   1      54.184  -0.114  33.501  0.00  0.00     0.000 A 
ATOM     32  C   UNL d   1      54.654  -0.793  33.510  0.00  0.00     0.000 A 
ATOM     33  C   UNL d   1      55.466  -0.743  33.376  0.00  0.00     0.001 A 
ENDBRANCH  21  28
ENDBRANCH   3  21
TORSDOF 6
ENDMDL
