MODEL 1
REMARK VINA RESULT:       3.6      0.000      0.000
REMARK  4 active torsions:
REMARK  status: ('A' for Active; 'I' for Inactive)
REMARK    1  A    between atoms: N_6  and  C_1 
REMARK       I    between atoms: C_9  and  N_6 
REMARK    2  A    between atoms: C_15  and  C_9 
REMARK    3  A    between atoms: C_13  and  C_16 
REMARK    4  A    between atoms: C_19  and  C_13 
ROOT
ATOM      1  C   UNL d   1     -41.494-122.321 -52.883  0.00  0.00     0.123 A 
ATOM      2  C   UNL d   1     -41.694-121.698 -53.386  0.00  0.00     0.092 A 
ATOM      3  C   UNL d   1     -41.665-121.980 -54.156  0.00  0.00     0.013 A 
ATOM      4  C   UNL d   1     -41.451-122.766 -54.137  0.00  0.00     0.029 A 
ATOM      5  S   UNL d   1     -41.343-122.987 -53.347  0.00  0.00    -0.070 SA
ATOM      6  C   UNL d   1     -41.377-123.200 -54.842  0.00  0.00     0.104 A 
ATOM      7  N   UNL d   1     -41.521-122.831 -55.563  0.00  0.00    -0.294 NA
ATOM      8  C   UNL d   1     -41.884-120.938 -53.145  0.00  0.00     0.103 C 
ATOM      9  C   UNL d   1     -41.738-122.033 -55.582  0.00  0.00     0.099 A 
ATOM     10  C   UNL d   1     -41.811-121.604 -54.878  0.00  0.00    -0.004 A 
ATOM     11  N   UNL d   1     -42.074-120.183 -52.911  0.00  0.00    -0.191 NA
ATOM     12  C   UNL d   1     -41.195-123.739 -54.245  0.00  0.00     0.029 C 
ATOM     13  C   UNL d   1     -41.255-123.782 -55.417  0.00  0.00     0.029 C 
ATOM     14  C   UNL d   1     -41.667-122.455 -56.286  0.00  0.00     0.029 C 
ATOM     15  C   UNL d   1     -41.955-121.235 -55.600  0.00  0.00     0.029 C 
ENDROOT
BRANCH   1  16
ATOM     16  N   UNL d   1     -41.452-122.291 -52.057  0.00  0.00    -0.201 NA
ATOM     17  C   UNL d   1     -41.906-122.806 -51.601  0.00  0.00     0.280 C 
ATOM     18  O   UNL d   1     -42.403-123.353 -51.961  0.00  0.00    -0.265 OA
BRANCH  17  19
ATOM     19  C   UNL d   1     -41.864-122.776 -50.787  0.00  0.00     0.058 A 
ATOM     20  C   UNL d   1     -41.753-123.469 -50.353  0.00  0.00     0.005 A 
ATOM     21  C   UNL d   1     -41.710-123.439 -49.526  0.00  0.00     0.003 A 
ATOM     22  C   UNL d   1     -41.779-122.715 -49.136  0.00  0.00     0.039 A 
ATOM     23  C   UNL d   1     -41.889-122.034 -49.569  0.00  0.00     0.003 A 
ATOM     24  C   UNL d   1     -41.931-122.065 -50.395  0.00  0.00     0.005 A 
BRANCH  22  25
ATOM     25  C   UNL d   1     -41.736-122.689 -48.313  0.00  0.00     0.196 C 
ATOM     26  O   UNL d   1     -41.123-122.289 -47.947  0.00  0.00    -0.287 OA
BRANCH  25  27
ATOM     27  C   UNL d   1     -42.310-123.065 -47.862  0.00  0.00     0.039 A 
ATOM     28  C   UNL d   1     -42.123-123.399 -47.140  0.00  0.00     0.003 A 
ATOM     29  C   UNL d   1     -42.697-123.776 -46.689  0.00  0.00     0.000 A 
ATOM     30  C   UNL d   1     -43.474-123.817 -46.969  0.00  0.00     0.000 A 
ATOM     31  C   UNL d   1     -43.669-123.481 -47.699  0.00  0.00     0.000 A 
ATOM     32  C   UNL d   1     -43.087-123.106 -48.143  0.00  0.00     0.003 A 
ENDBRANCH  25  27
ENDBRANCH  22  25
ENDBRANCH  17  19
ENDBRANCH   1  16
TORSDOF 4
ENDMDL
