MODEL 1
REMARK VINA RESULT:       6.6      0.000      0.000
REMARK  8 active torsions:
REMARK  status: ('A' for Active; 'I' for Inactive)
REMARK    1  A    between atoms: C_4  and  N_1 
REMARK    2  A    between atoms: C_10  and  C_2 
REMARK    3  A    between atoms: N_14  and  C_4 
REMARK    4  A    between atoms: O_17  and  C_8 
REMARK    5  A    between atoms: O_15  and  C_10 
REMARK    6  A    between atoms: O_18  and  C_11 
REMARK    7  A    between atoms: C_16  and  O_15 
REMARK    8  A    between atoms: C_25  and  C_19 
ROOT
ATOM      1  N   UNL d   1     -41.516-120.639 -52.378  0.00  0.00    -0.280 N 
ATOM      2  C   UNL d   1     -41.451-121.439 -52.568  0.00  0.00     0.091 A 
ATOM      3  C   UNL d   1     -41.711-121.706 -53.294  0.00  0.00     0.020 A 
ATOM      4  C   UNL d   1     -42.039-121.179 -53.838  0.00  0.00     0.005 A 
ATOM      5  C   UNL d   1     -41.645-122.503 -53.482  0.00  0.00     0.028 A 
ATOM      6  C   UNL d   1     -41.844-120.112 -52.921  0.00  0.00     0.082 A 
ATOM      7  C   UNL d   1     -41.907-122.777 -54.215  0.00  0.00     0.116 A 
ATOM      8  C   UNL d   1     -42.300-121.449 -54.569  0.00  0.00     0.026 A 
ATOM      9  C   UNL d   1     -42.234-122.250 -54.759  0.00  0.00     0.116 A 
ATOM     10  C   UNL d   1     -42.106-120.385 -53.655  0.00  0.00     0.019 A 
ENDROOT
BRANCH   2  11
ATOM     11  C   UNL d   1     -41.124-121.966 -52.024  0.00  0.00     0.140 C 
BRANCH  11  12
ATOM     12  O   UNL d   1     -41.470-122.707 -51.907  0.00  0.00    -0.304 OA
BRANCH  12  13
ATOM     13  C   UNL d   1     -41.681-122.948 -51.147  0.00  0.00     0.100 A 
ATOM     14  C   UNL d   1     -41.278-123.569 -50.784  0.00  0.00     0.025 A 
ATOM     15  C   UNL d   1     -41.490-123.810 -50.024  0.00  0.00     0.002 A 
ATOM     16  C   UNL d   1     -42.105-123.429 -49.627  0.00  0.00     0.000 A 
ATOM     17  C   UNL d   1     -42.509-122.807 -49.990  0.00  0.00     0.002 A 
ATOM     18  C   UNL d   1     -42.297-122.566 -50.750  0.00  0.00     0.025 A 
BRANCH  16  19
ATOM     19  C   UNL d   1     -42.317-123.670 -48.867  0.00  0.00     0.000 C 
ATOM     20  C   UNL d   1     -42.150-123.190 -48.221  0.00  0.00     0.000 C 
ENDBRANCH  16  19
ENDBRANCH  12  13
ENDBRANCH  11  12
ENDBRANCH   2  11
BRANCH   1  21
ATOM     21  C   UNL d   1     -41.254-120.358 -51.639  0.00  0.00     0.206 C 
ATOM     22  S   UNL d   1     -41.125-120.897 -51.015  0.00  0.00    -0.038 SA
BRANCH  21  23
ATOM     23  N   UNL d   1     -41.123-119.559 -51.527  0.00  0.00    -0.215 NA
ATOM     24  C   UNL d   1     -41.201-119.226 -50.776  0.00  0.00     0.122 C 
ENDBRANCH  21  23
ENDBRANCH   1  21
BRANCH   7  25
ATOM     25  O   UNL d   1     -41.842-123.581 -54.408  0.00  0.00    -0.326 OA
ATOM     26  C   UNL d   1     -41.552-123.816 -55.153  0.00  0.00     0.181 C 
ENDBRANCH   7  25
BRANCH   9  27
ATOM     27  O   UNL d   1     -42.497-122.527 -55.496  0.00  0.00    -0.326 OA
ATOM     28  C   UNL d   1     -42.677-121.992 -56.109  0.00  0.00     0.181 C 
ENDBRANCH   9  27
TORSDOF 8
ENDMDL
