MODEL 1
REMARK VINA RESULT:      34.9      0.000      0.000
REMARK  3 active torsions:
REMARK  status: ('A' for Active; 'I' for Inactive)
REMARK    1  A    between atoms: C_4  and  C_1 
REMARK    2  A    between atoms: N_7  and  C_4 
REMARK    3  A    between atoms: C_9  and  N_7 
ROOT
ATOM      1  C   UNL d   1     -51.589  25.718  33.323  0.00  0.00     0.139 A 
ATOM      2  N   UNL d   1     -51.258  24.978  33.346  0.00  0.00    -0.236 NA
ATOM      3  S   UNL d   1     -52.406  25.650  33.306  0.00  0.00    -0.064 SA
ATOM      4  C   UNL d   1     -51.879  24.421  33.344  0.00  0.00     0.088 A 
ATOM      5  C   UNL d   1     -52.588  24.838  33.319  0.00  0.00     0.049 A 
ATOM      6  C   UNL d   1     -51.885  23.596  33.361  0.00  0.00     0.020 A 
ATOM      7  C   UNL d   1     -53.312  24.432  33.311  0.00  0.00     0.008 A 
ATOM      8  C   UNL d   1     -53.319  23.607  33.328  0.00  0.00     0.001 A 
ATOM      9  C   UNL d   1     -52.602  23.189  33.353  0.00  0.00     0.002 A 
ENDROOT
BRANCH   1  10
ATOM     10  C   UNL d   1     -51.158  26.427  33.318  0.00  0.00     0.159 C 
ATOM     11  S   UNL d   1     -51.552  27.155  33.324  0.00  0.00    -0.055 SA
BRANCH  10  12
ATOM     12  N   UNL d   1     -50.333  26.408  33.307  0.00  0.00    -0.233 NA
BRANCH  12  13
ATOM     13  C   UNL d   1     -49.900  26.994  33.702  0.00  0.00     0.082 A 
ATOM     14  C   UNL d   1     -49.249  26.774  34.157  0.00  0.00     0.019 A 
ATOM     15  C   UNL d   1     -48.812  27.349  34.552  0.00  0.00     0.002 A 
ATOM     16  C   UNL d   1     -49.029  28.143  34.491  0.00  0.00     0.000 A 
ATOM     17  C   UNL d   1     -49.685  28.360  34.031  0.00  0.00     0.002 A 
ATOM     18  C   UNL d   1     -50.122  27.786  33.636  0.00  0.00     0.019 A 
ENDBRANCH  12  13
ENDBRANCH  10  12
ENDBRANCH   1  10
TORSDOF 3
ENDMDL
