MODEL 1
REMARK VINA RESULT:     104.3      0.000      0.000
REMARK  4 active torsions:
REMARK  status: ('A' for Active; 'I' for Inactive)
REMARK    1  A    between atoms: C_7  and  C_1 
REMARK    2  A    between atoms: S_4  and  O_12 
REMARK    3  A    between atoms: O_12  and  C_10 
REMARK    4  A    between atoms: C_25  and  C_13 
ROOT
ATOM      1  C   UNL d   1      61.223  46.151  50.613  0.00  0.00     0.064 A 
ATOM      2  C   UNL d   1      61.073  47.566  50.552  0.00  0.00     0.062 A 
ATOM      3  C   UNL d   1      61.316  46.861  50.208  0.00  0.00     0.199 A 
ATOM      4  C   UNL d   1      60.881  46.145  51.373  0.00  0.00     0.126 A 
ATOM      5  C   UNL d   1      60.735  47.565  51.305  0.00  0.00     0.105 A 
ATOM      6  O   UNL d   1      60.635  46.862  51.720  0.00  0.00    -0.305 OA
ATOM      7  C   UNL d   1      61.166  48.277  50.151  0.00  0.00     0.007 A 
ATOM      8  C   UNL d   1      60.584  48.977  51.247  0.00  0.00     0.115 A 
ATOM      9  C   UNL d   1      60.491  48.265  51.652  0.00  0.00     0.050 A 
ATOM     10  C   UNL d   1      60.922  48.982  50.495  0.00  0.00     0.024 A 
ATOM     11  O   UNL d   1      61.651  46.866  49.464  0.00  0.00    -0.286 OA
ENDROOT
BRANCH   1  12
ATOM     12  C   UNL d   1      61.467  45.445  50.265  0.00  0.00     0.007 A 
ATOM     13  C   UNL d   1      61.702  44.815  50.748  0.00  0.00     0.027 A 
ATOM     14  C   UNL d   1      61.946  44.110  50.401  0.00  0.00     0.123 A 
ATOM     15  O   UNL d   1      62.183  43.472  50.888  0.00  0.00    -0.301 OA
ATOM     16  C   UNL d   1      61.957  44.035  49.571  0.00  0.00     0.123 A 
ATOM     17  C   UNL d   1      62.429  42.762  50.528  0.00  0.00     0.149 A 
ATOM     18  C   UNL d   1      62.440  42.688  49.707  0.00  0.00     0.149 A 
ATOM     19  O   UNL d   1      62.205  43.322  49.224  0.00  0.00    -0.301 OA
ATOM     20  C   UNL d   1      61.725  44.660  49.105  0.00  0.00     0.027 A 
ATOM     21  C   UNL d   1      61.478  45.371  49.445  0.00  0.00     0.002 A 
ENDBRANCH   1  12
BRANCH  10  22
ATOM     22  C   UNL d   1      61.016  49.693  50.090  0.00  0.00     0.002 C 
ATOM     23  C   UNL d   1      61.008  49.708  49.265  0.00  0.00     0.000 C 
ENDBRANCH  10  22
BRANCH   8  24
ATOM     24  O   UNL d   1      60.340  49.681  51.594  0.00  0.00    -0.230 OA
BRANCH  24  25
ATOM     25  S   UNL d   1      60.115  49.695  52.388  0.00  0.00     0.285 S 
ATOM     26  O   UNL d   1      60.907  49.701  52.618  0.00  0.00    -0.197 OA
ATOM     27  O   UNL d   1      59.321  49.688  52.163  0.00  0.00    -0.197 OA
ATOM     28  C   UNL d   1      59.885  49.708  53.180  0.00  0.00     0.172 C 
ENDBRANCH  24  25
ENDBRANCH   8  24
TORSDOF 4
ENDMDL
