MODEL 1
REMARK VINA RESULT:      -3.1      0.000      0.000
REMARK  4 active torsions:
REMARK  status: ('A' for Active; 'I' for Inactive)
REMARK    1  A    between atoms: C_6  and  C_1 
REMARK    2  A    between atoms: C_8  and  N_3 
REMARK    3  A    between atoms: C_9  and  C_6 
REMARK    4  A    between atoms: N_7  and  C_9 
ROOT
ATOM      1  C   UNL d   1      33.079  19.989 -22.300  0.00  0.00     0.058 A 
ATOM      2  C   UNL d   1      32.878  20.326 -21.594  0.00  0.00     0.067 A 
ATOM      3  N   UNL d   1      32.911  21.132 -21.653  0.00  0.00    -0.306 N 
ATOM      4  C   UNL d   1      33.135  21.270 -22.406  0.00  0.00     0.064 A 
ATOM      5  C   UNL d   1      33.238  20.526 -22.805  0.00  0.00     0.022 A 
ATOM      6  C   UNL d   1      32.671  19.899 -20.920  0.00  0.00     0.019 C 
ATOM      7  C   UNL d   1      33.240  21.989 -22.712  0.00  0.00     0.019 C 
ENDROOT
BRANCH   1   8
ATOM      8  C   UNL d   1      33.116  19.155 -22.483  0.00  0.00     0.214 C 
ATOM      9  O   UNL d   1      33.240  18.614 -21.904  0.00  0.00    -0.285 OA
BRANCH   8  10
ATOM     10  C   UNL d   1      33.023  18.848 -23.290  0.00  0.00     0.123 C 
BRANCH  10  11
ATOM     11  N   UNL d   1      32.633  18.141 -23.465  0.00  0.00    -0.300 N 
ATOM     12  C   UNL d   1      31.858  18.111 -23.716  0.00  0.00     0.080 A 
ATOM     13  C   UNL d   1      31.450  17.360 -23.900  0.00  0.00     0.019 A 
ATOM     14  C   UNL d   1      31.842  16.712 -23.819  0.00  0.00     0.003 A 
ATOM     15  C   UNL d   1      32.642  16.726 -23.560  0.00  0.00     0.019 A 
ATOM     16  C   UNL d   1      31.435  15.989 -24.000  0.00  0.00     0.000 C 
ATOM     17  C   UNL d   1      33.038  17.434 -23.384  0.00  0.00     0.080 A 
ENDBRANCH  10  11
ENDBRANCH   8  10
ENDBRANCH   1   8
BRANCH   3  18
ATOM     18  C   UNL d   1      32.769  21.764 -21.126  0.00  0.00     0.064 A 
ATOM     19  C   UNL d   1      32.177  22.270 -21.207  0.00  0.00     0.020 A 
ATOM     20  C   UNL d   1      32.029  22.930 -20.655  0.00  0.00     0.031 A 
ATOM     21  C   UNL d   1      32.507  23.029 -20.047  0.00  0.00     0.140 A 
ATOM     22  C   UNL d   1      33.128  22.524 -19.933  0.00  0.00     0.031 A 
ATOM     23  F   UNL d   1      32.363  23.687 -19.493  0.00  0.00    -0.204 F 
ATOM     24  C   UNL d   1      33.240  21.900 -20.483  0.00  0.00     0.020 A 
ENDBRANCH   3  18
TORSDOF 4
ENDMDL
MODEL 2
REMARK VINA RESULT:      -0.9      2.254      3.880
REMARK  4 active torsions:
REMARK  status: ('A' for Active; 'I' for Inactive)
REMARK    1  A    between atoms: C_6  and  C_1 
REMARK    2  A    between atoms: C_8  and  N_3 
REMARK    3  A    between atoms: C_9  and  C_6 
REMARK    4  A    between atoms: N_7  and  C_9 
ROOT
ATOM      1  C   UNL d   1      31.880  16.845 -23.878  0.00  0.00     0.058 A 
ATOM      2  C   UNL d   1      31.859  17.644 -23.999  0.00  0.00     0.067 A 
ATOM      3  N   UNL d   1      32.373  18.014 -23.496  0.00  0.00    -0.306 N 
ATOM      4  C   UNL d   1      32.701  17.423 -23.072  0.00  0.00     0.064 A 
ATOM      5  C   UNL d   1      32.373  16.682 -23.331  0.00  0.00     0.022 A 
ATOM      6  C   UNL d   1      31.379  18.015 -24.558  0.00  0.00     0.019 C 
ATOM      7  C   UNL d   1      33.241  17.529 -22.508  0.00  0.00     0.019 C 
ENDROOT
BRANCH   1   8
ATOM      8  C   UNL d   1      31.427  16.248 -24.288  0.00  0.00     0.214 C 
ATOM      9  O   UNL d   1      31.411  16.225 -25.090  0.00  0.00    -0.285 OA
BRANCH   8  10
ATOM     10  C   UNL d   1      30.967  15.642 -23.871  0.00  0.00     0.123 C 
BRANCH  10  11
ATOM     11  N   UNL d   1      30.140  15.632 -23.852  0.00  0.00    -0.300 N 
ATOM     12  C   UNL d   1      29.682  15.561 -24.523  0.00  0.00     0.080 A 
ATOM     13  C   UNL d   1      28.808  15.552 -24.499  0.00  0.00     0.019 A 
ATOM     14  C   UNL d   1      28.470  15.613 -23.820  0.00  0.00     0.003 A 
ATOM     15  C   UNL d   1      28.929  15.687 -23.118  0.00  0.00     0.019 A 
ATOM     16  C   UNL d   1      27.620  15.602 -23.809  0.00  0.00     0.000 C 
ATOM     17  C   UNL d   1      29.758  15.697 -23.131  0.00  0.00     0.080 A 
ENDBRANCH  10  11
ENDBRANCH   8  10
ENDBRANCH   1   8
BRANCH   3  18
ATOM     18  C   UNL d   1      32.591  18.808 -23.361  0.00  0.00     0.064 A 
ATOM     19  C   UNL d   1      32.976  19.247 -23.884  0.00  0.00     0.020 A 
ATOM     20  C   UNL d   1      33.203  20.077 -23.742  0.00  0.00     0.031 A 
ATOM     21  C   UNL d   1      33.016  20.409 -23.062  0.00  0.00     0.140 A 
ATOM     22  C   UNL d   1      32.618  19.987 -22.499  0.00  0.00     0.031 A 
ATOM     23  F   UNL d   1      33.241  21.239 -22.916  0.00  0.00    -0.204 F 
ATOM     24  C   UNL d   1      32.416  19.190 -22.670  0.00  0.00     0.020 A 
ENDBRANCH   3  18
TORSDOF 4
ENDMDL
