MODEL 1
REMARK VINA RESULT:      86.1      0.000      0.000
REMARK  5 active torsions:
REMARK  status: ('A' for Active; 'I' for Inactive)
REMARK    1  A    between atoms: N_7  and  C_1 
REMARK    2  A    between atoms: C_14  and  N_4 
REMARK    3  A    between atoms: C_6  and  N_7 
REMARK    4  A    between atoms: C_13  and  N_8 
REMARK    5  A    between atoms: C_17  and  C_13 
ROOT
ATOM      1  C   UNL d   1     -55.791-100.056 -43.529  0.00  0.00     0.159 A 
ATOM      2  C   UNL d   1     -56.568 -99.819 -43.400  0.00  0.00     0.298 A 
ATOM      3  N   UNL d   1     -56.311 -99.689 -44.690  0.00  0.00    -0.238 N 
ATOM      4  N   UNL d   1     -56.889 -99.592 -44.120  0.00  0.00    -0.209 N 
ATOM      5  C   UNL d   1     -55.632 -99.974 -44.330  0.00  0.00     0.104 A 
ATOM      6  O   UNL d   1     -56.956 -99.812 -42.673  0.00  0.00    -0.263 OA
ATOM      7  C   UNL d   1     -56.393 -99.527 -45.495  0.00  0.00     0.120 C 
ATOM      8  C   UNL d   1     -54.922-100.148 -44.701  0.00  0.00     0.022 C 
ENDROOT
BRANCH   1   9
ATOM      9  N   UNL d   1     -55.269-100.325 -42.955  0.00  0.00    -0.216 NA
BRANCH   9  10
ATOM     10  C   UNL d   1     -55.182-101.135 -42.824  0.00  0.00     0.180 A 
ATOM     11  N   UNL d   1     -54.931-101.491 -42.127  0.00  0.00    -0.285 N 
ATOM     12  C   UNL d   1     -54.928-102.304 -42.247  0.00  0.00     0.072 A 
ATOM     13  C   UNL d   1     -54.711-102.872 -41.687  0.00  0.00     0.020 C 
ATOM     14  C   UNL d   1     -55.174-102.452 -43.012  0.00  0.00     0.056 A 
ATOM     15  S   UNL d   1     -55.333-101.731 -43.376  0.00  0.00    -0.048 SA
BRANCH  11  16
ATOM     16  C   UNL d   1     -54.722-101.107 -41.434  0.00  0.00     0.082 C 
BRANCH  16  17
ATOM     17  C   UNL d   1     -54.833-101.475 -40.696  0.00  0.00     0.018 A 
ATOM     18  C   UNL d   1     -54.713-102.274 -40.513  0.00  0.00     0.002 A 
ATOM     19  C   UNL d   1     -54.851-102.558 -39.734  0.00  0.00     0.000 A 
ATOM     20  C   UNL d   1     -55.111-102.028 -39.143  0.00  0.00     0.000 A 
ATOM     21  C   UNL d   1     -55.232-101.219 -39.327  0.00  0.00     0.000 A 
ATOM     22  C   UNL d   1     -55.094-100.940 -40.103  0.00  0.00     0.002 A 
ENDBRANCH  16  17
ENDBRANCH  11  16
ENDBRANCH   9  10
ENDBRANCH   1   9
BRANCH   4  23
ATOM     23  C   UNL d   1     -57.655 -99.317 -44.245  0.00  0.00     0.085 A 
ATOM     24  C   UNL d   1     -57.905 -99.133 -45.002  0.00  0.00     0.019 A 
ATOM     25  C   UNL d   1     -58.669 -98.859 -45.125  0.00  0.00     0.002 A 
ATOM     26  C   UNL d   1     -59.190 -98.765 -44.494  0.00  0.00     0.000 A 
ATOM     27  C   UNL d   1     -58.936 -98.951 -43.729  0.00  0.00     0.002 A 
ATOM     28  C   UNL d   1     -58.169 -99.227 -43.604  0.00  0.00     0.019 A 
ENDBRANCH   4  23
TORSDOF 5
ENDMDL
