MODEL 1
REMARK VINA RESULT:      77.8      0.000      0.000
REMARK  8 active torsions:
REMARK  status: ('A' for Active; 'I' for Inactive)
REMARK    1  A    between atoms: C_3  and  C_1 
REMARK    2  A    between atoms: N_4  and  C_2 
REMARK    3  A    between atoms: O_21  and  C_3 
REMARK       I    between atoms: C_11  and  N_4 
REMARK    4  A    between atoms: C_6  and  C_7 
REMARK    5  A    between atoms: O_22  and  C_6 
REMARK    6  A    between atoms: C_10  and  C_20 
REMARK    7  A    between atoms: C_19  and  C_11 
REMARK    8  A    between atoms: C_20  and  C_19 
ROOT
ATOM      1  C   UNL d   1      61.201  47.513  50.819  0.00  0.00     0.081 A 
ATOM      2  C   UNL d   1      60.810  48.224  50.960  0.00  0.00     0.090 A 
ATOM      3  C   UNL d   1      61.745  48.553  51.981  0.00  0.00     0.065 A 
ATOM      4  C   UNL d   1      61.077  48.745  51.537  0.00  0.00     0.025 A 
ATOM      5  C   UNL d   1      61.869  47.322  51.263  0.00  0.00     0.007 A 
ATOM      6  C   UNL d   1      62.141  47.842  51.844  0.00  0.00     0.006 A 
ENDROOT
BRANCH   2   7
ATOM      7  N   UNL d   1      60.144  48.411  50.514  0.00  0.00    -0.208 NA
ATOM      8  C   UNL d   1      59.697  49.083  50.703  0.00  0.00     0.279 C 
ATOM      9  O   UNL d   1      59.925  49.560  51.338  0.00  0.00    -0.265 OA
BRANCH   8  10
ATOM     10  C   UNL d   1      59.032  49.271  50.260  0.00  0.00     0.065 C 
BRANCH  10  11
ATOM     11  C   UNL d   1      58.382  48.756  50.251  0.00  0.00     0.030 C 
BRANCH  11  12
ATOM     12  C   UNL d   1      57.631  49.047  50.089  0.00  0.00     0.100 A 
ATOM     13  O   UNL d   1      57.317  49.201  49.341  0.00  0.00    -0.307 OA
ATOM     14  C   UNL d   1      56.559  49.482  49.442  0.00  0.00     0.100 A 
ATOM     15  C   UNL d   1      56.042  49.705  48.838  0.00  0.00     0.027 C 
ATOM     16  C   UNL d   1      56.391  49.508  50.244  0.00  0.00     0.027 A 
ATOM     17  C   UNL d   1      57.045  49.242  50.647  0.00  0.00     0.027 A 
ENDBRANCH  11  12
ENDBRANCH  10  11
ENDBRANCH   8  10
ENDBRANCH   2   7
BRANCH   1  18
ATOM     18  C   UNL d   1      60.924  47.000  50.238  0.00  0.00     0.297 C 
ATOM     19  O   UNL d   1      60.284  47.209  49.771  0.00  0.00    -0.259 OA
BRANCH  18  20
ATOM     20  O   UNL d   1      61.292  46.270  50.125  0.00  0.00    -0.296 OA
ATOM     21  C   UNL d   1      61.950  46.216  49.625  0.00  0.00     0.185 C 
ENDBRANCH  18  20
ENDBRANCH   1  18
BRANCH   3  22
ATOM     22  C   UNL d   1      62.017  49.073  52.562  0.00  0.00     0.296 C 
ATOM     23  O   UNL d   1      62.510  49.704  52.360  0.00  0.00    -0.259 OA
BRANCH  22  24
ATOM     24  O   UNL d   1      61.798  48.964  53.351  0.00  0.00    -0.296 OA
ATOM     25  C   UNL d   1      61.522  49.601  53.797  0.00  0.00     0.185 C 
ENDBRANCH  22  24
ENDBRANCH   3  22
TORSDOF 8
ENDMDL
MODEL 2
REMARK VINA RESULT:      78.0      1.369      4.032
REMARK  8 active torsions:
REMARK  status: ('A' for Active; 'I' for Inactive)
REMARK    1  A    between atoms: C_3  and  C_1 
REMARK    2  A    between atoms: N_4  and  C_2 
REMARK    3  A    between atoms: O_21  and  C_3 
REMARK       I    between atoms: C_11  and  N_4 
REMARK    4  A    between atoms: C_6  and  C_7 
REMARK    5  A    between atoms: O_22  and  C_6 
REMARK    6  A    between atoms: C_10  and  C_20 
REMARK    7  A    between atoms: C_19  and  C_11 
REMARK    8  A    between atoms: C_20  and  C_19 
ROOT
ATOM      1  C   UNL d   1      59.070  48.947  51.116  0.00  0.00     0.081 A 
ATOM      2  C   UNL d   1      59.822  48.626  51.009  0.00  0.00     0.090 A 
ATOM      3  C   UNL d   1      60.309  49.358  52.128  0.00  0.00     0.065 A 
ATOM      4  C   UNL d   1      60.440  48.828  51.511  0.00  0.00     0.025 A 
ATOM      5  C   UNL d   1      58.938  49.477  51.734  0.00  0.00     0.007 A 
ATOM      6  C   UNL d   1      59.558  49.683  52.240  0.00  0.00     0.006 A 
ENDROOT
BRANCH   2   7
ATOM      7  N   UNL d   1      59.948  48.098  50.392  0.00  0.00    -0.208 NA
ATOM      8  C   UNL d   1      60.697  47.758  50.286  0.00  0.00     0.279 C 
ATOM      9  O   UNL d   1      61.311  47.955  50.805  0.00  0.00    -0.265 OA
BRANCH   8  10
ATOM     10  C   UNL d   1      60.826  47.231  49.671  0.00  0.00     0.065 C 
BRANCH  10  11
ATOM     11  C   UNL d   1      60.925  46.423  49.833  0.00  0.00     0.030 C 
BRANCH  11  12
ATOM     12  C   UNL d   1      61.584  46.026  49.546  0.00  0.00     0.100 A 
ATOM     13  O   UNL d   1      61.648  45.213  49.419  0.00  0.00    -0.307 OA
ATOM     14  C   UNL d   1      62.396  45.063  49.133  0.00  0.00     0.100 A 
ATOM     15  C   UNL d   1      62.696  44.321  48.930  0.00  0.00     0.027 C 
ATOM     16  C   UNL d   1      62.805  45.771  49.078  0.00  0.00     0.027 A 
ATOM     17  C   UNL d   1      62.313  46.367  49.330  0.00  0.00     0.027 A 
ENDBRANCH  11  12
ENDBRANCH  10  11
ENDBRANCH   8  10
ENDBRANCH   2   7
BRANCH   1  18
ATOM     18  C   UNL d   1      58.458  48.737  50.607  0.00  0.00     0.297 C 
ATOM     19  O   UNL d   1      58.402  49.077  49.864  0.00  0.00    -0.259 OA
BRANCH  18  20
ATOM     20  O   UNL d   1      57.898  48.181  50.846  0.00  0.00    -0.296 OA
ATOM     21  C   UNL d   1      57.505  47.724  50.278  0.00  0.00     0.185 C 
ENDBRANCH  18  20
ENDBRANCH   1  18
BRANCH   3  22
ATOM     22  C   UNL d   1      60.928  49.564  52.635  0.00  0.00     0.296 C 
ATOM     23  O   UNL d   1      60.797  49.633  53.447  0.00  0.00    -0.259 OA
BRANCH  22  24
ATOM     24  O   UNL d   1      61.683  49.702  52.331  0.00  0.00    -0.296 OA
ATOM     25  C   UNL d   1      62.349  49.586  52.804  0.00  0.00     0.185 C 
ENDBRANCH  22  24
ENDBRANCH   3  22
TORSDOF 8
ENDMDL
MODEL 3
REMARK VINA RESULT:      79.0      1.808      4.775
REMARK  8 active torsions:
REMARK  status: ('A' for Active; 'I' for Inactive)
REMARK    1  A    between atoms: C_3  and  C_1 
REMARK    2  A    between atoms: N_4  and  C_2 
REMARK    3  A    between atoms: O_21  and  C_3 
REMARK       I    between atoms: C_11  and  N_4 
REMARK    4  A    between atoms: C_6  and  C_7 
REMARK    5  A    between atoms: O_22  and  C_6 
REMARK    6  A    between atoms: C_10  and  C_20 
REMARK    7  A    between atoms: C_19  and  C_11 
REMARK    8  A    between atoms: C_20  and  C_19 
ROOT
ATOM      1  C   UNL d   1      56.583  48.474  50.242  0.00  0.00     0.081 A 
ATOM      2  C   UNL d   1      57.399  48.365  50.195  0.00  0.00     0.090 A 
ATOM      3  C   UNL d   1      57.242  46.977  50.470  0.00  0.00     0.065 A 
ATOM      4  C   UNL d   1      57.730  47.622  50.308  0.00  0.00     0.025 A 
ATOM      5  C   UNL d   1      56.095  47.830  50.404  0.00  0.00     0.007 A 
ATOM      6  C   UNL d   1      56.425  47.081  50.519  0.00  0.00     0.006 A 
ENDROOT
BRANCH   2   7
ATOM      7  N   UNL d   1      57.881  49.010  50.032  0.00  0.00    -0.208 NA
ATOM      8  C   UNL d   1      58.676  49.001  50.269  0.00  0.00     0.279 C 
ATOM      9  O   UNL d   1      58.975  48.341  50.667  0.00  0.00    -0.265 OA
BRANCH   8  10
ATOM     10  C   UNL d   1      59.160  49.644  50.108  0.00  0.00     0.065 C 
BRANCH  10  11
ATOM     11  C   UNL d   1      59.974  49.595  50.254  0.00  0.00     0.030 C 
BRANCH  11  12
ATOM     12  C   UNL d   1      60.255  49.622  51.026  0.00  0.00     0.100 A 
ATOM     13  O   UNL d   1      61.046  49.580  51.260  0.00  0.00    -0.307 OA
ATOM     14  C   UNL d   1      61.068  49.628  52.074  0.00  0.00     0.100 A 
ATOM     15  C   UNL d   1      61.748  49.608  52.540  0.00  0.00     0.027 C 
ATOM     16  C   UNL d   1      60.301  49.699  52.355  0.00  0.00     0.027 A 
ATOM     17  C   UNL d   1      59.797  49.696  51.717  0.00  0.00     0.027 A 
ENDBRANCH  11  12
ENDBRANCH  10  11
ENDBRANCH   8  10
ENDBRANCH   2   7
BRANCH   1  18
ATOM     18  C   UNL d   1      56.262  49.224  50.126  0.00  0.00     0.297 C 
ATOM     19  O   UNL d   1      56.163  49.520  49.369  0.00  0.00    -0.259 OA
BRANCH  18  20
ATOM     20  O   UNL d   1      56.039  49.680  50.777  0.00  0.00    -0.296 OA
ATOM     21  C   UNL d   1      56.524  49.701  51.448  0.00  0.00     0.185 C 
ENDBRANCH  18  20
ENDBRANCH   1  18
BRANCH   3  22
ATOM     22  C   UNL d   1      57.571  46.228  50.585  0.00  0.00     0.296 C 
ATOM     23  O   UNL d   1      58.185  45.963  50.101  0.00  0.00    -0.259 OA
BRANCH  22  24
ATOM     24  O   UNL d   1      57.286  45.739  51.186  0.00  0.00    -0.296 OA
ATOM     25  C   UNL d   1      57.329  44.919  51.109  0.00  0.00     0.185 C 
ENDBRANCH  22  24
ENDBRANCH   3  22
TORSDOF 8
ENDMDL
