MODEL 1
REMARK VINA RESULT:      -9.6      0.000      0.000
REMARK  4 active torsions:
REMARK  status: ('A' for Active; 'I' for Inactive)
REMARK    1  A    between atoms: S_2  and  N_1 
REMARK    2  A    between atoms: C_10  and  S_2 
REMARK    3  A    between atoms: C_7  and  C_4 
REMARK    4  A    between atoms: C_12  and  C_5 
ROOT
ATOM      1  N   UNL d   1      52.245  32.623  53.146  0.00  0.00    -0.152 N 
ATOM      2  N   UNL d   1      51.535  32.803  52.795  0.00  0.00    -0.155 NA
ATOM      3  C   UNL d   1      51.385  33.604  52.924  0.00  0.00     0.110 A 
ATOM      4  C   UNL d   1      52.549  33.306  53.500  0.00  0.00     0.096 A 
ATOM      5  C   UNL d   1      51.999  33.931  53.357  0.00  0.00     0.041 A 
ENDROOT
BRANCH   1   6
ATOM      6  S   UNL d   1      52.598  31.901  53.152  0.00  0.00     0.286 S 
ATOM      7  O   UNL d   1      52.403  32.200  52.401  0.00  0.00    -0.198 OA
ATOM      8  O   UNL d   1      52.790  31.420  52.498  0.00  0.00    -0.198 OA
BRANCH   6   9
ATOM      9  C   UNL d   1      52.960  31.182  53.331  0.00  0.00     0.105 A 
ATOM     10  C   UNL d   1      52.684  30.726  53.961  0.00  0.00     0.013 A 
ATOM     11  C   UNL d   1      53.046  30.003  54.142  0.00  0.00     0.001 A 
ATOM     12  C   UNL d   1      53.684  29.738  53.691  0.00  0.00     0.000 A 
ATOM     13  C   UNL d   1      53.959  30.197  53.058  0.00  0.00     0.001 A 
ATOM     14  C   UNL d   1      53.598  30.917  52.879  0.00  0.00     0.013 A 
ENDBRANCH   6   9
ENDBRANCH   1   6
BRANCH   4  15
ATOM     15  C   UNL d   1      53.258  33.372  53.917  0.00  0.00     0.019 A 
ATOM     16  C   UNL d   1      53.259  33.281  54.743  0.00  0.00     0.002 A 
ATOM     17  C   UNL d   1      53.943  33.344  55.145  0.00  0.00     0.007 A 
ATOM     18  C   UNL d   1      54.675  33.504  54.751  0.00  0.00     0.035 A 
ATOM     19  C   UNL d   1      54.643  33.591  53.916  0.00  0.00     0.007 A 
ATOM     20 BR   UNL d   1      55.384  33.570  55.168  0.00  0.00    -0.049 Br
ATOM     21  C   UNL d   1      53.960  33.528  53.514  0.00  0.00     0.002 A 
ENDBRANCH   4  15
BRANCH   3  22
ATOM     22  C   UNL d   1      50.730  34.031  52.668  0.00  0.00     0.049 A 
ATOM     23  S   UNL d   1      50.204  34.455  53.159  0.00  0.00    -0.085 SA
ATOM     24  C   UNL d   1      49.674  34.764  52.641  0.00  0.00     0.035 A 
ATOM     25  C   UNL d   1      49.787  34.600  51.911  0.00  0.00     0.007 A 
ATOM     26  C   UNL d   1      50.449  34.137  51.899  0.00  0.00     0.009 A 
ENDBRANCH   3  22
TORSDOF 4
ENDMDL
MODEL 2
REMARK VINA RESULT:      -9.1      1.152      3.633
REMARK  4 active torsions:
REMARK  status: ('A' for Active; 'I' for Inactive)
REMARK    1  A    between atoms: S_2  and  N_1 
REMARK    2  A    between atoms: C_10  and  S_2 
REMARK    3  A    between atoms: C_7  and  C_4 
REMARK    4  A    between atoms: C_12  and  C_5 
ROOT
ATOM      1  N   UNL d   1      52.931  31.893  53.458  0.00  0.00    -0.152 N 
ATOM      2  N   UNL d   1      52.670  31.137  53.320  0.00  0.00    -0.155 NA
ATOM      3  C   UNL d   1      53.171  30.618  53.720  0.00  0.00     0.110 A 
ATOM      4  C   UNL d   1      53.598  31.859  53.946  0.00  0.00     0.096 A 
ATOM      5  C   UNL d   1      53.750  31.045  54.112  0.00  0.00     0.041 A 
ENDROOT
BRANCH   1   6
ATOM      6  S   UNL d   1      52.600  32.566  53.171  0.00  0.00     0.286 S 
ATOM      7  O   UNL d   1      52.777  31.982  52.605  0.00  0.00    -0.198 OA
ATOM      8  O   UNL d   1      52.414  32.747  52.378  0.00  0.00    -0.198 OA
BRANCH   6   9
ATOM      9  C   UNL d   1      52.261  33.307  53.042  0.00  0.00     0.105 A 
ATOM     10  C   UNL d   1      51.646  33.569  53.527  0.00  0.00     0.013 A 
ATOM     11  C   UNL d   1      51.303  34.313  53.399  0.00  0.00     0.001 A 
ATOM     12  C   UNL d   1      51.578  34.792  52.786  0.00  0.00     0.000 A 
ATOM     13  C   UNL d   1      52.195  34.527  52.300  0.00  0.00     0.001 A 
ATOM     14  C   UNL d   1      52.535  33.786  52.428  0.00  0.00     0.013 A 
ENDBRANCH   6   9
ENDBRANCH   1   6
BRANCH   4  15
ATOM     15  C   UNL d   1      54.039  32.499  54.223  0.00  0.00     0.019 A 
ATOM     16  C   UNL d   1      54.669  32.793  53.768  0.00  0.00     0.002 A 
ATOM     17  C   UNL d   1      55.095  33.410  54.035  0.00  0.00     0.007 A 
ATOM     18  C   UNL d   1      54.921  33.778  54.778  0.00  0.00     0.035 A 
ATOM     19  C   UNL d   1      54.280  33.460  55.217  0.00  0.00     0.007 A 
ATOM     20 BR   UNL d   1      55.362  34.418  55.055  0.00  0.00    -0.049 Br
ATOM     21  C   UNL d   1      53.854  32.843  54.949  0.00  0.00     0.002 A 
ENDBRANCH   4  15
BRANCH   3  22
ATOM     22  C   UNL d   1      53.119  29.797  53.739  0.00  0.00     0.049 A 
ATOM     23  S   UNL d   1      53.355  29.309  54.374  0.00  0.00    -0.085 SA
ATOM     24  C   UNL d   1      53.188  28.568  54.111  0.00  0.00     0.035 A 
ATOM     25  C   UNL d   1      52.889  28.520  53.418  0.00  0.00     0.007 A 
ATOM     26  C   UNL d   1      52.833  29.284  53.159  0.00  0.00     0.009 A 
ENDBRANCH   3  22
TORSDOF 4
ENDMDL
MODEL 3
REMARK VINA RESULT:      -8.9      1.354      2.573
REMARK  4 active torsions:
REMARK  status: ('A' for Active; 'I' for Inactive)
REMARK    1  A    between atoms: S_2  and  N_1 
REMARK    2  A    between atoms: C_10  and  S_2 
REMARK    3  A    between atoms: C_7  and  C_4 
REMARK    4  A    between atoms: C_12  and  C_5 
ROOT
ATOM      1  N   UNL d   1      52.364  33.539  53.438  0.00  0.00    -0.152 N 
ATOM      2  N   UNL d   1      51.834  34.136  53.288  0.00  0.00    -0.155 NA
ATOM      3  C   UNL d   1      51.172  33.803  52.925  0.00  0.00     0.110 A 
ATOM      4  C   UNL d   1      52.043  32.825  53.171  0.00  0.00     0.096 A 
ATOM      5  C   UNL d   1      51.283  32.995  52.844  0.00  0.00     0.041 A 
ENDROOT
BRANCH   1   6
ATOM      6  S   UNL d   1      53.082  33.623  53.787  0.00  0.00     0.286 S 
ATOM      7  O   UNL d   1      52.897  34.188  53.204  0.00  0.00    -0.198 OA
ATOM      8  O   UNL d   1      53.660  34.206  53.635  0.00  0.00    -0.198 OA
BRANCH   6   9
ATOM      9  C   UNL d   1      53.772  33.570  54.235  0.00  0.00     0.105 A 
ATOM     10  C   UNL d   1      53.726  33.523  55.059  0.00  0.00     0.013 A 
ATOM     11  C   UNL d   1      54.419  33.470  55.512  0.00  0.00     0.001 A 
ATOM     12  C   UNL d   1      55.155  33.463  55.138  0.00  0.00     0.000 A 
ATOM     13  C   UNL d   1      55.198  33.510  54.312  0.00  0.00     0.001 A 
ATOM     14  C   UNL d   1      54.508  33.563  53.862  0.00  0.00     0.013 A 
ENDBRANCH   6   9
ENDBRANCH   1   6
BRANCH   4  15
ATOM     15  C   UNL d   1      52.395  32.080  53.214  0.00  0.00     0.019 A 
ATOM     16  C   UNL d   1      52.887  31.821  52.596  0.00  0.00     0.002 A 
ATOM     17  C   UNL d   1      53.226  31.102  52.637  0.00  0.00     0.007 A 
ATOM     18  C   UNL d   1      53.098  30.590  53.299  0.00  0.00     0.035 A 
ATOM     19  C   UNL d   1      52.597  30.877  53.908  0.00  0.00     0.007 A 
ATOM     20 BR   UNL d   1      53.450  29.845  53.341  0.00  0.00    -0.049 Br
ATOM     21  C   UNL d   1      52.257  31.596  53.867  0.00  0.00     0.002 A 
ENDBRANCH   4  15
BRANCH   3  22
ATOM     22  C   UNL d   1      50.495  34.198  52.673  0.00  0.00     0.049 A 
ATOM     23  S   UNL d   1      49.991  34.654  53.157  0.00  0.00    -0.085 SA
ATOM     24  C   UNL d   1      49.426  34.911  52.646  0.00  0.00     0.035 A 
ATOM     25  C   UNL d   1      49.501  34.687  51.928  0.00  0.00     0.007 A 
ATOM     26  C   UNL d   1      50.170  34.234  51.916  0.00  0.00     0.009 A 
ENDBRANCH   3  22
TORSDOF 4
ENDMDL
MODEL 4
REMARK VINA RESULT:      -8.7      1.851      4.116
REMARK  4 active torsions:
REMARK  status: ('A' for Active; 'I' for Inactive)
REMARK    1  A    between atoms: S_2  and  N_1 
REMARK    2  A    between atoms: C_10  and  S_2 
REMARK    3  A    between atoms: C_7  and  C_4 
REMARK    4  A    between atoms: C_12  and  C_5 
ROOT
ATOM      1  N   UNL d   1      52.820  32.871  53.541  0.00  0.00    -0.152 N 
ATOM      2  N   UNL d   1      53.243  32.186  53.647  0.00  0.00    -0.155 NA
ATOM      3  C   UNL d   1      52.802  31.564  53.330  0.00  0.00     0.110 A 
ATOM      4  C   UNL d   1      52.111  32.690  53.157  0.00  0.00     0.096 A 
ATOM      5  C   UNL d   1      52.100  31.856  53.022  0.00  0.00     0.041 A 
ENDROOT
BRANCH   1   6
ATOM      6  S   UNL d   1      53.049  33.606  53.770  0.00  0.00     0.286 S 
ATOM      7  O   UNL d   1      53.627  33.156  53.374  0.00  0.00    -0.198 OA
ATOM      8  O   UNL d   1      53.793  33.968  53.658  0.00  0.00    -0.198 OA
BRANCH   6   9
ATOM      9  C   UNL d   1      53.124  34.372  54.067  0.00  0.00     0.105 A 
ATOM     10  C   UNL d   1      52.943  34.527  54.857  0.00  0.00     0.013 A 
ATOM     11  C   UNL d   1      53.016  35.296  55.158  0.00  0.00     0.001 A 
ATOM     12  C   UNL d   1      53.271  35.907  54.666  0.00  0.00     0.000 A 
ATOM     13  C   UNL d   1      53.452  35.749  53.873  0.00  0.00     0.001 A 
ATOM     14  C   UNL d   1      53.378  34.984  53.575  0.00  0.00     0.013 A 
ENDBRANCH   6   9
ENDBRANCH   1   6
BRANCH   4  15
ATOM     15  C   UNL d   1      51.517  33.221  52.940  0.00  0.00     0.019 A 
ATOM     16  C   UNL d   1      50.877  33.355  53.454  0.00  0.00     0.002 A 
ATOM     17  C   UNL d   1      50.305  33.867  53.246  0.00  0.00     0.007 A 
ATOM     18  C   UNL d   1      50.331  34.283  52.508  0.00  0.00     0.035 A 
ATOM     19  C   UNL d   1      50.988  34.128  52.010  0.00  0.00     0.007 A 
ATOM     20 BR   UNL d   1      49.737  34.814  52.292  0.00  0.00    -0.049 Br
ATOM     21  C   UNL d   1      51.561  33.616  52.218  0.00  0.00     0.002 A 
ENDBRANCH   4  15
BRANCH   3  22
ATOM     22  C   UNL d   1      53.012  30.769  53.312  0.00  0.00     0.049 A 
ATOM     23  S   UNL d   1      53.342  30.339  53.947  0.00  0.00    -0.085 SA
ATOM     24  C   UNL d   1      53.439  29.602  53.641  0.00  0.00     0.035 A 
ATOM     25  C   UNL d   1      53.222  29.508  52.923  0.00  0.00     0.007 A 
ATOM     26  C   UNL d   1      52.947  30.231  52.689  0.00  0.00     0.009 A 
ENDBRANCH   3  22
TORSDOF 4
ENDMDL
