MODEL 1
REMARK VINA RESULT:      67.0      0.000      0.000
REMARK  5 active torsions:
REMARK  status: ('A' for Active; 'I' for Inactive)
REMARK    1  A    between atoms: C_3  and  C_1 
REMARK    2  A    between atoms: C_9  and  N_2 
REMARK    3  A    between atoms: C_7  and  C_3 
REMARK    4  A    between atoms: C_8  and  C_3 
REMARK    5  A    between atoms: C_20  and  C_6 
ROOT
ATOM      1  C   UNL d   1      59.426  49.162  50.627  0.00  0.00     0.103 A 
ATOM      2  N   UNL d   1      60.080  49.277  51.117  0.00  0.00    -0.269 N 
ATOM      3  S   UNL d   1      59.655  49.305  49.843  0.00  0.00    -0.064 SA
ATOM      4  C   UNL d   1      60.717  49.492  50.640  0.00  0.00     0.271 A 
ATOM      5  C   UNL d   1      60.461  49.511  49.854  0.00  0.00     0.087 A 
ATOM      6  O   UNL d   1      61.487  49.662  50.899  0.00  0.00    -0.266 OA
ENDROOT
BRANCH   2   7
ATOM      7  C   UNL d   1      60.552  49.326  51.792  0.00  0.00     0.068 A 
ATOM      8  C   UNL d   1      60.264  49.040  52.508  0.00  0.00     0.020 A 
ATOM      9  C   UNL d   1      60.736  49.088  53.183  0.00  0.00     0.031 A 
ATOM     10  C   UNL d   1      61.486  49.422  53.129  0.00  0.00     0.140 A 
ATOM     11  C   UNL d   1      61.767  49.705  52.411  0.00  0.00     0.031 A 
ATOM     12  F   UNL d   1      61.962  49.470  53.810  0.00  0.00    -0.204 F 
ATOM     13  C   UNL d   1      61.298  49.658  51.737  0.00  0.00     0.020 A 
ENDBRANCH   2   7
BRANCH   1  14
ATOM     14  C   UNL d   1      58.663  48.940  50.868  0.00  0.00     0.103 C 
BRANCH  14  15
ATOM     15  C   UNL d   1      58.442  48.145  50.824  0.00  0.00     0.300 C 
ATOM     16  O   UNL d   1      58.970  47.547  51.056  0.00  0.00    -0.264 OA
ATOM     17  N   UNL d   1      57.687  47.941  50.546  0.00  0.00    -0.102 N 
ENDBRANCH  14  15
BRANCH  14  18
ATOM     18  C   UNL d   1      58.136  49.502  51.146  0.00  0.00     0.129 C 
ATOM     19  N   UNL d   1      57.470  49.703  50.696  0.00  0.00    -0.146 N 
ENDBRANCH  14  18
ENDBRANCH   1  14
BRANCH   5  20
ATOM     20  C   UNL d   1      60.921  49.700  49.197  0.00  0.00     0.011 C 
ATOM     21  C   UNL d   1      61.742  49.587  49.223  0.00  0.00     0.001 C 
ENDBRANCH   5  20
TORSDOF 5
ENDMDL
MODEL 2
REMARK VINA RESULT:      67.0      9.898     10.826
REMARK  5 active torsions:
REMARK  status: ('A' for Active; 'I' for Inactive)
REMARK    1  A    between atoms: C_3  and  C_1 
REMARK    2  A    between atoms: C_9  and  N_2 
REMARK    3  A    between atoms: C_7  and  C_3 
REMARK    4  A    between atoms: C_8  and  C_3 
REMARK    5  A    between atoms: C_20  and  C_6 
ROOT
ATOM      1  C   UNL d   1      56.956  39.444  54.886  0.00  0.00     0.103 A 
ATOM      2  N   UNL d   1      57.761  39.441  55.064  0.00  0.00    -0.269 N 
ATOM      3  S   UNL d   1      56.742  38.689  54.616  0.00  0.00    -0.064 SA
ATOM      4  C   UNL d   1      58.052  38.685  54.905  0.00  0.00     0.271 A 
ATOM      5  C   UNL d   1      57.429  38.218  54.629  0.00  0.00     0.087 A 
ATOM      6  O   UNL d   1      58.836  38.432  55.004  0.00  0.00    -0.266 OA
ENDROOT
BRANCH   2   7
ATOM      7  C   UNL d   1      58.510  39.693  55.304  0.00  0.00     0.068 A 
ATOM      8  C   UNL d   1      59.031  40.001  54.745  0.00  0.00     0.020 A 
ATOM      9  C   UNL d   1      59.779  40.252  54.984  0.00  0.00     0.031 A 
ATOM     10  C   UNL d   1      59.993  40.191  55.777  0.00  0.00     0.140 A 
ATOM     11  C   UNL d   1      59.468  39.882  56.328  0.00  0.00     0.031 A 
ATOM     12  F   UNL d   1      60.747  40.444  56.018  0.00  0.00    -0.204 F 
ATOM     13  C   UNL d   1      58.721  39.631  56.092  0.00  0.00     0.020 A 
ENDBRANCH   2   7
BRANCH   1  14
ATOM     14  C   UNL d   1      56.437  40.087  54.961  0.00  0.00     0.103 C 
BRANCH  14  15
ATOM     15  C   UNL d   1      56.180  40.479  54.280  0.00  0.00     0.300 C 
ATOM     16  O   UNL d   1      56.053  41.300  54.290  0.00  0.00    -0.264 OA
ATOM     17  N   UNL d   1      56.047  40.051  53.582  0.00  0.00    -0.102 N 
ENDBRANCH  14  15
BRANCH  14  18
ATOM     18  C   UNL d   1      56.181  40.330  55.700  0.00  0.00     0.129 C 
ATOM     19  N   UNL d   1      56.039  41.133  55.846  0.00  0.00    -0.146 N 
ENDBRANCH  14  18
ENDBRANCH   1  14
BRANCH   5  20
ATOM     20  C   UNL d   1      57.476  37.426  54.406  0.00  0.00     0.011 C 
ATOM     21  C   UNL d   1      57.089  36.848  54.857  0.00  0.00     0.001 C 
ENDBRANCH   5  20
TORSDOF 5
ENDMDL
MODEL 3
REMARK VINA RESULT:      67.9      1.937      3.610
REMARK  5 active torsions:
REMARK  status: ('A' for Active; 'I' for Inactive)
REMARK    1  A    between atoms: C_3  and  C_1 
REMARK    2  A    between atoms: C_9  and  N_2 
REMARK    3  A    between atoms: C_7  and  C_3 
REMARK    4  A    between atoms: C_8  and  C_3 
REMARK    5  A    between atoms: C_20  and  C_6 
ROOT
ATOM      1  C   UNL d   1      60.039  48.483  51.131  0.00  0.00     0.103 A 
ATOM      2  N   UNL d   1      59.234  48.520  50.957  0.00  0.00    -0.269 N 
ATOM      3  S   UNL d   1      60.283  47.691  51.088  0.00  0.00    -0.064 SA
ATOM      4  C   UNL d   1      58.973  47.752  50.805  0.00  0.00     0.271 A 
ATOM      5  C   UNL d   1      59.615  47.238  50.884  0.00  0.00     0.087 A 
ATOM      6  O   UNL d   1      58.199  47.528  50.605  0.00  0.00    -0.266 OA
ENDROOT
BRANCH   2   7
ATOM      7  C   UNL d   1      58.475  48.817  50.826  0.00  0.00     0.068 A 
ATOM      8  C   UNL d   1      58.206  48.910  50.053  0.00  0.00     0.020 A 
ATOM      9  C   UNL d   1      57.448  49.207  49.921  0.00  0.00     0.031 A 
ATOM     10  C   UNL d   1      56.973  49.405  50.563  0.00  0.00     0.140 A 
ATOM     11  C   UNL d   1      57.248  49.310  51.331  0.00  0.00     0.031 A 
ATOM     12  F   UNL d   1      56.209  49.705  50.429  0.00  0.00    -0.204 F 
ATOM     13  C   UNL d   1      58.004  49.014  51.465  0.00  0.00     0.020 A 
ENDBRANCH   2   7
BRANCH   1  14
ATOM     14  C   UNL d   1      60.532  49.123  51.320  0.00  0.00     0.103 C 
BRANCH  14  15
ATOM     15  C   UNL d   1      61.142  49.329  50.801  0.00  0.00     0.300 C 
ATOM     16  O   UNL d   1      61.933  49.159  50.991  0.00  0.00    -0.264 OA
ATOM     17  N   UNL d   1      60.964  49.707  50.084  0.00  0.00    -0.102 N 
ENDBRANCH  14  15
BRANCH  14  18
ATOM     18  C   UNL d   1      60.418  49.546  52.012  0.00  0.00     0.129 C 
ATOM     19  N   UNL d   1      61.059  49.707  52.510  0.00  0.00    -0.146 N 
ENDBRANCH  14  18
ENDBRANCH   1  14
BRANCH   5  20
ATOM     20  C   UNL d   1      59.599  46.420  50.779  0.00  0.00     0.011 C 
ATOM     21  C   UNL d   1      59.916  45.925  51.364  0.00  0.00     0.001 C 
ENDBRANCH   5  20
TORSDOF 5
ENDMDL
MODEL 4
REMARK VINA RESULT:      68.3      2.192      3.256
REMARK  5 active torsions:
REMARK  status: ('A' for Active; 'I' for Inactive)
REMARK    1  A    between atoms: C_3  and  C_1 
REMARK    2  A    between atoms: C_9  and  N_2 
REMARK    3  A    between atoms: C_7  and  C_3 
REMARK    4  A    between atoms: C_8  and  C_3 
REMARK    5  A    between atoms: C_20  and  C_6 
ROOT
ATOM      1  C   UNL d   1      60.871  47.841  50.927  0.00  0.00     0.103 A 
ATOM      2  N   UNL d   1      60.233  48.358  51.012  0.00  0.00    -0.269 N 
ATOM      3  S   UNL d   1      61.528  48.166  51.316  0.00  0.00    -0.064 SA
ATOM      4  C   UNL d   1      60.491  49.005  51.455  0.00  0.00     0.271 A 
ATOM      5  C   UNL d   1      61.288  48.892  51.644  0.00  0.00     0.087 A 
ATOM      6  O   UNL d   1      60.033  49.661  51.675  0.00  0.00    -0.266 OA
ENDROOT
BRANCH   2   7
ATOM      7  C   UNL d   1      59.477  48.683  50.954  0.00  0.00     0.068 A 
ATOM      8  C   UNL d   1      59.168  48.855  50.211  0.00  0.00     0.020 A 
ATOM      9  C   UNL d   1      58.412  49.179  50.152  0.00  0.00     0.031 A 
ATOM     10  C   UNL d   1      57.980  49.326  50.836  0.00  0.00     0.140 A 
ATOM     11  C   UNL d   1      58.295  49.152  51.574  0.00  0.00     0.031 A 
ATOM     12  F   UNL d   1      57.218  49.653  50.776  0.00  0.00    -0.204 F 
ATOM     13  C   UNL d   1      59.049  48.828  51.636  0.00  0.00     0.020 A 
ENDBRANCH   2   7
BRANCH   1  14
ATOM     14  C   UNL d   1      60.868  47.117  50.522  0.00  0.00     0.103 C 
BRANCH  14  15
ATOM     15  C   UNL d   1      61.406  46.997  49.907  0.00  0.00     0.300 C 
ATOM     16  O   UNL d   1      61.173  47.102  49.116  0.00  0.00    -0.264 OA
ATOM     17  N   UNL d   1      62.186  46.769  50.078  0.00  0.00    -0.102 N 
ENDBRANCH  14  15
BRANCH  14  18
ATOM     18  C   UNL d   1      60.338  46.528  50.729  0.00  0.00     0.129 C 
ATOM     19  N   UNL d   1      60.616  45.799  51.008  0.00  0.00    -0.146 N 
ENDBRANCH  14  18
ENDBRANCH   1  14
BRANCH   5  20
ATOM     20  C   UNL d   1      61.762  49.406  52.080  0.00  0.00     0.011 C 
ATOM     21  C   UNL d   1      61.576  49.563  52.874  0.00  0.00     0.001 C 
ENDBRANCH   5  20
TORSDOF 5
ENDMDL
