MODEL 1
REMARK VINA RESULT:      84.0      0.000      0.000
REMARK  3 active torsions:
REMARK  status: ('A' for Active; 'I' for Inactive)
REMARK    1  A    between atoms: C_8  and  C_6 
REMARK    2  A    between atoms: C_9  and  C_8 
REMARK       I    between atoms: N_10  and  C_9 
REMARK    3  A    between atoms: C_13  and  N_10 
ROOT
ATOM      1  N   UNL d   1     -48.328  28.169  35.786  0.00  0.00    -0.207 NA
ATOM      2  N   UNL d   1     -48.944  28.726  34.329  0.00  0.00    -0.240 NA
ATOM      3  C   UNL d   1     -48.799  27.821  35.214  0.00  0.00     0.297 A 
ATOM      4  C   UNL d   1     -48.010  28.934  35.800  0.00  0.00     0.086 A 
ATOM      5  C   UNL d   1     -48.540  29.396  34.558  0.00  0.00     0.083 A 
ATOM      6  C   UNL d   1     -49.001  28.015  34.728  0.00  0.00     0.144 A 
ATOM      7  C   UNL d   1     -48.092  29.537  35.235  0.00  0.00     0.035 A 
ATOM      8  O   UNL d   1     -49.014  27.047  35.384  0.00  0.00    -0.264 OA
ATOM      9  C   UNL d   1     -47.727  30.261  35.361  0.00  0.00     0.003 A 
ATOM     10  C   UNL d   1     -47.561  29.068  36.484  0.00  0.00     0.019 A 
ATOM     11  C   UNL d   1     -48.623  29.996  33.993  0.00  0.00     0.019 A 
ATOM     12  C   UNL d   1     -48.256  30.733  34.113  0.00  0.00     0.002 A 
ATOM     13  C   UNL d   1     -47.198  29.800  36.599  0.00  0.00     0.002 A 
ATOM     14  C   UNL d   1     -47.808  30.864  34.796  0.00  0.00     0.000 A 
ATOM     15  C   UNL d   1     -47.279  30.391  36.044  0.00  0.00     0.000 A 
ENDROOT
BRANCH   6  16
ATOM     16  C   UNL d   1     -49.457  27.453  34.331  0.00  0.00     0.086 C 
BRANCH  16  17
ATOM     17  C   UNL d   1     -49.087  26.920  33.812  0.00  0.00     0.281 C 
ATOM     18  N   UNL d   1     -49.542  26.460  33.306  0.00  0.00    -0.208 NA
ATOM     19  O   UNL d   1     -48.265  26.848  33.801  0.00  0.00    -0.265 OA
BRANCH  18  20
ATOM     20  C   UNL d   1     -50.363  26.525  33.311  0.00  0.00     0.085 A 
ATOM     21  C   UNL d   1     -50.835  25.849  33.310  0.00  0.00     0.019 A 
ATOM     22  C   UNL d   1     -51.649  25.918  33.314  0.00  0.00     0.002 A 
ATOM     23  C   UNL d   1     -52.114  25.247  33.313  0.00  0.00     0.000 C 
ATOM     24  C   UNL d   1     -52.004  26.660  33.320  0.00  0.00     0.000 A 
ATOM     25  C   UNL d   1     -51.530  27.342  33.321  0.00  0.00     0.002 A 
ATOM     26  C   UNL d   1     -50.709  27.268  33.316  0.00  0.00     0.019 A 
ENDBRANCH  18  20
ENDBRANCH  16  17
ENDBRANCH   6  16
TORSDOF 3
ENDMDL
MODEL 2
REMARK VINA RESULT:      84.6      1.030      1.357
REMARK  3 active torsions:
REMARK  status: ('A' for Active; 'I' for Inactive)
REMARK    1  A    between atoms: C_8  and  C_6 
REMARK    2  A    between atoms: C_9  and  C_8 
REMARK       I    between atoms: N_10  and  C_9 
REMARK    3  A    between atoms: C_13  and  N_10 
ROOT
ATOM      1  N   UNL d   1     -48.079  29.027  35.493  0.00  0.00    -0.207 NA
ATOM      2  N   UNL d   1     -48.840  29.671  34.143  0.00  0.00    -0.240 NA
ATOM      3  C   UNL d   1     -48.615  28.716  34.958  0.00  0.00     0.297 A 
ATOM      4  C   UNL d   1     -47.750  29.787  35.514  0.00  0.00     0.086 A 
ATOM      5  C   UNL d   1     -48.403  30.323  34.364  0.00  0.00     0.083 A 
ATOM      6  C   UNL d   1     -48.865  28.939  34.508  0.00  0.00     0.144 A 
ATOM      7  C   UNL d   1     -47.882  30.421  34.995  0.00  0.00     0.035 A 
ATOM      8  O   UNL d   1     -48.823  27.936  35.107  0.00  0.00    -0.264 OA
ATOM      9  C   UNL d   1     -47.494  31.133  35.119  0.00  0.00     0.003 A 
ATOM     10  C   UNL d   1     -47.228  29.878  36.151  0.00  0.00     0.019 A 
ATOM     11  C   UNL d   1     -48.537  30.954  33.845  0.00  0.00     0.019 A 
ATOM     12  C   UNL d   1     -48.147  31.680  33.963  0.00  0.00     0.002 A 
ATOM     13  C   UNL d   1     -46.843  30.599  36.266  0.00  0.00     0.002 A 
ATOM     14  C   UNL d   1     -47.626  31.768  34.600  0.00  0.00     0.000 A 
ATOM     15  C   UNL d   1     -46.974  31.221  35.756  0.00  0.00     0.000 A 
ENDROOT
BRANCH   6  16
ATOM     16  C   UNL d   1     -49.371  28.405  34.133  0.00  0.00     0.086 C 
BRANCH  16  17
ATOM     17  C   UNL d   1     -50.032  28.691  33.720  0.00  0.00     0.281 C 
ATOM     18  N   UNL d   1     -50.516  28.169  33.311  0.00  0.00    -0.208 NA
ATOM     19  O   UNL d   1     -50.207  29.498  33.716  0.00  0.00    -0.265 OA
BRANCH  18  20
ATOM     20  C   UNL d   1     -50.349  27.363  33.309  0.00  0.00     0.085 A 
ATOM     21  C   UNL d   1     -50.962  26.810  33.309  0.00  0.00     0.019 A 
ATOM     22  C   UNL d   1     -50.791  26.011  33.307  0.00  0.00     0.002 A 
ATOM     23  C   UNL d   1     -51.399  25.466  33.306  0.00  0.00     0.000 C 
ATOM     24  C   UNL d   1     -50.010  25.752  33.306  0.00  0.00     0.000 A 
ATOM     25  C   UNL d   1     -49.393  26.307  33.306  0.00  0.00     0.002 A 
ATOM     26  C   UNL d   1     -49.569  27.112  33.308  0.00  0.00     0.019 A 
ENDBRANCH  18  20
ENDBRANCH  16  17
ENDBRANCH   6  16
TORSDOF 3
ENDMDL
MODEL 3
REMARK VINA RESULT:      85.0      0.845      4.579
REMARK  3 active torsions:
REMARK  status: ('A' for Active; 'I' for Inactive)
REMARK    1  A    between atoms: C_8  and  C_6 
REMARK    2  A    between atoms: C_9  and  C_8 
REMARK       I    between atoms: N_10  and  C_9 
REMARK    3  A    between atoms: C_13  and  N_10 
ROOT
ATOM      1  N   UNL d   1     -49.144  26.227  34.300  0.00  0.00    -0.207 NA
ATOM      2  N   UNL d   1     -49.978  27.683  34.298  0.00  0.00    -0.240 NA
ATOM      3  C   UNL d   1     -48.941  26.982  34.543  0.00  0.00     0.297 A 
ATOM      4  C   UNL d   1     -49.857  25.963  33.970  0.00  0.00     0.086 A 
ATOM      5  C   UNL d   1     -50.555  27.207  33.974  0.00  0.00     0.083 A 
ATOM      6  C   UNL d   1     -49.226  27.465  34.538  0.00  0.00     0.144 A 
ATOM      7  C   UNL d   1     -50.542  26.401  33.803  0.00  0.00     0.035 A 
ATOM      8  O   UNL d   1     -48.181  27.043  34.847  0.00  0.00    -0.264 OA
ATOM      9  C   UNL d   1     -51.191  26.026  33.473  0.00  0.00     0.003 A 
ATOM     10  C   UNL d   1     -49.835  25.152  33.802  0.00  0.00     0.019 A 
ATOM     11  C   UNL d   1     -51.237  27.647  33.808  0.00  0.00     0.019 A 
ATOM     12  C   UNL d   1     -51.901  27.274  33.473  0.00  0.00     0.002 A 
ATOM     13  C   UNL d   1     -50.495  24.785  33.469  0.00  0.00     0.002 A 
ATOM     14  C   UNL d   1     -51.877  26.464  33.306  0.00  0.00     0.000 A 
ATOM     15  C   UNL d   1     -51.167  25.216  33.306  0.00  0.00     0.000 A 
ENDROOT
BRANCH   6  16
ATOM     16  C   UNL d   1     -48.786  28.093  34.844  0.00  0.00     0.086 C 
BRANCH  16  17
ATOM     17  C   UNL d   1     -48.859  28.289  35.648  0.00  0.00     0.281 C 
ATOM     18  N   UNL d   1     -48.455  28.937  35.949  0.00  0.00    -0.208 NA
ATOM     19  O   UNL d   1     -49.334  27.836  36.148  0.00  0.00    -0.265 OA
BRANCH  18  20
ATOM     20  C   UNL d   1     -47.978  29.394  35.456  0.00  0.00     0.085 A 
ATOM     21  C   UNL d   1     -48.213  30.154  35.237  0.00  0.00     0.019 A 
ATOM     22  C   UNL d   1     -47.737  30.604  34.749  0.00  0.00     0.002 A 
ATOM     23  C   UNL d   1     -47.972  31.356  34.533  0.00  0.00     0.000 C 
ATOM     24  C   UNL d   1     -47.023  30.305  34.472  0.00  0.00     0.000 A 
ATOM     25  C   UNL d   1     -46.785  29.540  34.692  0.00  0.00     0.002 A 
ATOM     26  C   UNL d   1     -47.268  29.089  35.185  0.00  0.00     0.019 A 
ENDBRANCH  18  20
ENDBRANCH  16  17
ENDBRANCH   6  16
TORSDOF 3
ENDMDL
