MODEL 1
REMARK VINA RESULT:       4.3      0.000      0.000
REMARK  2 active torsions:
REMARK  status: ('A' for Active; 'I' for Inactive)
REMARK    1  A    between atoms: C_6  and  C_1 
REMARK    2  A    between atoms: C_8  and  C_5 
ROOT
ATOM      1  C   UNL d   1      14.046  12.085  -2.066  0.00  0.00     0.169 A 
ATOM      2  C   UNL d   1      14.081  12.346  -2.854  0.00  0.00     0.048 A 
ATOM      3  N   UNL d   1      12.866  11.855  -2.634  0.00  0.00    -0.148 NA
ATOM      4  N   UNL d   1      13.289  11.780  -1.930  0.00  0.00    -0.142 NA
ATOM      5  C   UNL d   1      13.363  12.206  -3.198  0.00  0.00     0.105 A 
ENDROOT
BRANCH   1   6
ATOM      6  C   UNL d   1      14.656  12.122  -1.513  0.00  0.00     0.231 C 
ATOM      7  O   UNL d   1      14.551  11.812  -0.756  0.00  0.00    -0.643 OA
ATOM      8  O   UNL d   1      15.377  12.472  -1.720  0.00  0.00    -0.643 OA
ENDBRANCH   1   6
BRANCH   5   9
ATOM      9  C   UNL d   1      13.161  12.382  -3.981  0.00  0.00     0.019 C 
ATOM     10  C   UNL d   1      13.000  13.153  -4.199  0.00  0.00     0.002 C 
ATOM     11  C   UNL d   1      13.122  11.779  -4.538  0.00  0.00     0.002 C 
ENDBRANCH   5   9
TORSDOF 2
ENDMDL
MODEL 2
REMARK VINA RESULT:       4.3      1.645      2.944
REMARK  2 active torsions:
REMARK  status: ('A' for Active; 'I' for Inactive)
REMARK    1  A    between atoms: C_6  and  C_1 
REMARK    2  A    between atoms: C_8  and  C_5 
ROOT
ATOM      1  C   UNL d   1      13.950  12.122  -2.539  0.00  0.00     0.169 A 
ATOM      2  C   UNL d   1      13.676  12.115  -1.754  0.00  0.00     0.048 A 
ATOM      3  N   UNL d   1      14.965  11.787  -1.747  0.00  0.00    -0.148 NA
ATOM      4  N   UNL d   1      14.752  11.918  -2.534  0.00  0.00    -0.142 NA
ATOM      5  C   UNL d   1      14.295  11.911  -1.274  0.00  0.00     0.105 A 
ENDROOT
BRANCH   1   6
ATOM      6  C   UNL d   1      13.504  12.301  -3.209  0.00  0.00     0.231 C 
ATOM      7  O   UNL d   1      13.647  12.996  -3.631  0.00  0.00    -0.643 OA
ATOM      8  O   UNL d   1      12.911  11.781  -3.458  0.00  0.00    -0.643 OA
ENDBRANCH   1   6
BRANCH   5   9
ATOM      9  C   UNL d   1      14.262  11.839  -0.451  0.00  0.00     0.019 C 
ATOM     10  C   UNL d   1      13.539  11.781  -0.072  0.00  0.00     0.002 C 
ATOM     11  C   UNL d   1      14.958  11.825  -0.015  0.00  0.00     0.002 C 
ENDBRANCH   5   9
TORSDOF 2
ENDMDL
MODEL 3
REMARK VINA RESULT:       5.4      1.978      2.493
REMARK  2 active torsions:
REMARK  status: ('A' for Active; 'I' for Inactive)
REMARK    1  A    between atoms: C_6  and  C_1 
REMARK    2  A    between atoms: C_8  and  C_5 
ROOT
ATOM      1  C   UNL d   1      15.014  13.183  -0.422  0.00  0.00     0.169 A 
ATOM      2  C   UNL d   1      14.601  13.074  -1.134  0.00  0.00     0.048 A 
ATOM      3  N   UNL d   1      14.620  11.915  -0.484  0.00  0.00    -0.148 NA
ATOM      4  N   UNL d   1      15.025  12.461  -0.017  0.00  0.00    -0.142 NA
ATOM      5  C   UNL d   1      14.363  12.302  -1.171  0.00  0.00     0.105 A 
ENDROOT
BRANCH   1   6
ATOM      6  C   UNL d   1      15.354  13.887  -0.158  0.00  0.00     0.231 C 
ATOM      7  O   UNL d   1      16.167  13.932  -0.025  0.00  0.00    -0.643 OA
ATOM      8  O   UNL d   1      14.876  14.550  -0.028  0.00  0.00    -0.643 OA
ENDBRANCH   1   6
BRANCH   5   9
ATOM      9  C   UNL d   1      13.934  11.959  -1.790  0.00  0.00     0.019 C 
ATOM     10  C   UNL d   1      13.142  11.781  -1.692  0.00  0.00     0.002 C 
ATOM     11  C   UNL d   1      14.308  11.798  -2.504  0.00  0.00     0.002 C 
ENDBRANCH   5   9
TORSDOF 2
ENDMDL
