MODEL 1
REMARK VINA RESULT:      25.4      0.000      0.000
REMARK  4 active torsions:
REMARK  status: ('A' for Active; 'I' for Inactive)
REMARK    1  A    between atoms: C_2  and  C_1 
REMARK    2  A    between atoms: C_13  and  N_5 
REMARK    3  A    between atoms: C_16  and  C_13 
REMARK    4  A    between atoms: C_17  and  C_16 
ROOT
ATOM      1  C   UNL d   1      14.581  13.063  -1.366  0.00  0.00     0.112 A 
ATOM      2  C   UNL d   1      14.660  13.854  -1.156  0.00  0.00     0.176 A 
ATOM      3  N   UNL d   1      15.074  13.891  -0.437  0.00  0.00    -0.285 N 
ATOM      4  C   UNL d   1      14.946  12.611  -0.776  0.00  0.00     0.219 A 
ATOM      5  C   UNL d   1      15.247  13.122  -0.210  0.00  0.00     0.124 A 
ATOM      6  O   UNL d   1      15.000  11.779  -0.760  0.00  0.00    -0.285 OA
ATOM      7  N   UNL d   1      14.373  14.501  -1.594  0.00  0.00    -0.128 N 
ENDROOT
BRANCH   1   8
ATOM      8  C   UNL d   1      14.200  12.797  -2.049  0.00  0.00     0.169 A 
ATOM      9  N   UNL d   1      13.544  12.300  -2.124  0.00  0.00    -0.225 NA
ATOM     10  C   UNL d   1      13.384  12.207  -2.924  0.00  0.00     0.101 A 
ATOM     11  C   UNL d   1      12.804  11.779  -3.322  0.00  0.00     0.021 A 
ATOM     12  C   UNL d   1      13.939  12.647  -3.348  0.00  0.00     0.101 A 
ATOM     13  C   UNL d   1      12.775  11.789  -4.153  0.00  0.00     0.002 A 
ATOM     14  C   UNL d   1      13.330  12.229  -4.577  0.00  0.00     0.002 A 
ATOM     15  C   UNL d   1      13.914  12.659  -4.172  0.00  0.00     0.021 A 
ATOM     16  N   UNL d   1      14.438  13.008  -2.809  0.00  0.00    -0.225 NA
ENDBRANCH   1   8
BRANCH   3  17
ATOM     17  C   UNL d   1      15.275  14.584  -0.027  0.00  0.00     0.082 C 
BRANCH  17  18
ATOM     18  C   UNL d   1      15.591  15.213  -0.435  0.00  0.00     0.019 C 
BRANCH  18  19
ATOM     19  C   UNL d   1      15.349  15.982  -0.257  0.00  0.00     0.002 C 
ATOM     20  C   UNL d   1      15.681  16.614  -0.656  0.00  0.00     0.000 C 
ENDBRANCH  18  19
ENDBRANCH  17  18
ENDBRANCH   3  17
TORSDOF 4
ENDMDL
MODEL 2
REMARK VINA RESULT:      25.9      1.045      4.203
REMARK  4 active torsions:
REMARK  status: ('A' for Active; 'I' for Inactive)
REMARK    1  A    between atoms: C_2  and  C_1 
REMARK    2  A    between atoms: C_13  and  N_5 
REMARK    3  A    between atoms: C_16  and  C_13 
REMARK    4  A    between atoms: C_17  and  C_16 
ROOT
ATOM      1  C   UNL d   1      13.690  12.709  -2.465  0.00  0.00     0.112 A 
ATOM      2  C   UNL d   1      13.706  12.874  -3.270  0.00  0.00     0.176 A 
ATOM      3  N   UNL d   1      13.148  12.387  -3.646  0.00  0.00    -0.285 N 
ATOM      4  C   UNL d   1      13.122  12.119  -2.343  0.00  0.00     0.219 A 
ATOM      5  C   UNL d   1      12.793  11.925  -3.068  0.00  0.00     0.124 A 
ATOM      6  O   UNL d   1      12.919  11.780  -1.609  0.00  0.00    -0.285 OA
ATOM      7  N   UNL d   1      14.199  13.434  -3.639  0.00  0.00    -0.128 N 
ENDROOT
BRANCH   1   8
ATOM      8  C   UNL d   1      14.168  13.081  -1.902  0.00  0.00     0.169 A 
ATOM      9  N   UNL d   1      14.141  13.858  -1.623  0.00  0.00    -0.225 NA
ATOM     10  C   UNL d   1      14.737  13.951  -1.067  0.00  0.00     0.101 A 
ATOM     11  C   UNL d   1      14.970  14.598  -0.613  0.00  0.00     0.021 A 
ATOM     12  C   UNL d   1      15.137  13.231  -0.998  0.00  0.00     0.101 A 
ATOM     13  C   UNL d   1      15.607  14.528  -0.084  0.00  0.00     0.002 A 
ATOM     14  C   UNL d   1      16.006  13.808  -0.015  0.00  0.00     0.002 A 
ATOM     15  C   UNL d   1      15.769  13.158  -0.475  0.00  0.00     0.021 A 
ATOM     16  N   UNL d   1      14.785  12.699  -1.512  0.00  0.00    -0.225 NA
ENDBRANCH   1   8
BRANCH   3  17
ATOM     17  C   UNL d   1      12.983  12.374  -4.459  0.00  0.00     0.082 C 
BRANCH  17  18
ATOM     18  C   UNL d   1      13.470  11.955  -4.958  0.00  0.00     0.019 C 
BRANCH  18  19
ATOM     19  C   UNL d   1      13.219  11.779  -5.725  0.00  0.00     0.002 C 
ATOM     20  C   UNL d   1      13.727  11.899  -6.355  0.00  0.00     0.000 C 
ENDBRANCH  18  19
ENDBRANCH  17  18
ENDBRANCH   3  17
TORSDOF 4
ENDMDL
MODEL 3
REMARK VINA RESULT:      27.5      2.096      3.731
REMARK  4 active torsions:
REMARK  status: ('A' for Active; 'I' for Inactive)
REMARK    1  A    between atoms: C_2  and  C_1 
REMARK    2  A    between atoms: C_13  and  N_5 
REMARK    3  A    between atoms: C_16  and  C_13 
REMARK    4  A    between atoms: C_17  and  C_16 
ROOT
ATOM      1  C   UNL d   1      13.527  13.034  -3.301  0.00  0.00     0.112 A 
ATOM      2  C   UNL d   1      13.493  13.833  -3.497  0.00  0.00     0.176 A 
ATOM      3  N   UNL d   1      13.157  13.900  -4.254  0.00  0.00    -0.285 N 
ATOM      4  C   UNL d   1      13.210  12.608  -3.937  0.00  0.00     0.219 A 
ATOM      5  C   UNL d   1      12.985  13.142  -4.517  0.00  0.00     0.124 A 
ATOM      6  O   UNL d   1      13.133  11.779  -3.981  0.00  0.00    -0.285 OA
ATOM      7  N   UNL d   1      13.754  14.459  -3.016  0.00  0.00    -0.128 N 
ENDROOT
BRANCH   1   8
ATOM      8  C   UNL d   1      13.827  12.741  -2.590  0.00  0.00     0.169 A 
ATOM      9  N   UNL d   1      14.608  12.568  -2.382  0.00  0.00    -0.225 NA
ATOM     10  C   UNL d   1      14.612  12.290  -1.610  0.00  0.00     0.101 A 
ATOM     11  C   UNL d   1      15.224  12.037  -1.120  0.00  0.00     0.021 A 
ATOM     12  C   UNL d   1      13.834  12.289  -1.335  0.00  0.00     0.101 A 
ATOM     13  C   UNL d   1      15.060  11.780  -0.347  0.00  0.00     0.002 A 
ATOM     14  C   UNL d   1      14.281  11.779  -0.072  0.00  0.00     0.002 A 
ATOM     15  C   UNL d   1      13.667  12.035  -0.569  0.00  0.00     0.021 A 
ATOM     16  N   UNL d   1      13.355  12.567  -1.939  0.00  0.00    -0.225 NA
ENDBRANCH   1   8
BRANCH   3  17
ATOM     17  C   UNL d   1      13.020  14.608  -4.664  0.00  0.00     0.082 C 
BRANCH  17  18
ATOM     18  C   UNL d   1      13.538  14.837  -5.248  0.00  0.00     0.019 C 
BRANCH  18  19
ATOM     19  C   UNL d   1      13.446  15.572  -5.614  0.00  0.00     0.002 C 
ATOM     20  C   UNL d   1      14.057  15.879  -6.064  0.00  0.00     0.000 C 
ENDBRANCH  18  19
ENDBRANCH  17  18
ENDBRANCH   3  17
TORSDOF 4
ENDMDL
