MODEL 1
REMARK VINA RESULT:      40.0      0.000      0.000
REMARK  7 active torsions:
REMARK  status: ('A' for Active; 'I' for Inactive)
REMARK    1  A    between atoms: N_3  and  S_1 
REMARK    2  A    between atoms: C_7  and  S_1 
REMARK    3  A    between atoms: N_2  and  C_6 
REMARK    4  A    between atoms: C_5  and  N_3 
REMARK    5  A    between atoms: C_10  and  N_4 
REMARK    6  A    between atoms: C_6  and  C_5 
REMARK    7  A    between atoms: C_11  and  C_6 
ROOT
ATOM      1  C   UNL d   1      46.291 -18.450  43.212  0.00  0.00     0.086 C 
ENDROOT
BRANCH   1   2
ATOM      2  N   UNL d   1      46.160 -17.660  43.467  0.00  0.00    -0.300 N 
ATOM      3  C   UNL d   1      46.383 -17.423  44.229  0.00  0.00     0.100 A 
ATOM      4  C   UNL d   1      46.253 -16.649  44.476  0.00  0.00     0.100 A 
ATOM      5  N   UNL d   1      45.900 -16.109  43.963  0.00  0.00    -0.301 N 
ATOM      6  C   UNL d   1      45.677 -16.346  43.200  0.00  0.00     0.100 A 
ATOM      7  C   UNL d   1      45.807 -17.121  42.954  0.00  0.00     0.100 A 
BRANCH   5   8
ATOM      8  C   UNL d   1      45.770 -15.335  44.210  0.00  0.00     0.064 A 
ATOM      9  C   UNL d   1      45.018 -15.104  44.454  0.00  0.00     0.020 A 
ATOM     10  C   UNL d   1      44.885 -14.327  44.702  0.00  0.00     0.031 A 
ATOM     11  C   UNL d   1      45.506 -13.783  44.705  0.00  0.00     0.140 A 
ATOM     12  C   UNL d   1      46.259 -14.017  44.460  0.00  0.00     0.031 A 
ATOM     13  F   UNL d   1      45.379 -12.995  44.955  0.00  0.00    -0.204 F 
ATOM     14  C   UNL d   1      46.391 -14.792  44.213  0.00  0.00     0.020 A 
ENDBRANCH   5   8
ENDBRANCH   1   2
BRANCH   1  15
ATOM     15  C   UNL d   1      46.551 -18.605  42.439  0.00  0.00     0.130 C 
BRANCH  15  16
ATOM     16  N   UNL d   1      46.035 -18.964  41.890  0.00  0.00    -0.155 NA
BRANCH  16  17
ATOM     17  S   UNL d   1      46.334 -19.381  41.252  0.00  0.00     0.285 S 
ATOM     18  O   UNL d   1      46.638 -19.806  40.602  0.00  0.00    -0.198 OA
ATOM     19  O   UNL d   1      46.636 -19.958  41.763  0.00  0.00    -0.198 OA
BRANCH  17  20
ATOM     20  C   UNL d   1      46.032 -18.803  40.733  0.00  0.00     0.105 A 
ATOM     21  C   UNL d   1      45.227 -18.623  40.748  0.00  0.00     0.015 A 
ATOM     22  C   UNL d   1      44.921 -18.053  40.238  0.00  0.00     0.030 A 
ATOM     23  C   UNL d   1      45.432 -17.657  39.704  0.00  0.00     0.140 A 
ATOM     24  C   UNL d   1      46.240 -17.841  39.691  0.00  0.00     0.030 A 
ATOM     25  F   UNL d   1      45.135 -17.071  39.175  0.00  0.00    -0.204 F 
ATOM     26  C   UNL d   1      46.539 -18.415  40.208  0.00  0.00     0.015 A 
ENDBRANCH  17  20
ENDBRANCH  16  17
ENDBRANCH  15  16
ENDBRANCH   1  15
BRANCH   1  27
ATOM     27  C   UNL d   1      46.159 -19.080  43.740  0.00  0.00     0.037 A 
ATOM     28  C   UNL d   1      46.629 -19.146  44.413  0.00  0.00     0.100 A 
ATOM     29  N   UNL d   1      46.504 -19.768  44.941  0.00  0.00    -0.242 NA
ATOM     30  C   UNL d   1      45.907 -20.318  44.789  0.00  0.00     0.099 A 
ATOM     31  C   UNL d   1      45.437 -20.252  44.117  0.00  0.00     0.021 A 
ATOM     32  C   UNL d   1      45.565 -19.630  43.591  0.00  0.00     0.005 A 
ENDBRANCH   1  27
TORSDOF 7
ENDMDL
