MODEL 1
REMARK VINA RESULT:      11.3      0.000      0.000
REMARK  2 active torsions:
REMARK  status: ('A' for Active; 'I' for Inactive)
REMARK    1  A    between atoms: C_3  and  C_1 
REMARK       I    between atoms: C_2  and  N_4 
REMARK    2  A    between atoms: N_4  and  C_7 
ROOT
ATOM      1  C   UNL d   1     -58.478 -98.767 -44.055  0.00  0.00     0.073 A 
ATOM      2  C   UNL d   1     -57.699 -98.765 -43.778  0.00  0.00     0.024 A 
ATOM      3  C   UNL d   1     -57.073 -98.759 -44.315  0.00  0.00     0.100 A 
ATOM      4  C   UNL d   1     -58.629 -98.764 -44.864  0.00  0.00     0.004 A 
ATOM      5  C   UNL d   1     -58.003 -98.758 -45.401  0.00  0.00     0.002 A 
ATOM      6  C   UNL d   1     -57.225 -98.756 -45.128  0.00  0.00     0.020 A 
ENDROOT
BRANCH   1   7
ATOM      7  C   UNL d   1     -59.111 -98.773 -43.513  0.00  0.00     0.419 C 
ATOM      8  F   UNL d   1     -59.681 -98.778 -43.025  0.00  0.00    -0.166 F 
ATOM      9  F   UNL d   1     -59.959 -98.794 -43.670  0.00  0.00    -0.166 F 
ATOM     10  F   UNL d   1     -59.089 -98.759 -42.654  0.00  0.00    -0.166 F 
ENDBRANCH   1   7
BRANCH   3  11
ATOM     11  N   UNL d   1     -56.293 -98.757 -44.046  0.00  0.00    -0.056 NA
ATOM     12  C   UNL d   1     -55.673 -98.766 -44.582  0.00  0.00     0.787 C 
ATOM     13  N   UNL d   1     -54.894 -98.764 -44.317  0.00  0.00     0.064 N 
ATOM     14  N   UNL d   1     -55.834 -98.777 -45.390  0.00  0.00     0.064 N 
ENDBRANCH   3  11
TORSDOF 2
ENDMDL
MODEL 2
REMARK VINA RESULT:      13.7      2.851      3.739
REMARK  2 active torsions:
REMARK  status: ('A' for Active; 'I' for Inactive)
REMARK    1  A    between atoms: C_3  and  C_1 
REMARK       I    between atoms: C_2  and  N_4 
REMARK    2  A    between atoms: N_4  and  C_7 
ROOT
ATOM      1  C   UNL d   1     -55.244-100.335 -44.477  0.00  0.00     0.073 A 
ATOM      2  C   UNL d   1     -56.014-100.136 -44.703  0.00  0.00     0.024 A 
ATOM      3  C   UNL d   1     -56.253 -99.346 -44.699  0.00  0.00     0.100 A 
ATOM      4  C   UNL d   1     -54.716 -99.746 -44.248  0.00  0.00     0.004 A 
ATOM      5  C   UNL d   1     -54.955 -98.957 -44.244  0.00  0.00     0.002 A 
ATOM      6  C   UNL d   1     -55.721 -98.756 -44.469  0.00  0.00     0.020 A 
ENDROOT
BRANCH   1   7
ATOM      7  C   UNL d   1     -55.004-101.133 -44.481  0.00  0.00     0.419 C 
ATOM      8  F   UNL d   1     -54.787-101.851 -44.484  0.00  0.00    -0.166 F 
ATOM      9  F   UNL d   1     -54.984-101.690 -45.139  0.00  0.00    -0.166 F 
ATOM     10  F   UNL d   1     -54.711-101.614 -43.831  0.00  0.00    -0.166 F 
ENDBRANCH   1   7
BRANCH   3  11
ATOM     11  N   UNL d   1     -57.020 -99.141 -44.924  0.00  0.00    -0.056 NA
ATOM     12  C   UNL d   1     -57.581 -98.961 -44.354  0.00  0.00     0.787 C 
ATOM     13  N   UNL d   1     -58.347 -98.756 -44.574  0.00  0.00     0.064 N 
ATOM     14  N   UNL d   1     -57.373 -98.987 -43.556  0.00  0.00     0.064 N 
ENDBRANCH   3  11
TORSDOF 2
ENDMDL
MODEL 3
REMARK VINA RESULT:      14.3      7.161      7.694
REMARK  2 active torsions:
REMARK  status: ('A' for Active; 'I' for Inactive)
REMARK    1  A    between atoms: C_3  and  C_1 
REMARK       I    between atoms: C_2  and  N_4 
REMARK    2  A    between atoms: N_4  and  C_7 
ROOT
ATOM      1  C   UNL d   1     -55.725-102.578 -37.419  0.00  0.00     0.073 A 
ATOM      2  C   UNL d   1     -55.195-102.577 -38.054  0.00  0.00     0.024 A 
ATOM      3  C   UNL d   1     -55.469-102.727 -38.818  0.00  0.00     0.100 A 
ATOM      4  C   UNL d   1     -56.524-102.729 -37.549  0.00  0.00     0.004 A 
ATOM      5  C   UNL d   1     -56.798-102.879 -38.313  0.00  0.00     0.002 A 
ATOM      6  C   UNL d   1     -56.272-102.878 -38.947  0.00  0.00     0.020 A 
ENDROOT
BRANCH   1   7
ATOM      7  C   UNL d   1     -55.449-102.427 -36.648  0.00  0.00     0.419 C 
ATOM      8  F   UNL d   1     -55.201-102.290 -35.954  0.00  0.00    -0.166 F 
ATOM      9  F   UNL d   1     -55.616-102.856 -35.919  0.00  0.00    -0.166 F 
ATOM     10  F   UNL d   1     -54.926-101.803 -36.372  0.00  0.00    -0.166 F 
ENDBRANCH   1   7
BRANCH   3  11
ATOM     11  N   UNL d   1     -54.945-102.727 -39.456  0.00  0.00    -0.056 NA
ATOM     12  C   UNL d   1     -55.230-102.791 -40.221  0.00  0.00     0.787 C 
ATOM     13  N   UNL d   1     -54.711-102.791 -40.860  0.00  0.00     0.064 N 
ATOM     14  N   UNL d   1     -56.043-102.854 -40.349  0.00  0.00     0.064 N 
ENDBRANCH   3  11
TORSDOF 2
ENDMDL
