MODEL 1
REMARK VINA RESULT:      -7.9      0.000      0.000
REMARK  9 active torsions:
REMARK  status: ('A' for Active; 'I' for Inactive)
REMARK    1  A    between atoms: C_14  and  N_1 
REMARK    2  A    between atoms: C_8  and  C_2 
REMARK    3  A    between atoms: C_3  and  N_11 
REMARK    4  A    between atoms: S_16  and  C_4 
REMARK    5  A    between atoms: C_10  and  C_8 
REMARK       I    between atoms: N_11  and  C_17 
REMARK    6  A    between atoms: C_23  and  C_14 
REMARK    7  A    between atoms: C_22  and  S_16 
REMARK    8  A    between atoms: C_17  and  C_22 
REMARK    9  A    between atoms: C_25  and  C_23 
ROOT
ATOM      1  N   UNL d   1      52.590  32.600  53.390  0.00  0.00    -0.268 N 
ATOM      2  C   UNL d   1      52.726  31.821  53.148  0.00  0.00     0.172 A 
ATOM      3  C   UNL d   1      51.985  32.913  52.927  0.00  0.00     0.201 A 
ATOM      4  N   UNL d   1      52.205  31.652  52.536  0.00  0.00    -0.128 NA
ATOM      5  N   UNL d   1      51.744  32.322  52.393  0.00  0.00    -0.121 NA
ENDROOT
BRANCH   3   6
ATOM      6  S   UNL d   1      51.673  33.669  52.978  0.00  0.00    -0.043 SA
BRANCH   6   7
ATOM      7  C   UNL d   1      51.119  33.928  52.425  0.00  0.00     0.101 C 
BRANCH   7   8
ATOM      8  C   UNL d   1      50.542  34.478  52.645  0.00  0.00     0.288 C 
ATOM      9  N   UNL d   1      49.769  34.379  52.391  0.00  0.00    -0.182 NA
ATOM     10  O   UNL d   1      50.745  35.121  53.119  0.00  0.00    -0.265 OA
BRANCH   9  11
ATOM     11  C   UNL d   1      49.193  34.921  52.606  0.00  0.00     0.197 A 
ATOM     12  N   UNL d   1      49.072  35.230  53.365  0.00  0.00    -0.221 NA
ATOM     13  C   UNL d   1      48.439  35.751  53.330  0.00  0.00     0.090 A 
ATOM     14  C   UNL d   1      48.076  36.212  53.901  0.00  0.00     0.020 A 
ATOM     15  C   UNL d   1      48.160  35.771  52.553  0.00  0.00     0.050 A 
ATOM     16  C   UNL d   1      47.436  36.694  53.706  0.00  0.00     0.002 A 
ATOM     17  C   UNL d   1      47.162  36.709  52.925  0.00  0.00     0.001 A 
ATOM     18  C   UNL d   1      47.520  36.254  52.357  0.00  0.00     0.008 A 
ATOM     19  S   UNL d   1      48.621  35.259  52.093  0.00  0.00    -0.047 SA
ENDBRANCH   9  11
ENDBRANCH   7   8
ENDBRANCH   6   7
ENDBRANCH   3   6
BRANCH   1  20
ATOM     20  C   UNL d   1      52.992  32.994  53.993  0.00  0.00     0.084 C 
BRANCH  20  21
ATOM     21  C   UNL d   1      53.662  33.457  53.811  0.00  0.00     0.019 C 
BRANCH  21  22
ATOM     22  C   UNL d   1      54.198  33.667  54.408  0.00  0.00     0.002 A 
ATOM     23  C   UNL d   1      53.918  34.004  55.100  0.00  0.00     0.000 A 
ATOM     24  C   UNL d   1      54.454  34.211  55.692  0.00  0.00     0.000 A 
ATOM     25  C   UNL d   1      55.265  34.077  55.581  0.00  0.00     0.000 A 
ATOM     26  C   UNL d   1      55.540  33.736  54.878  0.00  0.00     0.000 A 
ATOM     27  C   UNL d   1      54.995  33.533  54.294  0.00  0.00     0.000 A 
ENDBRANCH  21  22
ENDBRANCH  20  21
ENDBRANCH   1  20
BRANCH   2  28
ATOM     28  C   UNL d   1      53.286  31.303  53.466  0.00  0.00     0.057 C 
BRANCH  28  29
ATOM     29  C   UNL d   1      53.185  30.490  53.394  0.00  0.00     0.067 A 
ATOM     30  N   UNL d   1      53.231  29.934  54.004  0.00  0.00    -0.303 N 
ATOM     31  C   UNL d   1      53.093  29.187  53.681  0.00  0.00     0.080 A 
ATOM     32  C   UNL d   1      53.387  30.103  54.795  0.00  0.00     0.100 C 
ATOM     33  C   UNL d   1      52.962  29.274  52.874  0.00  0.00     0.021 A 
ATOM     34  C   UNL d   1      53.017  30.076  52.693  0.00  0.00     0.019 A 
ENDBRANCH  28  29
ENDBRANCH   2  28
TORSDOF 9
ENDMDL
MODEL 2
REMARK VINA RESULT:      -7.7      1.129      3.070
REMARK  9 active torsions:
REMARK  status: ('A' for Active; 'I' for Inactive)
REMARK    1  A    between atoms: C_14  and  N_1 
REMARK    2  A    between atoms: C_8  and  C_2 
REMARK    3  A    between atoms: C_3  and  N_11 
REMARK    4  A    between atoms: S_16  and  C_4 
REMARK    5  A    between atoms: C_10  and  C_8 
REMARK       I    between atoms: N_11  and  C_17 
REMARK    6  A    between atoms: C_23  and  C_14 
REMARK    7  A    between atoms: C_22  and  S_16 
REMARK    8  A    between atoms: C_17  and  C_22 
REMARK    9  A    between atoms: C_25  and  C_23 
ROOT
ATOM      1  N   UNL d   1      52.520  33.380  53.426  0.00  0.00    -0.268 N 
ATOM      2  C   UNL d   1      53.276  33.674  53.584  0.00  0.00     0.172 A 
ATOM      3  C   UNL d   1      52.035  34.013  53.220  0.00  0.00     0.201 A 
ATOM      4  N   UNL d   1      53.259  34.487  53.477  0.00  0.00    -0.128 NA
ATOM      5  N   UNL d   1      52.495  34.705  53.252  0.00  0.00    -0.121 NA
ENDROOT
BRANCH   3   6
ATOM      6  S   UNL d   1      51.241  33.973  53.020  0.00  0.00    -0.043 SA
BRANCH   6   7
ATOM      7  C   UNL d   1      50.705  34.516  53.335  0.00  0.00     0.101 C 
BRANCH   7   8
ATOM      8  C   UNL d   1      49.973  34.633  52.969  0.00  0.00     0.288 C 
ATOM      9  N   UNL d   1      49.544  35.314  53.126  0.00  0.00    -0.182 NA
ATOM     10  O   UNL d   1      49.676  34.065  52.450  0.00  0.00    -0.265 OA
BRANCH   9  11
ATOM     11  C   UNL d   1      48.818  35.434  52.766  0.00  0.00     0.197 A 
ATOM     12  N   UNL d   1      48.621  35.240  51.985  0.00  0.00    -0.221 NA
ATOM     13  C   UNL d   1      47.840  35.456  51.858  0.00  0.00     0.090 A 
ATOM     14  C   UNL d   1      47.354  35.398  51.202  0.00  0.00     0.020 A 
ATOM     15  C   UNL d   1      47.543  35.785  52.556  0.00  0.00     0.050 A 
ATOM     16  C   UNL d   1      46.575  35.665  51.232  0.00  0.00     0.002 A 
ATOM     17  C   UNL d   1      46.284  35.994  51.935  0.00  0.00     0.001 A 
ATOM     18  C   UNL d   1      46.763  36.052  52.586  0.00  0.00     0.008 A 
ATOM     19  S   UNL d   1      48.142  35.777  53.128  0.00  0.00    -0.047 SA
ENDBRANCH   9  11
ENDBRANCH   7   8
ENDBRANCH   6   7
ENDBRANCH   3   6
BRANCH   1  20
ATOM     20  C   UNL d   1      52.292  32.587  53.468  0.00  0.00     0.084 C 
BRANCH  20  21
ATOM     21  C   UNL d   1      52.494  32.065  52.850  0.00  0.00     0.019 C 
BRANCH  21  22
ATOM     22  C   UNL d   1      52.503  31.247  52.983  0.00  0.00     0.002 A 
ATOM     23  C   UNL d   1      51.868  30.893  53.360  0.00  0.00     0.000 A 
ATOM     24  C   UNL d   1      51.881  30.079  53.491  0.00  0.00     0.000 A 
ATOM     25  C   UNL d   1      52.532  29.629  53.242  0.00  0.00     0.000 A 
ATOM     26  C   UNL d   1      53.171  29.994  52.862  0.00  0.00     0.000 A 
ATOM     27  C   UNL d   1      53.147  30.809  52.736  0.00  0.00     0.000 A 
ENDBRANCH  21  22
ENDBRANCH  20  21
ENDBRANCH   1  20
BRANCH   2  28
ATOM     28  C   UNL d   1      53.934  33.228  53.811  0.00  0.00     0.057 C 
BRANCH  28  29
ATOM     29  C   UNL d   1      54.422  33.490  54.419  0.00  0.00     0.067 A 
ATOM     30  N   UNL d   1      55.245  33.564  54.391  0.00  0.00    -0.303 N 
ATOM     31  C   UNL d   1      55.502  33.846  55.124  0.00  0.00     0.080 A 
ATOM     32  C   UNL d   1      55.720  33.386  53.743  0.00  0.00     0.100 C 
ATOM     33  C   UNL d   1      54.844  33.947  55.607  0.00  0.00     0.021 A 
ATOM     34  C   UNL d   1      54.176  33.729  55.176  0.00  0.00     0.019 A 
ENDBRANCH  28  29
ENDBRANCH   2  28
TORSDOF 9
ENDMDL
