MODEL 1
REMARK VINA RESULT:      79.5      0.000      0.000
REMARK  4 active torsions:
REMARK  status: ('A' for Active; 'I' for Inactive)
REMARK    1  A    between atoms: C_7  and  C_1 
REMARK    2  A    between atoms: N_5  and  C_3 
REMARK       I    between atoms: C_8  and  N_5 
REMARK    3  A    between atoms: C_9  and  C_8 
REMARK    4  A    between atoms: O_21  and  C_15 
ROOT
ATOM      1  C   UNL d   1      58.383  49.298  50.365  0.00  0.00     0.137 A 
ATOM      2  S   UNL d   1      58.893  48.738  50.042  0.00  0.00    -0.026 SA
ATOM      3  C   UNL d   1      59.617  48.791  50.425  0.00  0.00     0.219 A 
ATOM      4  N   UNL d   1      58.801  49.707  50.962  0.00  0.00    -0.139 NA
ATOM      5  N   UNL d   1      59.562  49.394  50.999  0.00  0.00    -0.121 NA
ENDROOT
BRANCH   3   6
ATOM      6  N   UNL d   1      60.283  48.331  50.274  0.00  0.00    -0.181 NA
ATOM      7  C   UNL d   1      61.029  48.315  50.634  0.00  0.00     0.281 C 
ATOM      8  O   UNL d   1      61.193  48.820  51.254  0.00  0.00    -0.265 OA
BRANCH   7   9
ATOM      9  C   UNL d   1      61.599  47.784  50.359  0.00  0.00     0.060 A 
ATOM     10  C   UNL d   1      61.357  47.054  50.059  0.00  0.00     0.031 A 
ATOM     11  C   UNL d   1      61.915  46.524  49.785  0.00  0.00     0.119 A 
ATOM     12  O   UNL d   1      61.848  45.771  49.462  0.00  0.00    -0.300 OA
ATOM     13  C   UNL d   1      62.716  46.717  49.807  0.00  0.00     0.119 A 
ATOM     14  C   UNL d   1      62.609  45.494  49.282  0.00  0.00     0.304 A 
ATOM     15  O   UNL d   1      63.147  46.084  49.498  0.00  0.00    -0.300 OA
ATOM     16  C   UNL d   1      62.958  47.447  50.106  0.00  0.00     0.026 A 
ATOM     17  C   UNL d   1      62.399  47.980  50.382  0.00  0.00     0.007 A 
ENDBRANCH   7   9
ENDBRANCH   3   6
BRANCH   1  18
ATOM     18  C   UNL d   1      57.598  49.435  50.142  0.00  0.00     0.048 A 
ATOM     19  C   UNL d   1      57.010  49.572  50.715  0.00  0.00     0.096 A 
ATOM     20  C   UNL d   1      56.239  49.707  50.495  0.00  0.00     0.024 A 
ATOM     21  C   UNL d   1      56.037  49.708  49.691  0.00  0.00     0.002 A 
ATOM     22  C   UNL d   1      56.604  49.574  49.120  0.00  0.00     0.000 A 
ATOM     23  C   UNL d   1      57.389  49.438  49.350  0.00  0.00     0.004 A 
BRANCH  19  24
ATOM     24  O   UNL d   1      57.220  49.570  51.506  0.00  0.00    -0.328 OA
ATOM     25  C   UNL d   1      56.632  49.578  52.086  0.00  0.00     0.181 C 
ENDBRANCH  19  24
ENDBRANCH   1  18
TORSDOF 4
ENDMDL
