MODEL 1
REMARK VINA RESULT:      -7.3      0.000      0.000
REMARK  5 active torsions:
REMARK  status: ('A' for Active; 'I' for Inactive)
REMARK    1  A    between atoms: C_2  and  C_1 
REMARK       I    between atoms: N_3  and  C_1 
REMARK    2  A    between atoms: C_8  and  N_3 
REMARK    3  A    between atoms: N_4  and  C_9 
REMARK    4  A    between atoms: N_5  and  N_4 
REMARK    5  A    between atoms: C_10  and  N_5 
ROOT
ATOM      1  C   UNL d   1     -47.713  14.106  22.996  0.00  0.00     0.085 A 
ATOM      2  C   UNL d   1     -46.196  13.479  22.794  0.00  0.00     0.103 A 
ATOM      3  C   UNL d   1     -47.065  14.608  22.897  0.00  0.00     0.021 A 
ATOM      4  C   UNL d   1     -47.598  13.290  22.993  0.00  0.00     0.021 A 
ATOM      5  C   UNL d   1     -46.845  12.977  22.893  0.00  0.00     0.022 A 
ATOM      6  C   UNL d   1     -46.303  14.297  22.796  0.00  0.00     0.022 A 
ENDROOT
BRANCH   1   7
ATOM      7  N   UNL d   1     -48.473  14.419  23.097  0.00  0.00    -0.208 NA
ATOM      8  C   UNL d   1     -48.935  14.606  22.437  0.00  0.00     0.280 C 
ATOM      9  O   UNL d   1     -48.732  14.520  21.639  0.00  0.00    -0.265 OA
BRANCH   8  10
ATOM     10  C   UNL d   1     -49.636  14.896  22.750  0.00  0.00     0.069 A 
ATOM     11  C   UNL d   1     -50.354  14.616  22.461  0.00  0.00     0.062 A 
ATOM     12 CL   UNL d   1     -50.374  14.051  21.866  0.00  0.00    -0.082 Cl
ATOM     13  C   UNL d   1     -51.064  14.908  22.777  0.00  0.00     0.012 A 
ATOM     14  C   UNL d   1     -51.043  15.478  23.378  0.00  0.00     0.001 A 
ATOM     15  C   UNL d   1     -50.316  15.749  23.656  0.00  0.00     0.000 A 
ATOM     16  C   UNL d   1     -49.618  15.459  23.344  0.00  0.00     0.006 A 
ENDBRANCH   8  10
ENDBRANCH   1   7
BRANCH   2  17
ATOM     17  N   UNL d   1     -45.440  13.163  22.694  0.00  0.00    -0.148 NA
BRANCH  17  18
ATOM     18  N   UNL d   1     -45.154  13.016  21.935  0.00  0.00    -0.148 NA
BRANCH  18  19
ATOM     19  C   UNL d   1     -44.360  12.809  21.824  0.00  0.00     0.103 A 
ATOM     20  C   UNL d   1     -43.894  13.221  21.285  0.00  0.00     0.021 A 
ATOM     21  C   UNL d   1     -43.109  13.015  21.176  0.00  0.00     0.002 A 
ATOM     22  C   UNL d   1     -42.781  12.391  21.609  0.00  0.00     0.000 A 
ATOM     23  C   UNL d   1     -43.240  11.974  22.151  0.00  0.00     0.002 A 
ATOM     24  C   UNL d   1     -44.032  12.185  22.257  0.00  0.00     0.021 A 
ENDBRANCH  18  19
ENDBRANCH  17  18
ENDBRANCH   2  17
TORSDOF 5
ENDMDL
MODEL 2
REMARK VINA RESULT:      -6.3      1.976      5.846
REMARK  5 active torsions:
REMARK  status: ('A' for Active; 'I' for Inactive)
REMARK    1  A    between atoms: C_2  and  C_1 
REMARK       I    between atoms: N_3  and  C_1 
REMARK    2  A    between atoms: C_8  and  N_3 
REMARK    3  A    between atoms: N_4  and  C_9 
REMARK    4  A    between atoms: N_5  and  N_4 
REMARK    5  A    between atoms: C_10  and  N_5 
ROOT
ATOM      1  C   UNL d   1     -46.400  12.623  23.192  0.00  0.00     0.085 A 
ATOM      2  C   UNL d   1     -47.634  13.714  23.029  0.00  0.00     0.103 A 
ATOM      3  C   UNL d   1     -46.245  13.434  23.214  0.00  0.00     0.021 A 
ATOM      4  C   UNL d   1     -47.175  12.362  23.089  0.00  0.00     0.021 A 
ATOM      5  C   UNL d   1     -47.789  12.902  23.008  0.00  0.00     0.022 A 
ATOM      6  C   UNL d   1     -46.861  13.984  23.133  0.00  0.00     0.022 A 
ENDROOT
BRANCH   1   7
ATOM      7  N   UNL d   1     -45.784  12.078  23.274  0.00  0.00    -0.208 NA
ATOM      8  C   UNL d   1     -45.183  12.044  22.707  0.00  0.00     0.280 C 
ATOM      9  O   UNL d   1     -45.105  12.509  22.025  0.00  0.00    -0.265 OA
BRANCH   8  10
ATOM     10  C   UNL d   1     -44.682  11.449  22.969  0.00  0.00     0.069 A 
ATOM     11  C   UNL d   1     -43.886  11.469  22.761  0.00  0.00     0.062 A 
ATOM     12 CL   UNL d   1     -43.590  12.077  22.295  0.00  0.00    -0.082 Cl
ATOM     13  C   UNL d   1     -43.378  10.868  23.026  0.00  0.00     0.012 A 
ATOM     14  C   UNL d   1     -43.677  10.255  23.497  0.00  0.00     0.001 A 
ATOM     15  C   UNL d   1     -44.477  10.249  23.696  0.00  0.00     0.000 A 
ATOM     16  C   UNL d   1     -44.974  10.843  23.434  0.00  0.00     0.006 A 
ENDBRANCH   8  10
ENDBRANCH   1   7
BRANCH   2  17
ATOM     17  N   UNL d   1     -48.251  14.254  22.948  0.00  0.00    -0.148 NA
BRANCH  17  18
ATOM     18  N   UNL d   1     -49.018  14.038  23.161  0.00  0.00    -0.148 NA
BRANCH  18  19
ATOM     19  C   UNL d   1     -49.626  14.601  23.150  0.00  0.00     0.103 A 
ATOM     20  C   UNL d   1     -50.293  14.482  22.683  0.00  0.00     0.021 A 
ATOM     21  C   UNL d   1     -50.894  15.039  22.673  0.00  0.00     0.002 A 
ATOM     22  C   UNL d   1     -50.831  15.723  23.133  0.00  0.00     0.000 A 
ATOM     23  C   UNL d   1     -50.167  15.849  23.604  0.00  0.00     0.002 A 
ATOM     24  C   UNL d   1     -49.563  15.285  23.611  0.00  0.00     0.021 A 
ENDBRANCH  18  19
ENDBRANCH  17  18
ENDBRANCH   2  17
TORSDOF 5
ENDMDL
MODEL 3
REMARK VINA RESULT:      -4.9      2.359      3.803
REMARK  5 active torsions:
REMARK  status: ('A' for Active; 'I' for Inactive)
REMARK    1  A    between atoms: C_2  and  C_1 
REMARK       I    between atoms: N_3  and  C_1 
REMARK    2  A    between atoms: C_8  and  N_3 
REMARK    3  A    between atoms: N_4  and  C_9 
REMARK    4  A    between atoms: N_5  and  N_4 
REMARK    5  A    between atoms: C_10  and  N_5 
ROOT
ATOM      1  C   UNL d   1     -44.620  12.543  22.146  0.00  0.00     0.085 A 
ATOM      2  C   UNL d   1     -43.158  12.910  21.465  0.00  0.00     0.103 A 
ATOM      3  C   UNL d   1     -44.566  13.127  21.564  0.00  0.00     0.021 A 
ATOM      4  C   UNL d   1     -43.939  12.145  22.385  0.00  0.00     0.021 A 
ATOM      5  C   UNL d   1     -43.212  12.326  22.048  0.00  0.00     0.022 A 
ATOM      6  C   UNL d   1     -43.834  13.313  21.220  0.00  0.00     0.022 A 
ENDROOT
BRANCH   1   7
ATOM      7  N   UNL d   1     -45.351  12.359  22.487  0.00  0.00    -0.208 NA
ATOM      8  C   UNL d   1     -45.821  12.959  22.808  0.00  0.00     0.280 C 
ATOM      9  O   UNL d   1     -45.652  13.770  22.840  0.00  0.00    -0.265 OA
BRANCH   8  10
ATOM     10  C   UNL d   1     -46.489  12.573  23.088  0.00  0.00     0.069 A 
ATOM     11  C   UNL d   1     -47.222  12.944  23.036  0.00  0.00     0.062 A 
ATOM     12 CL   UNL d   1     -47.290  13.693  22.708  0.00  0.00    -0.082 Cl
ATOM     13  C   UNL d   1     -47.898  12.554  23.319  0.00  0.00     0.012 A 
ATOM     14  C   UNL d   1     -47.829  11.798  23.650  0.00  0.00     0.001 A 
ATOM     15  C   UNL d   1     -47.087  11.440  23.695  0.00  0.00     0.000 A 
ATOM     16  C   UNL d   1     -46.423  11.826  23.416  0.00  0.00     0.006 A 
ENDBRANCH   8  10
ENDBRANCH   1   7
BRANCH   2  17
ATOM     17  N   UNL d   1     -42.427  13.090  21.128  0.00  0.00    -0.148 NA
BRANCH  17  18
ATOM     18  N   UNL d   1     -42.119  13.853  21.196  0.00  0.00    -0.148 NA
BRANCH  18  19
ATOM     19  C   UNL d   1     -41.372  14.028  20.884  0.00  0.00     0.103 A 
ATOM     20  C   UNL d   1     -40.709  14.030  21.372  0.00  0.00     0.021 A 
ATOM     21  C   UNL d   1     -39.970  14.204  21.063  0.00  0.00     0.002 A 
ATOM     22  C   UNL d   1     -39.889  14.377  20.258  0.00  0.00     0.000 A 
ATOM     23  C   UNL d   1     -40.548  14.377  19.764  0.00  0.00     0.002 A 
ATOM     24  C   UNL d   1     -41.291  14.201  20.080  0.00  0.00     0.021 A 
ENDBRANCH  18  19
ENDBRANCH  17  18
ENDBRANCH   2  17
TORSDOF 5
ENDMDL
