MODEL 1
REMARK VINA RESULT:      44.5      0.000      0.000
REMARK  6 active torsions:
REMARK  status: ('A' for Active; 'I' for Inactive)
REMARK    1  A    between atoms: C_12  and  N_1 
REMARK    2  A    between atoms: S_10  and  C_2 
REMARK    3  A    between atoms: C_5  and  N_7 
REMARK       I    between atoms: N_7  and  C_11 
REMARK    4  A    between atoms: C_16  and  S_10 
REMARK    5  A    between atoms: C_11  and  C_16 
REMARK    6  A    between atoms: C_17  and  C_12 
ROOT
ATOM      1  N   UNL d   1      14.588  14.679  -0.820  0.00  0.00    -0.303 N 
ATOM      2  C   UNL d   1      14.378  15.012  -2.095  0.00  0.00     0.049 A 
ATOM      3  C   UNL d   1      14.256  14.425  -1.514  0.00  0.00     0.087 A 
ATOM      4  C   UNL d   1      14.793  15.626  -1.728  0.00  0.00     0.024 A 
ATOM      5  C   UNL d   1      14.923  15.420  -0.940  0.00  0.00     0.065 A 
ATOM      6  C   UNL d   1      15.066  16.345  -2.017  0.00  0.00     0.002 A 
ATOM      7  C   UNL d   1      15.326  15.932  -0.441  0.00  0.00     0.018 A 
ATOM      8  C   UNL d   1      15.472  16.861  -1.516  0.00  0.00     0.000 A 
ATOM      9  C   UNL d   1      15.601  16.655  -0.728  0.00  0.00     0.002 A 
ENDROOT
BRANCH   2  10
ATOM     10  S   UNL d   1      14.135  14.990  -2.880  0.00  0.00    -0.080 SA
BRANCH  10  11
ATOM     11  C   UNL d   1      13.458  14.559  -3.097  0.00  0.00     0.098 C 
BRANCH  11  12
ATOM     12  C   UNL d   1      13.518  13.881  -3.557  0.00  0.00     0.288 C 
ATOM     13  N   UNL d   1      13.019  13.759  -4.204  0.00  0.00    -0.182 NA
ATOM     14  O   UNL d   1      14.081  13.319  -3.367  0.00  0.00    -0.265 OA
BRANCH  13  15
ATOM     15  C   UNL d   1      13.087  13.076  -4.658  0.00  0.00     0.197 A 
ATOM     16  N   UNL d   1      13.385  12.953  -5.419  0.00  0.00    -0.219 NA
ATOM     17  C   UNL d   1      13.310  12.144  -5.588  0.00  0.00     0.108 A 
ATOM     18  C   UNL d   1      12.968  11.783  -4.933  0.00  0.00     0.059 A 
ATOM     19  S   UNL d   1      12.830  12.360  -4.358  0.00  0.00    -0.046 SA
ENDBRANCH  13  15
ENDBRANCH  11  12
ENDBRANCH  10  11
ENDBRANCH   2  10
BRANCH   1  20
ATOM     20  C   UNL d   1      14.589  14.253  -0.097  0.00  0.00     0.080 C 
BRANCH  20  21
ATOM     21  C   UNL d   1      14.624  13.433  -0.098  0.00  0.00     0.018 A 
ATOM     22  C   UNL d   1      15.346  13.041  -0.183  0.00  0.00     0.002 A 
ATOM     23  C   UNL d   1      15.376  12.218  -0.184  0.00  0.00     0.000 A 
ATOM     24  C   UNL d   1      14.691  11.779  -0.101  0.00  0.00     0.000 A 
ATOM     25  C   UNL d   1      13.954  12.167  -0.014  0.00  0.00     0.000 A 
ATOM     26  C   UNL d   1      13.930  12.996  -0.014  0.00  0.00     0.002 A 
ENDBRANCH  20  21
ENDBRANCH   1  20
TORSDOF 6
ENDMDL
