MODEL 1
REMARK VINA RESULT:      48.6      0.000      0.000
REMARK  5 active torsions:
REMARK  status: ('A' for Active; 'I' for Inactive)
REMARK    1  A    between atoms: C_10  and  C_3 
REMARK    2  A    between atoms: C_11  and  N_5 
REMARK    3  A    between atoms: O_17  and  C_10 
REMARK    4  A    between atoms: C_22  and  O_17 
REMARK    5  A    between atoms: O_21  and  C_18 
ROOT
ATOM      1  C   UNL d   1      57.349  49.523  51.441  0.00  0.00     0.086 A 
ATOM      2  C   UNL d   1      56.982  49.394  50.718  0.00  0.00     0.038 A 
ATOM      3  C   UNL d   1      57.422  49.314  50.021  0.00  0.00     0.165 A 
ATOM      4  C   UNL d   1      58.176  49.575  51.476  0.00  0.00     0.282 A 
ATOM      5  N   UNL d   1      58.624  49.498  50.791  0.00  0.00    -0.194 N 
ATOM      6  N   UNL d   1      58.248  49.367  50.065  0.00  0.00    -0.157 NA
ATOM      7  C   UNL d   1      56.761  49.577  52.020  0.00  0.00     0.137 A 
ATOM      8  C   UNL d   1      56.167  49.366  50.840  0.00  0.00     0.039 A 
ATOM      9  S   UNL d   1      56.034  49.480  51.648  0.00  0.00    -0.066 SA
ATOM     10  O   UNL d   1      58.551  49.704  52.195  0.00  0.00    -0.265 OA
ATOM     11  N   UNL d   1      56.887  49.706  52.829  0.00  0.00    -0.141 N 
ENDROOT
BRANCH   5  12
ATOM     12  C   UNL d   1      59.445  49.549  50.826  0.00  0.00     0.086 A 
ATOM     13  C   UNL d   1      59.887  49.647  50.130  0.00  0.00     0.021 A 
ATOM     14  C   UNL d   1      60.710  49.698  50.171  0.00  0.00     0.026 A 
ATOM     15  C   UNL d   1      61.093  49.653  50.899  0.00  0.00     0.094 A 
ATOM     16  C   UNL d   1      60.651  49.555  51.594  0.00  0.00     0.026 A 
ATOM     17  C   UNL d   1      59.825  49.504  51.550  0.00  0.00     0.021 A 
BRANCH  15  18
ATOM     18  O   UNL d   1      61.913  49.704  50.931  0.00  0.00    -0.328 OA
ATOM     19  C   UNL d   1      62.319  49.426  51.600  0.00  0.00     0.181 C 
ENDBRANCH  15  18
ENDBRANCH   5  12
BRANCH   3  20
ATOM     20  C   UNL d   1      57.050  49.185  49.299  0.00  0.00     0.320 C 
ATOM     21  O   UNL d   1      56.460  49.705  49.037  0.00  0.00    -0.257 OA
BRANCH  20  22
ATOM     22  O   UNL d   1      57.265  48.535  48.833  0.00  0.00    -0.270 OA
BRANCH  22  23
ATOM     23  C   UNL d   1      56.872  47.820  48.920  0.00  0.00     0.126 C 
ATOM     24  C   UNL d   1      56.066  47.803  49.093  0.00  0.00     0.029 C 
ENDBRANCH  22  23
ENDBRANCH  20  22
ENDBRANCH   3  20
TORSDOF 5
ENDMDL
