MODEL 1
REMARK VINA RESULT:      61.5      0.000      0.000
REMARK  6 active torsions:
REMARK  status: ('A' for Active; 'I' for Inactive)
REMARK    1  A    between atoms: C_14  and  N_1 
REMARK    2  A    between atoms: S_12  and  C_3 
REMARK    3  A    between atoms: C_5  and  N_11 
REMARK    4  A    between atoms: C_15  and  C_8 
REMARK       I    between atoms: N_11  and  C_13 
REMARK    5  A    between atoms: C_17  and  S_12 
REMARK    6  A    between atoms: C_13  and  C_17 
ROOT
ATOM      1  N   UNL d   1     -48.249  28.606  35.475  0.00  0.00    -0.181 NA
ATOM      2  C   UNL d   1     -48.713  28.314  34.845  0.00  0.00     0.288 C 
ATOM      3  O   UNL d   1     -48.908  28.806  34.226  0.00  0.00    -0.265 OA
ENDROOT
BRANCH   2   4
ATOM      4  C   UNL d   1     -48.966  27.531  34.861  0.00  0.00     0.101 C 
BRANCH   4   5
ATOM      5  S   UNL d   1     -49.524  27.278  34.311  0.00  0.00    -0.041 SA
BRANCH   5   6
ATOM      6  C   UNL d   1     -49.434  26.545  33.956  0.00  0.00     0.219 A 
ATOM      7  N   UNL d   1     -50.081  26.161  33.616  0.00  0.00    -0.186 N 
ATOM      8  N   UNL d   1     -49.823  25.447  33.307  0.00  0.00    -0.038 NA
ATOM      9  N   UNL d   1     -49.025  25.380  33.449  0.00  0.00    -0.022 NA
ATOM     10  N   UNL d   1     -48.772  26.059  33.853  0.00  0.00    -0.101 NA
BRANCH   7  11
ATOM     11  C   UNL d   1     -50.860  26.415  33.573  0.00  0.00     0.087 A 
ATOM     12  C   UNL d   1     -51.029  27.200  33.349  0.00  0.00     0.019 A 
ATOM     13  C   UNL d   1     -51.808  27.453  33.307  0.00  0.00     0.002 A 
ATOM     14  C   UNL d   1     -52.426  26.941  33.484  0.00  0.00     0.000 A 
ATOM     15  C   UNL d   1     -52.259  26.160  33.707  0.00  0.00     0.002 A 
ATOM     16  C   UNL d   1     -51.475  25.895  33.752  0.00  0.00     0.019 A 
ENDBRANCH   7  11
ENDBRANCH   5   6
ENDBRANCH   4   5
ENDBRANCH   2   4
BRANCH   1  17
ATOM     17  C   UNL d   1     -47.988  29.397  35.469  0.00  0.00     0.216 A 
ATOM     18  N   UNL d   1     -48.096  29.952  34.865  0.00  0.00    -0.200 NA
ATOM     19  C   UNL d   1     -47.746  30.653  35.105  0.00  0.00     0.172 A 
ATOM     20  N   UNL d   1     -47.422  30.538  35.846  0.00  0.00    -0.187 NA
ATOM     21  S   UNL d   1     -47.577  29.751  36.069  0.00  0.00     0.054 SA
BRANCH  19  22
ATOM     22  C   UNL d   1     -47.678  31.392  34.737  0.00  0.00     0.036 A 
ATOM     23  C   UNL d   1     -48.321  31.709  34.337  0.00  0.00     0.003 A 
ATOM     24  C   UNL d   1     -48.255  32.451  33.968  0.00  0.00     0.000 A 
ATOM     25  C   UNL d   1     -47.551  32.863  34.002  0.00  0.00     0.000 A 
ATOM     26  C   UNL d   1     -46.900  32.539  34.409  0.00  0.00     0.000 A 
ATOM     27  C   UNL d   1     -46.959  31.808  34.776  0.00  0.00     0.003 A 
ENDBRANCH  19  22
ENDBRANCH   1  17
TORSDOF 6
ENDMDL
