MODEL 1
REMARK VINA RESULT:      -5.4      0.000      0.000
REMARK  7 active torsions:
REMARK  status: ('A' for Active; 'I' for Inactive)
REMARK    1  A    between atoms: N_2  and  C_1 
REMARK    2  A    between atoms: S_4  and  C_3 
REMARK    3  A    between atoms: C_6  and  S_4 
REMARK    4  A    between atoms: C_5  and  C_8 
REMARK    5  A    between atoms: C_9  and  C_6 
REMARK    6  A    between atoms: O_14  and  C_9 
REMARK    7  A    between atoms: C_12  and  O_14 
ROOT
ATOM      1  S   UNL d   1      58.225  -0.204  30.209  0.00  0.00     0.096 S 
ATOM      2  O   UNL d   1      58.010   0.456  29.775  0.00  0.00    -0.247 OA
ENDROOT
BRANCH   1   3
ATOM      3  C   UNL d   1      58.687  -0.794  29.858  0.00  0.00     0.082 A 
ATOM      4  C   UNL d   1      59.439  -0.609  29.537  0.00  0.00     0.135 A 
ATOM      5  C   UNL d   1      59.891  -1.205  29.190  0.00  0.00     0.028 A 
ATOM      6  C   UNL d   1      59.614  -1.981  29.154  0.00  0.00     0.073 A 
ATOM      7  C   UNL d   1      58.870  -2.164  29.472  0.00  0.00     0.005 A 
ATOM      8  C   UNL d   1      58.406  -1.571  29.824  0.00  0.00     0.011 A 
BRANCH   4   9
ATOM      9  N   UNL d   1      59.716   0.168  29.574  0.00  0.00    -0.113 N 
ATOM     10  O   UNL d   1      59.696   0.643  28.889  0.00  0.00    -0.532 OA
ATOM     11  O   UNL d   1      60.012   0.474  30.287  0.00  0.00    -0.532 OA
ENDBRANCH   4   9
BRANCH   6  12
ATOM     12  C   UNL d   1      60.066  -2.577  28.807  0.00  0.00     0.419 C 
ATOM     13  F   UNL d   1      60.931  -2.609  28.699  0.00  0.00    -0.166 F 
ATOM     14  F   UNL d   1      60.490  -3.116  28.492  0.00  0.00    -0.166 F 
ATOM     15  F   UNL d   1      59.820  -3.332  28.455  0.00  0.00    -0.166 F 
ENDBRANCH   6  12
ENDBRANCH   1   3
BRANCH   1  16
ATOM     16  C   UNL d   1      57.982  -0.285  30.994  0.00  0.00     0.137 C 
BRANCH  16  17
ATOM     17  C   UNL d   1      57.310   0.118  31.261  0.00  0.00     0.309 C 
ATOM     18  O   UNL d   1      56.741   0.371  30.720  0.00  0.00    -0.258 OA
BRANCH  17  19
ATOM     19  O   UNL d   1      57.210   0.265  32.066  0.00  0.00    -0.273 OA
BRANCH  19  20
ATOM     20  C   UNL d   1      56.652   0.016  32.402  0.00  0.00     0.103 A 
ATOM     21  C   UNL d   1      56.559  -0.672  32.476  0.00  0.00     0.025 A 
ATOM     22  C   UNL d   1      55.997  -0.927  32.814  0.00  0.00     0.002 A 
ATOM     23  C   UNL d   1      55.904  -1.615  32.888  0.00  0.00     0.000 C 
ATOM     24  C   UNL d   1      55.526  -0.478  33.078  0.00  0.00     0.000 A 
ATOM     25  C   UNL d   1      55.618   0.225  33.004  0.00  0.00     0.002 A 
ATOM     26  C   UNL d   1      56.181   0.465  32.666  0.00  0.00     0.025 A 
ATOM     27  C   UNL d   1      55.140   0.682  33.274  0.00  0.00     0.000 C 
ENDBRANCH  19  20
ENDBRANCH  17  19
ENDBRANCH  16  17
ENDBRANCH   1  16
TORSDOF 7
ENDMDL
