MODEL 1
REMARK VINA RESULT:      -4.7      0.000      0.000
REMARK  2 active torsions:
REMARK  status: ('A' for Active; 'I' for Inactive)
REMARK    1  A    between atoms: C_2  and  S_1 
REMARK    2  A    between atoms: N_3  and  S_1 
ROOT
ATOM      1  S   UNL d   1      57.497   0.015  31.326  0.00  0.00     0.272 S 
ATOM      2  O   UNL d   1      57.328   0.527  31.949  0.00  0.00    -0.200 OA
ATOM      3  O   UNL d   1      57.112  -0.716  31.279  0.00  0.00    -0.200 OA
ENDROOT
BRANCH   1   4
ATOM      4  C   UNL d   1      56.945  -0.202  31.898  0.00  0.00     0.115 A 
ATOM      5  C   UNL d   1      56.662  -0.968  31.916  0.00  0.00     0.071 A 
ATOM      6  C   UNL d   1      56.113  -1.191  32.482  0.00  0.00     0.024 A 
ATOM      7 CL   UNL d   1      56.917  -1.533  31.371  0.00  0.00    -0.082 Cl
ATOM      8  C   UNL d   1      55.844  -0.639  33.038  0.00  0.00     0.059 A 
ATOM      9  C   UNL d   1      56.136   0.133  33.013  0.00  0.00     0.011 A 
ATOM     10 CL   UNL d   1      55.292  -0.860  33.609  0.00  0.00    -0.082 Cl
ATOM     11  C   UNL d   1      56.685   0.354  32.446  0.00  0.00     0.015 A 
ATOM     12  C   UNL d   1      55.866   0.682  33.569  0.00  0.00     0.001 C 
ENDBRANCH   1   4
BRANCH   1  13
ATOM     13  N   UNL d   1      58.049   0.228  30.752  0.00  0.00    -0.229 N 
ATOM     14  C   UNL d   1      58.836   0.327  31.066  0.00  0.00     0.092 A 
ATOM     15  C   UNL d   1      59.472   0.505  30.780  0.00  0.00     0.020 A 
ATOM     16  C   UNL d   1      59.621   0.680  29.978  0.00  0.00     0.002 A 
ATOM     17  C   UNL d   1      59.033   0.681  29.330  0.00  0.00     0.002 A 
ATOM     18  C   UNL d   1      58.168   0.501  29.374  0.00  0.00     0.020 A 
ATOM     19  C   UNL d   1      57.745   0.291  30.075  0.00  0.00     0.092 A 
ENDBRANCH   1  13
TORSDOF 2
ENDMDL
MODEL 2
REMARK VINA RESULT:      -4.5      1.541      2.093
REMARK  2 active torsions:
REMARK  status: ('A' for Active; 'I' for Inactive)
REMARK    1  A    between atoms: C_2  and  S_1 
REMARK    2  A    between atoms: N_3  and  S_1 
ROOT
ATOM      1  S   UNL d   1      56.583   0.142  32.532  0.00  0.00     0.272 S 
ATOM      2  O   UNL d   1      55.768   0.266  32.544  0.00  0.00    -0.200 OA
ATOM      3  O   UNL d   1      57.010   0.153  33.240  0.00  0.00    -0.200 OA
ENDROOT
BRANCH   1   4
ATOM      4  C   UNL d   1      56.197   0.277  33.248  0.00  0.00     0.115 A 
ATOM      5  C   UNL d   1      56.633   0.475  33.909  0.00  0.00     0.071 A 
ATOM      6  C   UNL d   1      56.257   0.610  34.625  0.00  0.00     0.024 A 
ATOM      7 CL   UNL d   1      57.455   0.544  33.878  0.00  0.00    -0.082 Cl
ATOM      8  C   UNL d   1      55.432   0.546  34.677  0.00  0.00     0.059 A 
ATOM      9  C   UNL d   1      54.999   0.345  34.004  0.00  0.00     0.011 A 
ATOM     10 CL   UNL d   1      55.051   0.682  35.395  0.00  0.00    -0.082 Cl
ATOM     11  C   UNL d   1      55.378   0.210  33.290  0.00  0.00     0.015 A 
ATOM     12  C   UNL d   1      54.178   0.282  34.059  0.00  0.00     0.001 C 
ENDBRANCH   1   4
BRANCH   1  13
ATOM     13  N   UNL d   1      56.971   0.007  31.818  0.00  0.00    -0.229 N 
ATOM     14  C   UNL d   1      57.064  -0.822  31.640  0.00  0.00     0.092 A 
ATOM     15  C   UNL d   1      57.359  -1.189  31.095  0.00  0.00     0.020 A 
ATOM     16  C   UNL d   1      57.728  -0.864  30.423  0.00  0.00     0.002 A 
ATOM     17  C   UNL d   1      57.828  -0.011  30.248  0.00  0.00     0.002 A 
ATOM     18  C   UNL d   1      57.567   0.681  30.733  0.00  0.00     0.020 A 
ATOM     19  C   UNL d   1      57.163   0.639  31.474  0.00  0.00     0.092 A 
ENDBRANCH   1  13
TORSDOF 2
ENDMDL
MODEL 3
REMARK VINA RESULT:      -4.5      1.078      1.409
REMARK  2 active torsions:
REMARK  status: ('A' for Active; 'I' for Inactive)
REMARK    1  A    between atoms: C_2  and  S_1 
REMARK    2  A    between atoms: N_3  and  S_1 
ROOT
ATOM      1  S   UNL d   1      57.395  -0.088  31.383  0.00  0.00     0.272 S 
ATOM      2  O   UNL d   1      56.684  -0.482  31.519  0.00  0.00    -0.200 OA
ATOM      3  O   UNL d   1      57.748   0.343  31.995  0.00  0.00    -0.200 OA
ENDROOT
BRANCH   1   4
ATOM      4  C   UNL d   1      57.040  -0.051  32.126  0.00  0.00     0.115 A 
ATOM      5  C   UNL d   1      57.425   0.325  32.740  0.00  0.00     0.071 A 
ATOM      6  C   UNL d   1      57.078   0.365  33.482  0.00  0.00     0.024 A 
ATOM      7 CL   UNL d   1      58.167   0.671  32.633  0.00  0.00    -0.082 Cl
ATOM      8  C   UNL d   1      56.334   0.024  33.609  0.00  0.00     0.059 A 
ATOM      9  C   UNL d   1      55.951  -0.355  32.983  0.00  0.00     0.011 A 
ATOM     10 CL   UNL d   1      55.982   0.063  34.353  0.00  0.00    -0.082 Cl
ATOM     11  C   UNL d   1      56.301  -0.393  32.242  0.00  0.00     0.015 A 
ATOM     12  C   UNL d   1      55.209  -0.694  33.113  0.00  0.00     0.001 C 
ENDBRANCH   1   4
BRANCH   1  13
ATOM     13  N   UNL d   1      57.753  -0.122  30.642  0.00  0.00    -0.229 N 
ATOM     14  C   UNL d   1      58.052  -0.898  30.452  0.00  0.00     0.092 A 
ATOM     15  C   UNL d   1      58.395  -1.178  29.884  0.00  0.00     0.020 A 
ATOM     16  C   UNL d   1      58.614  -0.773  29.189  0.00  0.00     0.002 A 
ATOM     17  C   UNL d   1      58.468   0.072  29.015  0.00  0.00     0.002 A 
ATOM     18  C   UNL d   1      58.067   0.675  29.522  0.00  0.00     0.020 A 
ATOM     19  C   UNL d   1      57.743   0.535  30.290  0.00  0.00     0.092 A 
ENDBRANCH   1  13
TORSDOF 2
ENDMDL
MODEL 4
REMARK VINA RESULT:      -3.3      1.788      2.198
REMARK  2 active torsions:
REMARK  status: ('A' for Active; 'I' for Inactive)
REMARK    1  A    between atoms: C_2  and  S_1 
REMARK    2  A    between atoms: N_3  and  S_1 
ROOT
ATOM      1  S   UNL d   1      58.046  -0.946  30.369  0.00  0.00     0.272 S 
ATOM      2  O   UNL d   1      57.450  -1.404  30.707  0.00  0.00    -0.200 OA
ATOM      3  O   UNL d   1      58.123  -0.150  30.583  0.00  0.00    -0.200 OA
ENDROOT
BRANCH   1   4
ATOM      4  C   UNL d   1      57.531  -0.610  30.918  0.00  0.00     0.115 A 
ATOM      5  C   UNL d   1      57.389   0.194  30.899  0.00  0.00     0.071 A 
ATOM      6  C   UNL d   1      56.877   0.535  31.442  0.00  0.00     0.024 A 
ATOM      7 CL   UNL d   1      57.752   0.681  30.341  0.00  0.00    -0.082 Cl
ATOM      8  C   UNL d   1      56.503   0.063  32.010  0.00  0.00     0.059 A 
ATOM      9  C   UNL d   1      56.651  -0.749  32.022  0.00  0.00     0.011 A 
ATOM     10 CL   UNL d   1      55.988   0.403  32.557  0.00  0.00    -0.082 Cl
ATOM     11  C   UNL d   1      57.164  -1.087  31.478  0.00  0.00     0.015 A 
ATOM     12  C   UNL d   1      56.277  -1.217  32.590  0.00  0.00     0.001 C 
ENDBRANCH   1   4
BRANCH   1  13
ATOM     13  N   UNL d   1      58.563  -1.278  29.820  0.00  0.00    -0.229 N 
ATOM     14  C   UNL d   1      58.301  -2.036  29.532  0.00  0.00     0.092 A 
ATOM     15  C   UNL d   1      58.566  -2.514  29.062  0.00  0.00     0.020 A 
ATOM     16  C   UNL d   1      59.276  -2.442  28.632  0.00  0.00     0.002 A 
ATOM     17  C   UNL d   1      59.837  -1.771  28.667  0.00  0.00     0.002 A 
ATOM     18  C   UNL d   1      59.782  -1.035  29.154  0.00  0.00     0.020 A 
ATOM     19  C   UNL d   1      59.155  -0.845  29.689  0.00  0.00     0.092 A 
ENDBRANCH   1  13
TORSDOF 2
ENDMDL
