MODEL 1
REMARK VINA RESULT:      -6.3      0.000      0.000
REMARK  0 active torsions:
REMARK  status: ('A' for Active; 'I' for Inactive)
ROOT
ATOM      1  C   UNL d   1      53.414  32.296  53.866  0.00  0.00     0.116 A 
ATOM      2  C   UNL d   1      52.989  32.604  53.230  0.00  0.00     0.192 A 
ATOM      3  N   UNL d   1      52.856  31.293  52.696  0.00  0.00    -0.145 NA
ATOM      4  C   UNL d   1      53.686  32.808  54.442  0.00  0.00     0.285 A 
ATOM      5  N   UNL d   1      52.843  33.399  53.173  0.00  0.00    -0.203 NA
ATOM      6  N   UNL d   1      52.712  32.104  52.647  0.00  0.00    -0.128 NA
ATOM      7  N   UNL d   1      53.540  33.621  54.390  0.00  0.00    -0.185 NA
ATOM      8  C   UNL d   1      53.117  33.910  53.752  0.00  0.00     0.203 A 
ATOM      9  C   UNL d   1      53.277  30.992  53.328  0.00  0.00     0.130 A 
ATOM     10  O   UNL d   1      54.113  32.515  55.085  0.00  0.00    -0.265 OA
ENDROOT
TORSDOF 0
ENDMDL
MODEL 2
REMARK VINA RESULT:      -6.2      1.260      2.431
REMARK  0 active torsions:
REMARK  status: ('A' for Active; 'I' for Inactive)
ROOT
ATOM      1  C   UNL d   1      53.147  32.770  53.675  0.00  0.00     0.116 A 
ATOM      2  C   UNL d   1      53.602  32.186  54.040  0.00  0.00     0.192 A 
ATOM      3  N   UNL d   1      54.052  33.146  54.989  0.00  0.00    -0.145 NA
ATOM      4  C   UNL d   1      52.700  32.567  53.021  0.00  0.00     0.285 A 
ATOM      5  N   UNL d   1      53.609  31.427  53.759  0.00  0.00    -0.203 NA
ATOM      6  N   UNL d   1      54.053  32.374  54.695  0.00  0.00    -0.128 NA
ATOM      7  N   UNL d   1      52.704  31.793  52.729  0.00  0.00    -0.185 NA
ATOM      8  C   UNL d   1      53.161  31.227  53.103  0.00  0.00     0.203 A 
ATOM      9  C   UNL d   1      53.599  33.719  54.624  0.00  0.00     0.130 A 
ATOM     10  O   UNL d   1      52.239  33.140  52.644  0.00  0.00    -0.265 OA
ENDROOT
TORSDOF 0
ENDMDL
MODEL 3
REMARK VINA RESULT:      -6.2      1.536      2.752
REMARK  0 active torsions:
REMARK  status: ('A' for Active; 'I' for Inactive)
ROOT
ATOM      1  C   UNL d   1      53.300  33.793  54.077  0.00  0.00     0.116 A 
ATOM      2  C   UNL d   1      53.669  33.982  54.790  0.00  0.00     0.192 A 
ATOM      3  N   UNL d   1      53.203  35.319  54.666  0.00  0.00    -0.145 NA
ATOM      4  C   UNL d   1      53.358  33.028  53.796  0.00  0.00     0.285 A 
ATOM      5  N   UNL d   1      54.081  33.422  55.207  0.00  0.00    -0.203 NA
ATOM      6  N   UNL d   1      53.621  34.743  55.083  0.00  0.00    -0.128 NA
ATOM      7  N   UNL d   1      53.777  32.452  54.217  0.00  0.00    -0.185 NA
ATOM      8  C   UNL d   1      54.136  32.656  54.922  0.00  0.00     0.203 A 
ATOM      9  C   UNL d   1      52.840  35.128  53.960  0.00  0.00     0.130 A 
ATOM     10  O   UNL d   1      52.994  32.823  53.083  0.00  0.00    -0.265 OA
ENDROOT
TORSDOF 0
ENDMDL
MODEL 4
REMARK VINA RESULT:      -6.1      1.362      1.832
REMARK  0 active torsions:
REMARK  status: ('A' for Active; 'I' for Inactive)
ROOT
ATOM      1  C   UNL d   1      53.362  33.718  54.253  0.00  0.00     0.116 A 
ATOM      2  C   UNL d   1      53.792  33.025  54.126  0.00  0.00     0.192 A 
ATOM      3  N   UNL d   1      52.805  32.596  53.198  0.00  0.00    -0.145 NA
ATOM      4  C   UNL d   1      53.653  34.269  54.783  0.00  0.00     0.285 A 
ATOM      5  N   UNL d   1      54.489  32.890  54.516  0.00  0.00    -0.203 NA
ATOM      6  N   UNL d   1      53.514  32.467  53.600  0.00  0.00    -0.128 NA
ATOM      7  N   UNL d   1      54.364  34.136  55.185  0.00  0.00    -0.185 NA
ATOM      8  C   UNL d   1      54.778  33.444  55.047  0.00  0.00     0.203 A 
ATOM      9  C   UNL d   1      52.383  33.283  53.327  0.00  0.00     0.130 A 
ATOM     10  O   UNL d   1      53.235  34.967  54.922  0.00  0.00    -0.265 OA
ENDROOT
TORSDOF 0
ENDMDL
MODEL 5
REMARK VINA RESULT:      -5.6      1.646      2.833
REMARK  0 active torsions:
REMARK  status: ('A' for Active; 'I' for Inactive)
ROOT
ATOM      1  C   UNL d   1      52.588  34.161  53.449  0.00  0.00     0.116 A 
ATOM      2  C   UNL d   1      53.090  33.685  53.899  0.00  0.00     0.192 A 
ATOM      3  N   UNL d   1      53.428  34.814  54.695  0.00  0.00    -0.145 NA
ATOM      4  C   UNL d   1      52.175  33.821  52.830  0.00  0.00     0.285 A 
ATOM      5  N   UNL d   1      53.175  32.897  53.734  0.00  0.00    -0.203 NA
ATOM      6  N   UNL d   1      53.508  34.011  54.520  0.00  0.00    -0.128 NA
ATOM      7  N   UNL d   1      52.258  33.016  52.657  0.00  0.00    -0.185 NA
ATOM      8  C   UNL d   1      52.760  32.559  53.113  0.00  0.00     0.203 A 
ATOM      9  C   UNL d   1      52.930  35.280  54.247  0.00  0.00     0.130 A 
ATOM     10  O   UNL d   1      51.669  34.284  52.370  0.00  0.00    -0.265 OA
ENDROOT
TORSDOF 0
ENDMDL
MODEL 6
REMARK VINA RESULT:      -4.0      6.644      7.120
REMARK  0 active torsions:
REMARK  status: ('A' for Active; 'I' for Inactive)
ROOT
ATOM      1  C   UNL d   1      47.572  35.832  52.109  0.00  0.00     0.116 A 
ATOM      2  C   UNL d   1      46.868  35.685  51.705  0.00  0.00     0.192 A 
ATOM      3  N   UNL d   1      47.567  34.812  50.827  0.00  0.00    -0.145 NA
ATOM      4  C   UNL d   1      47.560  36.344  52.746  0.00  0.00     0.285 A 
ATOM      5  N   UNL d   1      46.176  36.038  51.933  0.00  0.00    -0.203 NA
ATOM      6  N   UNL d   1      46.866  35.176  51.066  0.00  0.00    -0.128 NA
ATOM      7  N   UNL d   1      46.855  36.708  52.984  0.00  0.00    -0.185 NA
ATOM      8  C   UNL d   1      46.166  36.551  52.572  0.00  0.00     0.203 A 
ATOM      9  C   UNL d   1      48.261  34.960  51.230  0.00  0.00     0.130 A 
ATOM     10  O   UNL d   1      48.256  36.501  53.161  0.00  0.00    -0.265 OA
ENDROOT
TORSDOF 0
ENDMDL
MODEL 7
REMARK VINA RESULT:      -3.9      9.655      9.929
REMARK  0 active torsions:
REMARK  status: ('A' for Active; 'I' for Inactive)
ROOT
ATOM      1  C   UNL d   1      45.118  28.538  57.185  0.00  0.00     0.116 A 
ATOM      2  C   UNL d   1      45.262  28.427  57.990  0.00  0.00     0.192 A 
ATOM      3  N   UNL d   1      45.549  27.057  57.737  0.00  0.00    -0.145 NA
ATOM      4  C   UNL d   1      44.904  29.283  56.924  0.00  0.00     0.285 A 
ATOM      5  N   UNL d   1      45.194  29.040  58.514  0.00  0.00    -0.203 NA
ATOM      6  N   UNL d   1      45.477  27.688  58.264  0.00  0.00    -0.128 NA
ATOM      7  N   UNL d   1      44.833  29.914  57.455  0.00  0.00    -0.185 NA
ATOM      8  C   UNL d   1      44.980  29.786  58.249  0.00  0.00     0.203 A 
ATOM      9  C   UNL d   1      45.405  27.173  56.942  0.00  0.00     0.130 A 
ATOM     10  O   UNL d   1      44.757  29.411  56.122  0.00  0.00    -0.265 OA
ENDROOT
TORSDOF 0
ENDMDL
MODEL 8
REMARK VINA RESULT:      -3.9      9.656     10.003
REMARK  0 active torsions:
REMARK  status: ('A' for Active; 'I' for Inactive)
ROOT
ATOM      1  C   UNL d   1      44.982  29.707  57.559  0.00  0.00     0.116 A 
ATOM      2  C   UNL d   1      45.160  29.363  58.287  0.00  0.00     0.192 A 
ATOM      3  N   UNL d   1      45.103  30.646  58.896  0.00  0.00    -0.145 NA
ATOM      4  C   UNL d   1      44.924  29.226  56.901  0.00  0.00     0.285 A 
ATOM      5  N   UNL d   1      45.277  28.564  58.352  0.00  0.00    -0.203 NA
ATOM      6  N   UNL d   1      45.220  29.831  58.953  0.00  0.00    -0.128 NA
ATOM      7  N   UNL d   1      45.043  28.409  56.961  0.00  0.00    -0.185 NA
ATOM      8  C   UNL d   1      45.219  28.084  57.691  0.00  0.00     0.203 A 
ATOM      9  C   UNL d   1      44.926  30.982  58.174  0.00  0.00     0.130 A 
ATOM     10  O   UNL d   1      44.746  29.556  56.165  0.00  0.00    -0.265 OA
ENDROOT
TORSDOF 0
ENDMDL
MODEL 9
REMARK VINA RESULT:      -3.8     10.445     10.903
REMARK  0 active torsions:
REMARK  status: ('A' for Active; 'I' for Inactive)
ROOT
ATOM      1  C   UNL d   1      45.227  27.936  58.272  0.00  0.00     0.116 A 
ATOM      2  C   UNL d   1      44.871  27.945  59.016  0.00  0.00     0.192 A 
ATOM      3  N   UNL d   1      44.793  29.363  58.949  0.00  0.00    -0.145 NA
ATOM      4  C   UNL d   1      45.438  27.216  57.946  0.00  0.00     0.285 A 
ATOM      5  N   UNL d   1      44.732  27.256  59.420  0.00  0.00    -0.203 NA
ATOM      6  N   UNL d   1      44.655  28.656  59.353  0.00  0.00    -0.128 NA
ATOM      7  N   UNL d   1      45.299  26.510  58.354  0.00  0.00    -0.185 NA
ATOM      8  C   UNL d   1      44.945  26.537  59.091  0.00  0.00     0.203 A 
ATOM      9  C   UNL d   1      45.145  29.349  58.213  0.00  0.00     0.130 A 
ATOM     10  O   UNL d   1      45.795  27.190  57.202  0.00  0.00    -0.265 OA
ENDROOT
TORSDOF 0
ENDMDL
