MODEL 1
REMARK VINA RESULT:       9.6      0.000      0.000
REMARK  5 active torsions:
REMARK  status: ('A' for Active; 'I' for Inactive)
REMARK    1  A    between atoms: N_3  and  C_1 
REMARK       I    between atoms: C_6  and  N_3 
REMARK    2  A    between atoms: C_9  and  C_6 
REMARK    3  A    between atoms: C_12  and  C_7 
REMARK    4  A    between atoms: S_8  and  C_9 
REMARK    5  A    between atoms: C_11  and  S_8 
ROOT
ATOM      1  N   UNL d   1      45.955 -16.282  44.822  0.00  0.00    -0.181 NA
ATOM      2  C   UNL d   1      45.693 -16.840  44.274  0.00  0.00     0.287 C 
ATOM      3  O   UNL d   1      45.132 -16.624  43.714  0.00  0.00    -0.265 OA
ENDROOT
BRANCH   2   4
ATOM      4  C   UNL d   1      45.994 -17.606  44.290  0.00  0.00     0.087 C 
ATOM      5  C   UNL d   1      45.884 -18.076  44.953  0.00  0.00     0.012 C 
BRANCH   4   6
ATOM      6  S   UNL d   1      46.408 -17.894  43.633  0.00  0.00    -0.082 SA
BRANCH   6   7
ATOM      7  C   UNL d   1      46.428 -18.691  43.481  0.00  0.00     0.030 A 
ATOM      8  C   UNL d   1      46.621 -19.220  44.084  0.00  0.00     0.006 A 
ATOM      9  C   UNL d   1      46.641 -20.034  43.929  0.00  0.00     0.001 A 
ATOM     10  C   UNL d   1      46.467 -20.306  43.166  0.00  0.00     0.000 A 
ATOM     11  C   UNL d   1      46.276 -19.778  42.571  0.00  0.00     0.001 A 
ATOM     12  C   UNL d   1      46.254 -18.964  42.718  0.00  0.00     0.006 A 
ENDBRANCH   6   7
ENDBRANCH   4   6
ENDBRANCH   2   4
BRANCH   1  13
ATOM     13  C   UNL d   1      45.659 -15.516  44.811  0.00  0.00     0.219 A 
ATOM     14  S   UNL d   1      46.087 -14.831  44.659  0.00  0.00    -0.026 SA
ATOM     15  C   UNL d   1      45.570 -14.188  44.705  0.00  0.00     0.135 A 
ATOM     16  N   UNL d   1      44.819 -14.482  44.888  0.00  0.00    -0.139 NA
ATOM     17  N   UNL d   1      44.874 -15.302  44.953  0.00  0.00    -0.121 NA
BRANCH  15  18
ATOM     18  C   UNL d   1      45.763 -13.394  44.591  0.00  0.00     0.028 C 
ATOM     19  C   UNL d   1      45.429 -12.984  43.954  0.00  0.00     0.002 C 
ENDBRANCH  15  18
ENDBRANCH   1  13
TORSDOF 5
ENDMDL
