MODEL 1
REMARK VINA RESULT:      83.2      0.000      0.000
REMARK  5 active torsions:
REMARK  status: ('A' for Active; 'I' for Inactive)
REMARK    1  A    between atoms: C_5  and  C_1 
REMARK       I    between atoms: N_7  and  C_5 
REMARK    2  A    between atoms: C_10  and  N_7 
REMARK    3  A    between atoms: S_15  and  C_14 
REMARK    4  A    between atoms: C_20  and  S_15 
REMARK    5  A    between atoms: C_16  and  C_20 
ROOT
ATOM      1  N   UNL d   1      61.382  43.149  52.652  0.00  0.00    -0.191 NA
ATOM      2  C   UNL d   1      61.145  43.785  52.167  0.00  0.00     0.102 C 
ATOM      3  C   UNL d   1      60.914  44.411  51.683  0.00  0.00     0.085 C 
ENDROOT
BRANCH   3   4
ATOM      4  C   UNL d   1      61.157  44.442  50.900  0.00  0.00     0.046 C 
BRANCH   4   5
ATOM      5  S   UNL d   1      61.019  45.126  50.450  0.00  0.00    -0.084 SA
BRANCH   5   6
ATOM      6  C   UNL d   1      61.594  45.390  49.913  0.00  0.00     0.047 A 
ATOM      7  C   UNL d   1      61.682  46.194  49.772  0.00  0.00     0.091 A 
ATOM      8  C   UNL d   1      62.253  46.465  49.238  0.00  0.00     0.020 A 
ATOM      9  C   UNL d   1      62.736  45.927  48.845  0.00  0.00     0.002 A 
ATOM     10  C   UNL d   1      62.649  45.113  48.987  0.00  0.00     0.001 A 
ATOM     11  C   UNL d   1      62.077  44.852  49.520  0.00  0.00     0.008 A 
BRANCH   7  12
ATOM     12  N   UNL d   1      61.198  46.736  50.164  0.00  0.00    -0.206 NA
ATOM     13  C   UNL d   1      61.354  47.537  50.103  0.00  0.00     0.302 C 
ATOM     14  O   UNL d   1      61.988  47.808  49.654  0.00  0.00    -0.263 OA
BRANCH  13  15
ATOM     15  C   UNL d   1      60.867  48.087  50.498  0.00  0.00     0.161 A 
ATOM     16  C   UNL d   1      61.188  48.618  51.031  0.00  0.00     0.072 A 
ATOM     17  C   UNL d   1      60.696  49.160  51.418  0.00  0.00     0.200 A 
ATOM     18  O   UNL d   1      61.015  49.700  51.959  0.00  0.00    -0.286 OA
ATOM     19  C   UNL d   1      59.890  49.161  51.265  0.00  0.00     0.062 A 
ATOM     20  C   UNL d   1      59.564  48.631  50.732  0.00  0.00     0.103 A 
ATOM     21  C   UNL d   1      59.393  49.703  51.652  0.00  0.00     0.005 A 
ATOM     22  O   UNL d   1      60.061  48.088  50.345  0.00  0.00    -0.302 OA
ATOM     23  C   UNL d   1      58.753  48.626  50.572  0.00  0.00     0.025 A 
ATOM     24  C   UNL d   1      58.264  49.167  50.959  0.00  0.00     0.002 A 
ATOM     25  C   UNL d   1      58.587  49.704  51.498  0.00  0.00     0.000 A 
ENDBRANCH  13  15
ENDBRANCH   7  12
ENDBRANCH   5   6
ENDBRANCH   4   5
ENDBRANCH   3   4
TORSDOF 5
ENDMDL
