MODEL 1
REMARK VINA RESULT:       4.3      0.000      0.000
REMARK  3 active torsions:
REMARK  status: ('A' for Active; 'I' for Inactive)
REMARK    1  A    between atoms: N_5  and  C_1 
REMARK       I    between atoms: C_2  and  N_3 
REMARK    2  A    between atoms: C_4  and  C_2 
REMARK    3  A    between atoms: N_3  and  N_5 
ROOT
ATOM      1  C   UNL d   1      45.448 -13.635  44.590  0.00  0.00     0.060 A 
ATOM      2  C   UNL d   1      45.889 -14.325  44.531  0.00  0.00     0.012 A 
ATOM      3  C   UNL d   1      45.544 -15.060  44.682  0.00  0.00     0.035 A 
ATOM      4 BR   UNL d   1      46.000 -15.749  44.619  0.00  0.00    -0.049 Br
ATOM      5  C   UNL d   1      44.642 -13.676  44.805  0.00  0.00     0.005 A 
ATOM      6  C   UNL d   1      44.301 -14.405  44.955  0.00  0.00     0.001 A 
ATOM      7  C   UNL d   1      44.759 -15.099  44.892  0.00  0.00     0.007 A 
ENDROOT
BRANCH   1   8
ATOM      8  C   UNL d   1      45.808 -12.904  44.435  0.00  0.00     0.297 C 
ATOM      9  N   UNL d   1      45.586 -12.481  43.783  0.00  0.00    -0.103 NA
ATOM     10  O   UNL d   1      46.394 -12.615  44.955  0.00  0.00    -0.264 OA
BRANCH   9  11
ATOM     11  N   UNL d   1      45.016 -12.774  43.287  0.00  0.00    -0.112 NA
BRANCH  11  12
ATOM     12  C   UNL d   1      44.801 -12.351  42.613  0.00  0.00     0.260 C 
ATOM     13  S   UNL d   1      45.387 -12.080  42.090  0.00  0.00    -0.034 SA
ATOM     14  N   UNL d   1      44.008 -12.198  42.458  0.00  0.00    -0.113 N 
ENDBRANCH  11  12
ENDBRANCH   9  11
ENDBRANCH   1   8
TORSDOF 3
ENDMDL
