MODEL 1
REMARK VINA RESULT:      -2.2      0.000      0.000
REMARK  9 active torsions:
REMARK  status: ('A' for Active; 'I' for Inactive)
REMARK    1  A    between atoms: C_3  and  C_1 
REMARK    2  A    between atoms: C_4  and  C_1 
REMARK    3  A    between atoms: C_2  and  C_4 
REMARK    4  A    between atoms: O_9  and  C_2 
REMARK       I    between atoms: N_6  and  C_3 
REMARK    5  A    between atoms: N_5  and  C_4 
REMARK    6  A    between atoms: C_10  and  N_5 
REMARK    7  A    between atoms: C_11  and  N_6 
REMARK    8  A    between atoms: C_12  and  C_10 
REMARK    9  A    between atoms: C_13  and  C_11 
ROOT
ATOM      1  C   UNK d   1      32.235  16.454 -23.657  0.00  0.00     0.124 C 
ENDROOT
BRANCH   1   2
ATOM      2  C   UNK d   1      32.787  15.830 -23.733  0.00  0.00     0.194 C 
ATOM      3  O   UNK d   1      33.077  15.453 -23.068  0.00  0.00    -0.645 OA
BRANCH   2   4
ATOM      4  O   UNK d   1      33.044  15.591 -24.490  0.00  0.00    -0.772 OA
ATOM      5  H   UNK d   1      32.549  15.132 -24.967  0.00  0.00     0.167 HD
ENDBRANCH   2   4
ENDBRANCH   1   2
BRANCH   1   6
ATOM      6  C   UNK d   1      31.487  16.390 -23.997  0.00  0.00     0.084 C 
BRANCH   6   7
ATOM      7  C   UNK d   1      30.861  16.113 -23.548  0.00  0.00     0.259 C 
ATOM      8  N   UNK d   1      30.087  16.260 -23.792  0.00  0.00    -0.320 N 
ATOM      9  H   UNK d   1      29.943  16.689 -24.495  0.00  0.00     0.169 HD
ATOM     10  O   UNK d   1      31.004  15.686 -22.848  0.00  0.00    -0.267 OA
BRANCH   8  11
ATOM     11  C   UNK d   1      29.452  15.983 -23.344  0.00  0.00     0.075 C 
BRANCH  11  12
ATOM     12  C   UNK d   1      28.671  16.105 -23.599  0.00  0.00     0.017 C 
ATOM     13  C   UNK d   1      28.211  15.471 -23.856  0.00  0.00     0.002 C 
ATOM     14  C   UNK d   1      28.354  16.871 -23.595  0.00  0.00     0.002 C 
ENDBRANCH  11  12
ENDBRANCH   8  11
ENDBRANCH   6   7
ENDBRANCH   1   6
BRANCH   1  15
ATOM     15  N   UNK d   1      32.434  17.138 -23.243  0.00  0.00    -0.347 N 
ATOM     16  H   UNK d   1      32.113  17.256 -22.483  0.00  0.00     0.166 HD
BRANCH  15  17
ATOM     17  C   UNK d   0      32.946  17.698 -23.576  0.00  0.00     0.073 C 
BRANCH  17  18
ATOM     18  C   UNK d   0      33.001  18.446 -23.252  0.00  0.00     0.017 C 
ATOM     19  C   UNK d   0      33.241  18.541 -22.468  0.00  0.00     0.002 C 
ATOM     20  C   UNK d   0      32.815  19.107 -23.709  0.00  0.00     0.002 C 
ENDBRANCH  17  18
ENDBRANCH  15  17
ENDBRANCH   1  15
TORSDOF 9
ENDMDL
MODEL 2
REMARK VINA RESULT:      -1.7      1.982      4.134
REMARK  9 active torsions:
REMARK  status: ('A' for Active; 'I' for Inactive)
REMARK    1  A    between atoms: C_3  and  C_1 
REMARK    2  A    between atoms: C_4  and  C_1 
REMARK    3  A    between atoms: C_2  and  C_4 
REMARK    4  A    between atoms: O_9  and  C_2 
REMARK       I    between atoms: N_6  and  C_3 
REMARK    5  A    between atoms: N_5  and  C_4 
REMARK    6  A    between atoms: C_10  and  N_5 
REMARK    7  A    between atoms: C_11  and  N_6 
REMARK    8  A    between atoms: C_12  and  C_10 
REMARK    9  A    between atoms: C_13  and  C_11 
ROOT
ATOM      1  C   UNK d   1      32.367  17.966 -23.913  0.00  0.00     0.124 C 
ENDROOT
BRANCH   1   2
ATOM      2  C   UNK d   1      32.951  17.638 -24.413  0.00  0.00     0.194 C 
ATOM      3  O   UNK d   1      33.240  16.886 -24.272  0.00  0.00    -0.645 OA
BRANCH   2   4
ATOM      4  O   UNK d   1      33.241  18.078 -25.060  0.00  0.00    -0.772 OA
ATOM      5  H   UNK d   1      33.390  18.886 -24.975  0.00  0.00     0.167 HD
ENDBRANCH   2   4
ENDBRANCH   1   2
BRANCH   1   6
ATOM      6  C   UNK d   1      32.574  18.264 -23.173  0.00  0.00     0.084 C 
BRANCH   6   7
ATOM      7  C   UNK d   1      32.772  19.054 -23.095  0.00  0.00     0.259 C 
ATOM      8  N   UNK d   1      32.793  19.398 -22.345  0.00  0.00    -0.320 N 
ATOM      9  H   UNK d   1      32.613  18.941 -21.668  0.00  0.00     0.169 HD
ATOM     10  O   UNK d   1      32.951  19.510 -23.768  0.00  0.00    -0.267 OA
BRANCH   8  11
ATOM     11  C   UNK d   1      32.991  20.194 -22.261  0.00  0.00     0.075 C 
BRANCH  11  12
ATOM     12  C   UNK d   1      32.902  20.575 -21.528  0.00  0.00     0.017 C 
ATOM     13  C   UNK d   1      32.697  21.374 -21.493  0.00  0.00     0.002 C 
ATOM     14  C   UNK d   1      33.020  20.149 -20.827  0.00  0.00     0.002 C 
ENDBRANCH  11  12
ENDBRANCH   8  11
ENDBRANCH   6   7
ENDBRANCH   1   6
BRANCH   1  15
ATOM     15  N   UNK d   1      31.580  17.996 -24.154  0.00  0.00    -0.347 N 
ATOM     16  H   UNK d   1      31.253  18.730 -24.375  0.00  0.00     0.166 HD
BRANCH  15  17
ATOM     17  C   UNK d   0      31.121  17.306 -24.178  0.00  0.00     0.073 C 
BRANCH  17  18
ATOM     18  C   UNK d   0      30.336  17.344 -24.401  0.00  0.00     0.017 C 
ATOM     19  C   UNK d   0      29.769  16.899 -23.999  0.00  0.00     0.002 C 
ATOM     20  C   UNK d   0      30.110  17.829 -25.028  0.00  0.00     0.002 C 
ENDBRANCH  17  18
ENDBRANCH  15  17
ENDBRANCH   1  15
TORSDOF 9
ENDMDL
MODEL 3
REMARK VINA RESULT:      -1.4      4.827      6.343
REMARK  9 active torsions:
REMARK  status: ('A' for Active; 'I' for Inactive)
REMARK    1  A    between atoms: C_3  and  C_1 
REMARK    2  A    between atoms: C_4  and  C_1 
REMARK    3  A    between atoms: C_2  and  C_4 
REMARK    4  A    between atoms: O_9  and  C_2 
REMARK       I    between atoms: N_6  and  C_3 
REMARK    5  A    between atoms: N_5  and  C_4 
REMARK    6  A    between atoms: C_10  and  N_5 
REMARK    7  A    between atoms: C_11  and  N_6 
REMARK    8  A    between atoms: C_12  and  C_10 
REMARK    9  A    between atoms: C_13  and  C_11 
ROOT
ATOM      1  C   UNK d   1      32.752  22.597 -21.349  0.00  0.00     0.124 C 
ENDROOT
BRANCH   1   2
ATOM      2  C   UNK d   1      32.572  23.055 -22.025  0.00  0.00     0.194 C 
ATOM      3  O   UNK d   1      33.161  23.254 -22.557  0.00  0.00    -0.645 OA
BRANCH   2   4
ATOM      4  O   UNK d   1      31.790  23.311 -22.161  0.00  0.00    -0.772 OA
ATOM      5  H   UNK d   1      31.644  24.097 -22.371  0.00  0.00     0.167 HD
ENDBRANCH   2   4
ENDBRANCH   1   2
BRANCH   1   6
ATOM      6  C   UNK d   1      33.176  21.895 -21.425  0.00  0.00     0.084 C 
BRANCH   6   7
ATOM      7  C   UNK d   1      32.777  21.193 -21.561  0.00  0.00     0.259 C 
ATOM      8  N   UNK d   1      33.131  20.603 -22.016  0.00  0.00    -0.320 N 
ATOM      9  H   UNK d   1      33.895  20.722 -22.336  0.00  0.00     0.169 HD
ATOM     10  O   UNK d   1      32.017  21.075 -21.242  0.00  0.00    -0.267 OA
BRANCH   8  11
ATOM     11  C   UNK d   1      32.733  19.894 -22.156  0.00  0.00     0.075 C 
BRANCH  11  12
ATOM     12  C   UNK d   1      33.011  19.363 -22.731  0.00  0.00     0.017 C 
ATOM     13  C   UNK d   1      33.061  18.556 -22.566  0.00  0.00     0.002 C 
ATOM     14  C   UNK d   1      33.238  19.646 -23.476  0.00  0.00     0.002 C 
ENDBRANCH  11  12
ENDBRANCH   8  11
ENDBRANCH   6   7
ENDBRANCH   1   6
BRANCH   1  15
ATOM     15  N   UNK d   1      32.506  22.843 -20.602  0.00  0.00    -0.347 N 
ATOM     16  H   UNK d   1      31.730  23.131 -20.508  0.00  0.00     0.166 HD
BRANCH  15  17
ATOM     17  C   UNK d   0      33.023  22.805 -19.956  0.00  0.00     0.073 C 
BRANCH  17  18
ATOM     18  C   UNK d   0      32.816  23.152 -19.245  0.00  0.00     0.017 C 
ATOM     19  C   UNK d   0      32.189  23.687 -19.213  0.00  0.00     0.002 C 
ATOM     20  C   UNK d   0      33.236  22.967 -18.560  0.00  0.00     0.002 C 
ENDBRANCH  17  18
ENDBRANCH  15  17
ENDBRANCH   1  15
TORSDOF 9
ENDMDL
MODEL 4
REMARK VINA RESULT:      -1.1      1.932      4.276
REMARK  9 active torsions:
REMARK  status: ('A' for Active; 'I' for Inactive)
REMARK    1  A    between atoms: C_3  and  C_1 
REMARK    2  A    between atoms: C_4  and  C_1 
REMARK    3  A    between atoms: C_2  and  C_4 
REMARK    4  A    between atoms: O_9  and  C_2 
REMARK       I    between atoms: N_6  and  C_3 
REMARK    5  A    between atoms: N_5  and  C_4 
REMARK    6  A    between atoms: C_10  and  N_5 
REMARK    7  A    between atoms: C_11  and  N_6 
REMARK    8  A    between atoms: C_12  and  C_10 
REMARK    9  A    between atoms: C_13  and  C_11 
ROOT
ATOM      1  C   UNK d   1      29.371  17.397 -24.364  0.00  0.00     0.124 C 
ENDROOT
BRANCH   1   2
ATOM      2  C   UNK d   1      28.964  18.128 -24.383  0.00  0.00     0.194 C 
ATOM      3  O   UNK d   1      28.723  18.446 -25.097  0.00  0.00    -0.645 OA
BRANCH   2   4
ATOM      4  O   UNK d   1      28.803  18.535 -23.673  0.00  0.00    -0.772 OA
ATOM      5  H   UNK d   1      28.910  18.155 -22.947  0.00  0.00     0.167 HD
ENDBRANCH   2   4
ENDBRANCH   1   2
BRANCH   1   6
ATOM      6  C   UNK d   1      29.993  17.255 -24.886  0.00  0.00     0.084 C 
BRANCH   6   7
ATOM      7  C   UNK d   1      30.765  17.321 -24.624  0.00  0.00     0.259 C 
ATOM      8  N   UNK d   1      31.259  16.660 -24.640  0.00  0.00    -0.320 N 
ATOM      9  H   UNK d   1      30.972  15.928 -24.923  0.00  0.00     0.169 HD
ATOM     10  O   UNK d   1      31.052  18.050 -24.341  0.00  0.00    -0.267 OA
BRANCH   8  11
ATOM     11  C   UNK d   1      32.039  16.721 -24.376  0.00  0.00     0.075 C 
BRANCH  11  12
ATOM     12  C   UNK d   1      32.546  16.063 -24.408  0.00  0.00     0.017 C 
ATOM     13  C   UNK d   1      32.480  15.457 -23.852  0.00  0.00     0.002 C 
ATOM     14  C   UNK d   1      33.122  16.018 -25.002  0.00  0.00     0.002 C 
ENDBRANCH  11  12
ENDBRANCH   8  11
ENDBRANCH   6   7
ENDBRANCH   1   6
BRANCH   1  15
ATOM     15  N   UNK d   1      29.155  16.815 -23.824  0.00  0.00    -0.347 N 
ATOM     16  H   UNK d   1      29.741  16.486 -23.331  0.00  0.00     0.166 HD
BRANCH  15  17
ATOM     17  C   UNK d   0      28.368  16.561 -23.772  0.00  0.00     0.073 C 
BRANCH  17  18
ATOM     18  C   UNK d   0      28.190  15.854 -23.402  0.00  0.00     0.017 C 
ATOM     19  C   UNK d   0      27.494  15.453 -23.589  0.00  0.00     0.002 C 
ATOM     20  C   UNK d   0      28.707  15.542 -22.841  0.00  0.00     0.002 C 
ENDBRANCH  17  18
ENDBRANCH  15  17
ENDBRANCH   1  15
TORSDOF 9
ENDMDL
MODEL 5
REMARK VINA RESULT:       0.5      3.596      5.105
REMARK  9 active torsions:
REMARK  status: ('A' for Active; 'I' for Inactive)
REMARK    1  A    between atoms: C_3  and  C_1 
REMARK    2  A    between atoms: C_4  and  C_1 
REMARK    3  A    between atoms: C_2  and  C_4 
REMARK    4  A    between atoms: O_9  and  C_2 
REMARK       I    between atoms: N_6  and  C_3 
REMARK    5  A    between atoms: N_5  and  C_4 
REMARK    6  A    between atoms: C_10  and  N_5 
REMARK    7  A    between atoms: C_11  and  N_6 
REMARK    8  A    between atoms: C_12  and  C_10 
REMARK    9  A    between atoms: C_13  and  C_11 
ROOT
ATOM      1  C   UNK d   1      32.805  21.022 -21.657  0.00  0.00     0.124 C 
ENDROOT
BRANCH   1   2
ATOM      2  C   UNK d   1      32.558  20.560 -21.005  0.00  0.00     0.194 C 
ATOM      3  O   UNK d   1      33.111  20.196 -20.524  0.00  0.00    -0.645 OA
BRANCH   2   4
ATOM      4  O   UNK d   1      31.745  20.468 -20.843  0.00  0.00    -0.772 OA
ATOM      5  H   UNK d   1      31.499  19.951 -20.247  0.00  0.00     0.167 HD
ENDBRANCH   2   4
ENDBRANCH   1   2
BRANCH   1   6
ATOM      6  C   UNK d   1      33.238  20.678 -22.268  0.00  0.00     0.084 C 
BRANCH   6   7
ATOM      7  C   UNK d   1      33.033  19.934 -22.541  0.00  0.00     0.259 C 
ATOM      8  N   UNK d   1      32.996  19.793 -23.353  0.00  0.00    -0.320 N 
ATOM      9  H   UNK d   1      33.167  20.407 -23.894  0.00  0.00     0.169 HD
ATOM     10  O   UNK d   1      32.863  19.322 -22.003  0.00  0.00    -0.267 OA
BRANCH   8  11
ATOM     11  C   UNK d   1      32.789  19.045 -23.634  0.00  0.00     0.075 C 
BRANCH  11  12
ATOM     12  C   UNK d   1      32.694  18.912 -24.448  0.00  0.00     0.017 C 
ATOM     13  C   UNK d   1      33.023  19.432 -24.998  0.00  0.00     0.002 C 
ATOM     14  C   UNK d   1      32.266  18.252 -24.709  0.00  0.00     0.002 C 
ENDBRANCH  11  12
ENDBRANCH   8  11
ENDBRANCH   6   7
ENDBRANCH   1   6
BRANCH   1  15
ATOM     15  N   UNK d   1      32.618  21.823 -21.695  0.00  0.00    -0.347 N 
ATOM     16  H   UNK d   1      31.960  22.062 -22.146  0.00  0.00     0.166 HD
BRANCH  15  17
ATOM     17  C   UNK d   0      33.077  22.381 -21.290  0.00  0.00     0.073 C 
BRANCH  17  18
ATOM     18  C   UNK d   0      32.851  23.167 -21.278  0.00  0.00     0.017 C 
ATOM     19  C   UNK d   0      32.233  23.426 -21.759  0.00  0.00     0.002 C 
ATOM     20  C   UNK d   0      33.241  23.699 -20.785  0.00  0.00     0.002 C 
ENDBRANCH  17  18
ENDBRANCH  15  17
ENDBRANCH   1  15
TORSDOF 9
ENDMDL
MODEL 6
REMARK VINA RESULT:       0.7      1.557      1.982
REMARK  9 active torsions:
REMARK  status: ('A' for Active; 'I' for Inactive)
REMARK    1  A    between atoms: C_3  and  C_1 
REMARK    2  A    between atoms: C_4  and  C_1 
REMARK    3  A    between atoms: C_2  and  C_4 
REMARK    4  A    between atoms: O_9  and  C_2 
REMARK       I    between atoms: N_6  and  C_3 
REMARK    5  A    between atoms: N_5  and  C_4 
REMARK    6  A    between atoms: C_10  and  N_5 
REMARK    7  A    between atoms: C_11  and  N_6 
REMARK    8  A    between atoms: C_12  and  C_10 
REMARK    9  A    between atoms: C_13  and  C_11 
ROOT
ATOM      1  C   UNK d   1      31.797  18.043 -24.105  0.00  0.00     0.124 C 
ENDROOT
BRANCH   1   2
ATOM      2  C   UNK d   1      31.318  18.640 -24.442  0.00  0.00     0.194 C 
ATOM      3  O   UNK d   1      31.576  19.057 -25.096  0.00  0.00    -0.645 OA
BRANCH   2   4
ATOM      4  O   UNK d   1      30.572  18.812 -24.111  0.00  0.00    -0.772 OA
ATOM      5  H   UNK d   1      30.430  18.656 -23.311  0.00  0.00     0.167 HD
ENDBRANCH   2   4
ENDBRANCH   1   2
BRANCH   1   6
ATOM      6  C   UNK d   1      31.844  17.300 -24.459  0.00  0.00     0.084 C 
BRANCH   6   7
ATOM      7  C   UNK d   1      31.513  16.652 -24.085  0.00  0.00     0.259 C 
ATOM      8  N   UNK d   1      30.748  16.415 -24.280  0.00  0.00    -0.320 N 
ATOM      9  H   UNK d   1      30.312  16.834 -24.857  0.00  0.00     0.169 HD
ATOM     10  O   UNK d   1      31.946  16.234 -23.510  0.00  0.00    -0.267 OA
BRANCH   8  11
ATOM     11  C   UNK d   1      30.409  15.762 -23.905  0.00  0.00     0.075 C 
BRANCH  11  12
ATOM     12  C   UNK d   1      29.592  15.621 -23.961  0.00  0.00     0.017 C 
ATOM     13  C   UNK d   1      29.245  15.453 -24.690  0.00  0.00     0.002 C 
ATOM     14  C   UNK d   1      29.124  15.651 -23.278  0.00  0.00     0.002 C 
ENDBRANCH  11  12
ENDBRANCH   8  11
ENDBRANCH   6   7
ENDBRANCH   1   6
BRANCH   1  15
ATOM     15  N   UNK d   1      32.226  18.192 -23.418  0.00  0.00    -0.347 N 
ATOM     16  H   UNK d   1      32.282  17.594 -22.841  0.00  0.00     0.166 HD
BRANCH  15  17
ATOM     17  C   UNK d   0      32.596  18.925 -23.304  0.00  0.00     0.073 C 
BRANCH  17  18
ATOM     18  C   UNK d   0      32.943  19.100 -22.585  0.00  0.00     0.017 C 
ATOM     19  C   UNK d   0      33.240  18.495 -22.110  0.00  0.00     0.002 C 
ATOM     20  C   UNK d   0      32.995  19.884 -22.335  0.00  0.00     0.002 C 
ENDBRANCH  17  18
ENDBRANCH  15  17
ENDBRANCH   1  15
TORSDOF 9
ENDMDL
