MODEL 1
REMARK VINA RESULT:      -6.4      0.000      0.000
REMARK  1 active torsions:
REMARK  status: ('A' for Active; 'I' for Inactive)
REMARK    1  A    between atoms: N_11  and  C_7 
ROOT
ATOM      1  C   UNL d   1     -41.426-122.088 -53.153  0.00  0.00     0.201 A 
ATOM      2  C   UNL d   1     -41.452-122.862 -52.862  0.00  0.00     0.141 A 
ATOM      3  N   UNL d   1     -41.514-121.948 -53.960  0.00  0.00    -0.036 NA
ATOM      4  C   UNL d   1     -41.350-122.836 -52.044  0.00  0.00     0.040 A 
ATOM      5  N   UNL d   1     -41.308-121.581 -52.513  0.00  0.00    -0.225 NA
ATOM      6  N   UNL d   1     -41.565-123.502 -53.380  0.00  0.00    -0.129 NA
ATOM      7  C   UNL d   1     -41.627-122.583 -54.482  0.00  0.00     0.788 A 
ATOM      8  C   UNL d   1     -41.261-122.046 -51.829  0.00  0.00     0.085 A 
ATOM      9  N   UNL d   1     -41.652-123.354 -54.190  0.00  0.00     0.048 NA
ATOM     10  C   UNL d   1     -41.326-123.425 -51.470  0.00  0.00     0.003 A 
ATOM     11  C   UNL d   1     -41.148-121.837 -51.037  0.00  0.00     0.019 A 
ATOM     12  C   UNL d   1     -41.214-123.223 -50.681  0.00  0.00     0.000 A 
ATOM     13  C   UNL d   1     -41.124-122.425 -50.464  0.00  0.00     0.002 A 
ATOM     14  C   UNL d   1     -41.189-123.815 -50.096  0.00  0.00     0.000 C 
ENDROOT
BRANCH   7  15
ATOM     15  N   UNL d   1     -41.715-122.435 -55.291  0.00  0.00     0.069 NA
ATOM     16  N   UNL d   1     -42.296-121.967 -55.641  0.00  0.00    -0.006 N 
ENDBRANCH   7  15
TORSDOF 1
ENDMDL
MODEL 2
REMARK VINA RESULT:      -6.3      0.584      1.327
REMARK  1 active torsions:
REMARK  status: ('A' for Active; 'I' for Inactive)
REMARK    1  A    between atoms: N_11  and  C_7 
ROOT
ATOM      1  C   UNL d   1     -41.524-123.057 -53.675  0.00  0.00     0.201 A 
ATOM      2  C   UNL d   1     -41.614-122.393 -53.189  0.00  0.00     0.141 A 
ATOM      3  N   UNL d   1     -41.634-122.990 -54.489  0.00  0.00    -0.036 NA
ATOM      4  C   UNL d   1     -41.473-122.619 -52.409  0.00  0.00     0.040 A 
ATOM      5  N   UNL d   1     -41.325-123.696 -53.193  0.00  0.00    -0.225 NA
ATOM      6  N   UNL d   1     -41.817-121.656 -53.518  0.00  0.00    -0.129 NA
ATOM      7  C   UNL d   1     -41.836-122.258 -54.822  0.00  0.00     0.788 A 
ATOM      8  C   UNL d   1     -41.294-123.423 -52.411  0.00  0.00     0.085 A 
ATOM      9  N   UNL d   1     -41.926-121.597 -54.337  0.00  0.00     0.048 NA
ATOM     10  C   UNL d   1     -41.482-122.201 -51.701  0.00  0.00     0.003 A 
ATOM     11  C   UNL d   1     -41.123-123.817 -51.705  0.00  0.00     0.019 A 
ATOM     12  C   UNL d   1     -41.314-122.587 -50.996  0.00  0.00     0.000 A 
ATOM     13  C   UNL d   1     -41.133-123.400 -50.998  0.00  0.00     0.002 A 
ATOM     14  C   UNL d   1     -41.322-122.169 -50.275  0.00  0.00     0.000 C 
ENDROOT
BRANCH   7  15
ATOM     15  N   UNL d   1     -41.945-122.199 -55.640  0.00  0.00     0.069 NA
ATOM     16  N   UNL d   1     -42.626-121.937 -56.023  0.00  0.00    -0.006 N 
ENDBRANCH   7  15
TORSDOF 1
ENDMDL
MODEL 3
REMARK VINA RESULT:      -6.1      1.459      3.611
REMARK  1 active torsions:
REMARK  status: ('A' for Active; 'I' for Inactive)
REMARK    1  A    between atoms: N_11  and  C_7 
ROOT
ATOM      1  C   UNL d   1     -41.319-123.261 -52.208  0.00  0.00     0.201 A 
ATOM      2  C   UNL d   1     -41.626-122.566 -52.535  0.00  0.00     0.141 A 
ATOM      3  N   UNL d   1     -41.248-123.336 -51.391  0.00  0.00    -0.036 NA
ATOM      4  C   UNL d   1     -41.634-122.644 -53.356  0.00  0.00     0.040 A 
ATOM      5  N   UNL d   1     -41.137-123.772 -52.830  0.00  0.00    -0.225 NA
ATOM      6  N   UNL d   1     -41.863-121.939 -52.042  0.00  0.00    -0.129 NA
ATOM      7  C   UNL d   1     -41.482-122.715 -50.895  0.00  0.00     0.788 A 
ATOM      8  C   UNL d   1     -41.332-123.389 -53.538  0.00  0.00     0.085 A 
ATOM      9  N   UNL d   1     -41.788-122.022 -51.222  0.00  0.00     0.048 NA
ATOM     10  C   UNL d   1     -41.875-122.139 -53.959  0.00  0.00     0.003 A 
ATOM     11  C   UNL d   1     -41.268-123.636 -54.324  0.00  0.00     0.019 A 
ATOM     12  C   UNL d   1     -41.814-122.379 -54.742  0.00  0.00     0.000 A 
ATOM     13  C   UNL d   1     -41.509-123.131 -54.926  0.00  0.00     0.002 A 
ATOM     14  C   UNL d   1     -42.056-121.871 -55.357  0.00  0.00     0.000 C 
ENDROOT
BRANCH   7  15
ATOM     15  N   UNL d   1     -41.407-122.797 -50.076  0.00  0.00     0.069 NA
ATOM     16  N   UNL d   1     -42.019-122.944 -49.542  0.00  0.00    -0.006 N 
ENDBRANCH   7  15
TORSDOF 1
ENDMDL
MODEL 4
REMARK VINA RESULT:      -4.9      1.732      2.513
REMARK  1 active torsions:
REMARK  status: ('A' for Active; 'I' for Inactive)
REMARK    1  A    between atoms: N_11  and  C_7 
ROOT
ATOM      1  C   UNL d   1     -42.397-122.481 -50.851  0.00  0.00     0.201 A 
ATOM      2  C   UNL d   1     -41.757-122.901 -50.537  0.00  0.00     0.141 A 
ATOM      3  N   UNL d   1     -42.407-122.284 -51.651  0.00  0.00    -0.036 NA
ATOM      4  C   UNL d   1     -41.893-123.021 -49.733  0.00  0.00     0.040 A 
ATOM      5  N   UNL d   1     -42.931-122.340 -50.238  0.00  0.00    -0.225 NA
ATOM      6  N   UNL d   1     -41.123-123.127 -51.025  0.00  0.00    -0.129 NA
ATOM      7  C   UNL d   1     -41.778-122.506 -52.142  0.00  0.00     0.788 A 
ATOM      8  C   UNL d   1     -42.618-122.675 -49.548  0.00  0.00     0.085 A 
ATOM      9  N   UNL d   1     -41.140-122.925 -51.827  0.00  0.00     0.048 NA
ATOM     10  C   UNL d   1     -41.455-123.398 -49.147  0.00  0.00     0.003 A 
ATOM     11  C   UNL d   1     -42.911-122.702 -48.776  0.00  0.00     0.019 A 
ATOM     12  C   UNL d   1     -41.742-123.427 -48.377  0.00  0.00     0.000 A 
ATOM     13  C   UNL d   1     -42.474-123.078 -48.191  0.00  0.00     0.002 A 
ATOM     14  C   UNL d   1     -41.303-123.807 -47.780  0.00  0.00     0.000 C 
ENDROOT
BRANCH   7  15
ATOM     15  N   UNL d   1     -41.795-122.304 -52.944  0.00  0.00     0.069 NA
ATOM     16  N   UNL d   1     -41.406-122.698 -53.555  0.00  0.00    -0.006 N 
ENDBRANCH   7  15
TORSDOF 1
ENDMDL
MODEL 5
REMARK VINA RESULT:      -4.7      2.047      3.553
REMARK  1 active torsions:
REMARK  status: ('A' for Active; 'I' for Inactive)
REMARK    1  A    between atoms: N_11  and  C_7 
ROOT
ATOM      1  C   UNL d   1     -41.741-122.357 -50.979  0.00  0.00     0.201 A 
ATOM      2  C   UNL d   1     -41.719-123.104 -51.335  0.00  0.00     0.141 A 
ATOM      3  N   UNL d   1     -41.923-122.289 -50.179  0.00  0.00    -0.036 NA
ATOM      4  C   UNL d   1     -41.524-123.008 -52.131  0.00  0.00     0.040 A 
ATOM      5  N   UNL d   1     -41.557-121.797 -51.556  0.00  0.00    -0.225 NA
ATOM      6  N   UNL d   1     -41.882-123.787 -50.890  0.00  0.00    -0.129 NA
ATOM      7  C   UNL d   1     -42.086-122.966 -49.729  0.00  0.00     0.788 A 
ATOM      8  C   UNL d   1     -41.424-122.201 -52.267  0.00  0.00     0.085 A 
ATOM      9  N   UNL d   1     -42.065-123.709 -50.086  0.00  0.00     0.048 NA
ATOM     10  C   UNL d   1     -41.424-123.545 -52.746  0.00  0.00     0.003 A 
ATOM     11  C   UNL d   1     -41.223-121.924 -53.019  0.00  0.00     0.019 A 
ATOM     12  C   UNL d   1     -41.225-123.275 -53.496  0.00  0.00     0.000 A 
ATOM     13  C   UNL d   1     -41.124-122.461 -53.633  0.00  0.00     0.002 A 
ATOM     14  C   UNL d   1     -41.123-123.814 -54.122  0.00  0.00     0.000 C 
ENDROOT
BRANCH   7  15
ATOM     15  N   UNL d   1     -42.269-122.889 -48.927  0.00  0.00     0.069 NA
ATOM     16  N   UNL d   1     -43.006-123.015 -48.580  0.00  0.00    -0.006 N 
ENDBRANCH   7  15
TORSDOF 1
ENDMDL
