MODEL 1
REMARK VINA RESULT:      -2.8      0.000      0.000
REMARK  4 active torsions:
REMARK  status: ('A' for Active; 'I' for Inactive)
REMARK    1  A    between atoms: S_7  and  C_3 
REMARK    2  A    between atoms: C_12  and  S_7 
REMARK    3  A    between atoms: C_9  and  C_12 
REMARK    4  A    between atoms: C_11  and  C_9 
ROOT
ATOM      1  S   UNL d   1      32.967  20.318 -21.892  0.00  0.00    -0.043 SA
ENDROOT
BRANCH   1   2
ATOM      2  C   UNL d   1      32.871  21.134 -21.944  0.00  0.00     0.220 A 
ATOM      3  N   UNL d   1      32.447  21.538 -21.363  0.00  0.00    -0.149 N 
ATOM      4  C   UNL d   1      32.344  22.359 -21.406  0.00  0.00     0.303 A 
ATOM      5  N   UNL d   1      32.118  21.125 -20.730  0.00  0.00    -0.037 N 
ATOM      6  C   UNL d   1      32.678  22.766 -22.048  0.00  0.00     0.161 A 
ATOM      7  O   UNL d   1      31.923  22.759 -20.831  0.00  0.00    -0.263 OA
ATOM      8  C   UNL d   1      32.581  23.582 -22.099  0.00  0.00     0.028 C 
ATOM      9  N   UNL d   1      33.102  22.362 -22.629  0.00  0.00    -0.141 NA
ATOM     10  N   UNL d   1      33.196  21.548 -22.574  0.00  0.00    -0.121 NA
ENDBRANCH   1   2
BRANCH   1  11
ATOM     11  C   UNL d   1      32.916  19.854 -22.568  0.00  0.00     0.080 C 
BRANCH  11  12
ATOM     12  C   UNL d   1      32.985  19.040 -22.505  0.00  0.00     0.202 C 
ATOM     13  O   UNL d   1      33.241  18.686 -21.810  0.00  0.00    -0.286 OA
BRANCH  12  14
ATOM     14  C   UNL d   1      32.789  18.566 -23.163  0.00  0.00     0.040 A 
ATOM     15  C   UNL d   1      32.220  17.968 -23.076  0.00  0.00     0.004 A 
ATOM     16  C   UNL d   1      32.021  17.495 -23.722  0.00  0.00     0.011 A 
ATOM     17  C   UNL d   1      32.394  17.623 -24.458  0.00  0.00     0.058 A 
ATOM     18  C   UNL d   1      32.955  18.215 -24.537  0.00  0.00     0.011 A 
ATOM     19 CL   UNL d   1      32.197  17.155 -25.097  0.00  0.00    -0.082 Cl
ATOM     20  C   UNL d   1      33.157  18.690 -23.893  0.00  0.00     0.004 A 
ENDBRANCH  12  14
ENDBRANCH  11  12
ENDBRANCH   1  11
TORSDOF 4
ENDMDL
MODEL 2
REMARK VINA RESULT:      -2.7      2.401      4.496
REMARK  4 active torsions:
REMARK  status: ('A' for Active; 'I' for Inactive)
REMARK    1  A    between atoms: S_7  and  C_3 
REMARK    2  A    between atoms: C_12  and  S_7 
REMARK    3  A    between atoms: C_9  and  C_12 
REMARK    4  A    between atoms: C_11  and  C_9 
ROOT
ATOM      1  S   UNL d   1      33.241  19.356 -22.121  0.00  0.00    -0.043 SA
ENDROOT
BRANCH   1   2
ATOM      2  C   UNL d   1      33.193  19.007 -22.865  0.00  0.00     0.220 A 
ATOM      3  N   UNL d   1      33.174  18.185 -22.936  0.00  0.00    -0.149 N 
ATOM      4  C   UNL d   1      33.126  17.823 -23.680  0.00  0.00     0.303 A 
ATOM      5  N   UNL d   1      33.202  17.712 -22.262  0.00  0.00    -0.037 N 
ATOM      6  C   UNL d   1      33.098  18.308 -24.353  0.00  0.00     0.161 A 
ATOM      7  O   UNL d   1      33.107  17.010 -23.750  0.00  0.00    -0.263 OA
ATOM      8  C   UNL d   1      33.051  17.959 -25.097  0.00  0.00     0.028 C 
ATOM      9  N   UNL d   1      33.118  19.130 -24.283  0.00  0.00    -0.141 NA
ATOM     10  N   UNL d   1      33.165  19.475 -23.539  0.00  0.00    -0.121 NA
ENDBRANCH   1   2
BRANCH   1  11
ATOM     11  C   UNL d   1      33.191  20.172 -22.046  0.00  0.00     0.080 C 
BRANCH  11  12
ATOM     12  C   UNL d   1      33.078  20.503 -21.305  0.00  0.00     0.202 C 
ATOM     13  O   UNL d   1      33.241  20.081 -20.619  0.00  0.00    -0.286 OA
BRANCH  12  14
ATOM     14  C   UNL d   1      32.791  21.284 -21.251  0.00  0.00     0.040 A 
ATOM     15  C   UNL d   1      33.192  21.891 -21.649  0.00  0.00     0.004 A 
ATOM     16  C   UNL d   1      32.914  22.667 -21.600  0.00  0.00     0.011 A 
ATOM     17  C   UNL d   1      32.232  22.833 -21.150  0.00  0.00     0.058 A 
ATOM     18  C   UNL d   1      31.840  22.229 -20.759  0.00  0.00     0.011 A 
ATOM     19 CL   UNL d   1      31.957  23.600 -21.102  0.00  0.00    -0.082 Cl
ATOM     20  C   UNL d   1      32.115  21.452 -20.805  0.00  0.00     0.004 A 
ENDBRANCH  12  14
ENDBRANCH  11  12
ENDBRANCH   1  11
TORSDOF 4
ENDMDL
MODEL 3
REMARK VINA RESULT:      -2.2      3.041      4.071
REMARK  4 active torsions:
REMARK  status: ('A' for Active; 'I' for Inactive)
REMARK    1  A    between atoms: S_7  and  C_3 
REMARK    2  A    between atoms: C_12  and  S_7 
REMARK    3  A    between atoms: C_9  and  C_12 
REMARK    4  A    between atoms: C_11  and  C_9 
ROOT
ATOM      1  S   UNL d   1      32.086  17.101 -24.104  0.00  0.00    -0.043 SA
ENDROOT
BRANCH   1   2
ATOM      2  C   UNL d   1      32.360  17.872 -24.199  0.00  0.00     0.220 A 
ATOM      3  N   UNL d   1      32.662  18.285 -23.552  0.00  0.00    -0.149 N 
ATOM      4  C   UNL d   1      32.941  19.061 -23.636  0.00  0.00     0.303 A 
ATOM      5  N   UNL d   1      32.691  17.927 -22.810  0.00  0.00    -0.037 N 
ATOM      6  C   UNL d   1      32.909  19.413 -24.387  0.00  0.00     0.161 A 
ATOM      7  O   UNL d   1      33.241  19.470 -22.996  0.00  0.00    -0.263 OA
ATOM      8  C   UNL d   1      33.183  20.183 -24.481  0.00  0.00     0.028 C 
ATOM      9  N   UNL d   1      32.606  19.000 -25.034  0.00  0.00    -0.141 NA
ATOM     10  N   UNL d   1      32.333  18.231 -24.936  0.00  0.00    -0.121 NA
ENDBRANCH   1   2
BRANCH   1  11
ATOM     11  C   UNL d   1      31.280  16.945 -24.137  0.00  0.00     0.080 C 
BRANCH  11  12
ATOM     12  C   UNL d   1      31.019  16.168 -24.120  0.00  0.00     0.202 C 
ATOM     13  O   UNL d   1      31.528  15.543 -24.275  0.00  0.00    -0.286 OA
BRANCH  12  14
ATOM     14  C   UNL d   1      30.219  16.015 -23.941  0.00  0.00     0.040 A 
ATOM     15  C   UNL d   1      30.026  15.665 -23.214  0.00  0.00     0.004 A 
ATOM     16  C   UNL d   1      29.237  15.511 -23.030  0.00  0.00     0.011 A 
ATOM     17  C   UNL d   1      28.639  15.709 -23.577  0.00  0.00     0.058 A 
ATOM     18  C   UNL d   1      28.836  16.055 -24.293  0.00  0.00     0.011 A 
ATOM     19 CL   UNL d   1      27.858  15.556 -23.394  0.00  0.00    -0.082 Cl
ATOM     20  C   UNL d   1      29.624  16.211 -24.481  0.00  0.00     0.004 A 
ENDBRANCH  12  14
ENDBRANCH  11  12
ENDBRANCH   1  11
TORSDOF 4
ENDMDL
MODEL 4
REMARK VINA RESULT:      -2.1      4.109      5.469
REMARK  4 active torsions:
REMARK  status: ('A' for Active; 'I' for Inactive)
REMARK    1  A    between atoms: S_7  and  C_3 
REMARK    2  A    between atoms: C_12  and  S_7 
REMARK    3  A    between atoms: C_9  and  C_12 
REMARK    4  A    between atoms: C_11  and  C_9 
ROOT
ATOM      1  S   UNL d   1      30.985  16.169 -23.737  0.00  0.00    -0.043 SA
ENDROOT
BRANCH   1   2
ATOM      2  C   UNL d   1      30.195  16.006 -23.902  0.00  0.00     0.220 A 
ATOM      3  N   UNL d   1      29.677  15.811 -23.289  0.00  0.00    -0.149 N 
ATOM      4  C   UNL d   1      28.879  15.645 -23.443  0.00  0.00     0.303 A 
ATOM      5  N   UNL d   1      29.950  15.780 -22.512  0.00  0.00    -0.037 N 
ATOM      6  C   UNL d   1      28.614  15.679 -24.229  0.00  0.00     0.161 A 
ATOM      7  O   UNL d   1      28.367  15.453 -22.837  0.00  0.00    -0.263 OA
ATOM      8  C   UNL d   1      27.824  15.516 -24.392  0.00  0.00     0.028 C 
ATOM      9  N   UNL d   1      29.132  15.874 -24.841  0.00  0.00    -0.141 NA
ATOM     10  N   UNL d   1      29.919  16.036 -24.674  0.00  0.00    -0.121 NA
ENDBRANCH   1   2
BRANCH   1  11
ATOM     11  C   UNL d   1      31.392  16.721 -24.187  0.00  0.00     0.080 C 
BRANCH  11  12
ATOM     12  C   UNL d   1      32.173  16.892 -24.007  0.00  0.00     0.202 C 
ATOM     13  O   UNL d   1      32.691  16.308 -23.753  0.00  0.00    -0.286 OA
BRANCH  12  14
ATOM     14  C   UNL d   1      32.443  17.678 -24.084  0.00  0.00     0.040 A 
ATOM     15  C   UNL d   1      32.580  18.128 -23.401  0.00  0.00     0.004 A 
ATOM     16  C   UNL d   1      32.847  18.906 -23.469  0.00  0.00     0.011 A 
ATOM     17  C   UNL d   1      32.977  19.233 -24.226  0.00  0.00     0.058 A 
ATOM     18  C   UNL d   1      32.840  18.782 -24.897  0.00  0.00     0.011 A 
ATOM     19 CL   UNL d   1      33.241  20.002 -24.293  0.00  0.00    -0.082 Cl
ATOM     20  C   UNL d   1      32.573  18.004 -24.832  0.00  0.00     0.004 A 
ENDBRANCH  12  14
ENDBRANCH  11  12
ENDBRANCH   1  11
TORSDOF 4
ENDMDL
MODEL 5
REMARK VINA RESULT:      -0.4      3.528      4.389
REMARK  4 active torsions:
REMARK  status: ('A' for Active; 'I' for Inactive)
REMARK    1  A    between atoms: S_7  and  C_3 
REMARK    2  A    between atoms: C_12  and  S_7 
REMARK    3  A    between atoms: C_9  and  C_12 
REMARK    4  A    between atoms: C_11  and  C_9 
ROOT
ATOM      1  S   UNL d   1      33.129  22.058 -19.681  0.00  0.00    -0.043 SA
ENDROOT
BRANCH   1   2
ATOM      2  C   UNL d   1      33.084  22.469 -18.969  0.00  0.00     0.220 A 
ATOM      3  N   UNL d   1      33.136  22.062 -18.254  0.00  0.00    -0.149 N 
ATOM      4  C   UNL d   1      33.092  22.466 -17.531  0.00  0.00     0.303 A 
ATOM      5  N   UNL d   1      33.232  21.244 -18.250  0.00  0.00    -0.037 N 
ATOM      6  C   UNL d   1      32.994  23.290 -17.545  0.00  0.00     0.161 A 
ATOM      7  O   UNL d   1      33.143  22.063 -16.822  0.00  0.00    -0.263 OA
ATOM      8  C   UNL d   1      32.949  23.700 -16.833  0.00  0.00     0.028 C 
ATOM      9  N   UNL d   1      32.943  23.697 -18.261  0.00  0.00    -0.141 NA
ATOM     10  N   UNL d   1      32.988  23.284 -18.969  0.00  0.00    -0.121 NA
ENDBRANCH   1   2
BRANCH   1  11
ATOM     11  C   UNL d   1      33.069  22.461 -20.394  0.00  0.00     0.080 C 
BRANCH  11  12
ATOM     12  C   UNL d   1      32.922  22.044 -21.083  0.00  0.00     0.202 C 
ATOM     13  O   UNL d   1      32.886  21.224 -21.087  0.00  0.00    -0.286 OA
BRANCH  12  14
ATOM     14  C   UNL d   1      32.808  22.466 -21.794  0.00  0.00     0.040 A 
ATOM     15  C   UNL d   1      33.236  22.245 -22.469  0.00  0.00     0.004 A 
ATOM     16  C   UNL d   1      33.128  22.657 -23.176  0.00  0.00     0.011 A 
ATOM     17  C   UNL d   1      32.588  23.293 -23.205  0.00  0.00     0.058 A 
ATOM     18  C   UNL d   1      32.168  23.506 -22.534  0.00  0.00     0.011 A 
ATOM     19 CL   UNL d   1      32.481  23.701 -23.903  0.00  0.00    -0.082 Cl
ATOM     20  C   UNL d   1      32.274  23.096 -21.825  0.00  0.00     0.004 A 
ENDBRANCH  12  14
ENDBRANCH  11  12
ENDBRANCH   1  11
TORSDOF 4
ENDMDL
MODEL 6
REMARK VINA RESULT:       0.1      2.997      4.856
REMARK  4 active torsions:
REMARK  status: ('A' for Active; 'I' for Inactive)
REMARK    1  A    between atoms: S_7  and  C_3 
REMARK    2  A    between atoms: C_12  and  S_7 
REMARK    3  A    between atoms: C_9  and  C_12 
REMARK    4  A    between atoms: C_11  and  C_9 
ROOT
ATOM      1  S   UNL d   1      32.569  18.389 -23.802  0.00  0.00    -0.043 SA
ENDROOT
BRANCH   1   2
ATOM      2  C   UNL d   1      32.193  17.659 -23.739  0.00  0.00     0.220 A 
ATOM      3  N   UNL d   1      31.584  17.462 -24.260  0.00  0.00    -0.149 N 
ATOM      4  C   UNL d   1      31.198  16.731 -24.205  0.00  0.00     0.303 A 
ATOM      5  N   UNL d   1      31.352  17.995 -24.844  0.00  0.00    -0.037 N 
ATOM      6  C   UNL d   1      31.439  16.201 -23.613  0.00  0.00     0.161 A 
ATOM      7  O   UNL d   1      30.595  16.535 -24.721  0.00  0.00    -0.263 OA
ATOM      8  C   UNL d   1      31.062  15.472 -23.551  0.00  0.00     0.028 C 
ATOM      9  N   UNL d   1      32.048  16.398 -23.092  0.00  0.00    -0.141 NA
ATOM     10  N   UNL d   1      32.421  17.127 -23.158  0.00  0.00    -0.121 NA
ENDBRANCH   1   2
BRANCH   1  11
ATOM     11  C   UNL d   1      32.821  18.781 -23.126  0.00  0.00     0.080 C 
BRANCH  11  12
ATOM     12  C   UNL d   1      33.054  19.565 -23.177  0.00  0.00     0.202 C 
ATOM     13  O   UNL d   1      33.241  19.909 -23.899  0.00  0.00    -0.286 OA
BRANCH  12  14
ATOM     14  C   UNL d   1      33.102  20.019 -22.479  0.00  0.00     0.040 A 
ATOM     15  C   UNL d   1      33.108  20.847 -22.534  0.00  0.00     0.004 A 
ATOM     16  C   UNL d   1      33.154  21.303 -21.848  0.00  0.00     0.011 A 
ATOM     17  C   UNL d   1      33.195  20.926 -21.104  0.00  0.00     0.058 A 
ATOM     18  C   UNL d   1      33.188  20.108 -21.057  0.00  0.00     0.011 A 
ATOM     19 CL   UNL d   1      33.241  21.377 -20.425  0.00  0.00    -0.082 Cl
ATOM     20  C   UNL d   1      33.142  19.649 -21.741  0.00  0.00     0.004 A 
ENDBRANCH  12  14
ENDBRANCH  11  12
ENDBRANCH   1  11
TORSDOF 4
ENDMDL
