MODEL 1
REMARK VINA RESULT:      60.7      0.000      0.000
REMARK  4 active torsions:
REMARK  status: ('A' for Active; 'I' for Inactive)
REMARK    1  A    between atoms: C_11  and  C_3 
REMARK    2  A    between atoms: N_10  and  C_4 
REMARK    3  A    between atoms: C_15  and  N_10 
REMARK    4  A    between atoms: C_16  and  C_15 
ROOT
ATOM      1  C   UNL d   1      45.001 -16.689  38.502  0.00  0.00     0.167 A 
ATOM      2  N   UNL d   1      45.697 -16.975  38.896  0.00  0.00    -0.195 N 
ATOM      3  C   UNL d   1      45.071 -16.187  37.869  0.00  0.00     0.057 A 
ATOM      4  C   UNL d   1      45.611 -17.472  39.523  0.00  0.00     0.167 A 
ATOM      5  N   UNL d   1      46.499 -16.233  37.989  0.00  0.00    -0.161 NA
ATOM      6  N   UNL d   1      44.265 -16.919  38.761  0.00  0.00    -0.227 NA
ATOM      7  C   UNL d   1      44.871 -17.711  39.793  0.00  0.00     0.058 A 
ATOM      8  C   UNL d   1      45.825 -15.955  37.608  0.00  0.00     0.124 A 
ATOM      9  C   UNL d   1      44.186 -17.429  39.405  0.00  0.00     0.086 A 
ATOM     10  C   UNL d   1      43.409 -17.672  39.680  0.00  0.00     0.021 C 
ENDROOT
BRANCH   4  11
ATOM     11  N   UNL d   1      46.311 -17.764  39.923  0.00  0.00    -0.224 NA
BRANCH  11  12
ATOM     12  C   UNL d   1      46.647 -18.479  40.259  0.00  0.00     0.120 C 
BRANCH  12  13
ATOM     13  C   UNL d   1      46.638 -18.599  41.107  0.00  0.00     0.101 A 
ATOM     14  N   UNL d   1      46.634 -17.911  41.628  0.00  0.00    -0.242 NA
ATOM     15  C   UNL d   1      46.625 -18.032  42.476  0.00  0.00     0.099 A 
ATOM     16  C   UNL d   1      46.620 -18.828  42.799  0.00  0.00     0.021 A 
ATOM     17  C   UNL d   1      46.625 -19.503  42.276  0.00  0.00     0.003 A 
ATOM     18  C   UNL d   1      46.633 -19.383  41.427  0.00  0.00     0.021 A 
ENDBRANCH  12  13
ENDBRANCH  11  12
ENDBRANCH   4  11
BRANCH   3  19
ATOM     19  C   UNL d   1      44.396 -15.910  37.487  0.00  0.00     0.005 A 
ATOM     20  C   UNL d   1      43.989 -15.276  37.794  0.00  0.00     0.001 A 
ATOM     21  C   UNL d   1      43.315 -14.998  37.412  0.00  0.00     0.011 A 
ATOM     22  C   UNL d   1      43.058 -15.359  36.730  0.00  0.00     0.058 A 
ATOM     23  C   UNL d   1      43.476 -15.998  36.429  0.00  0.00     0.011 A 
ATOM     24 CL   UNL d   1      42.352 -15.068  36.330  0.00  0.00    -0.082 Cl
ATOM     25  C   UNL d   1      44.139 -16.271  36.804  0.00  0.00     0.001 A 
ENDBRANCH   3  19
TORSDOF 4
ENDMDL
MODEL 2
REMARK VINA RESULT:      63.2      2.377      5.620
REMARK  4 active torsions:
REMARK  status: ('A' for Active; 'I' for Inactive)
REMARK    1  A    between atoms: C_11  and  C_3 
REMARK    2  A    between atoms: N_10  and  C_4 
REMARK    3  A    between atoms: C_15  and  N_10 
REMARK    4  A    between atoms: C_16  and  C_15 
ROOT
ATOM      1  C   UNL d   1      45.882 -18.468  41.404  0.00  0.00     0.167 A 
ATOM      2  N   UNL d   1      45.659 -17.937  40.780  0.00  0.00    -0.195 N 
ATOM      3  C   UNL d   1      45.777 -18.251  42.177  0.00  0.00     0.057 A 
ATOM      4  C   UNL d   1      45.770 -18.167  40.017  0.00  0.00     0.167 A 
ATOM      5  N   UNL d   1      45.235 -16.993  41.752  0.00  0.00    -0.161 NA
ATOM      6  N   UNL d   1      46.200 -19.194  41.223  0.00  0.00    -0.227 NA
ATOM      7  C   UNL d   1      46.092 -18.900  39.824  0.00  0.00     0.058 A 
ATOM      8  C   UNL d   1      45.451 -17.508  42.357  0.00  0.00     0.124 A 
ATOM      9  C   UNL d   1      46.311 -19.423  40.438  0.00  0.00     0.086 A 
ATOM     10  C   UNL d   1      46.647 -20.189  40.247  0.00  0.00     0.021 C 
ENDROOT
BRANCH   4  11
ATOM     11  N   UNL d   1      45.547 -17.634  39.383  0.00  0.00    -0.224 NA
BRANCH  11  12
ATOM     12  C   UNL d   1      44.859 -17.318  38.978  0.00  0.00     0.120 C 
BRANCH  12  13
ATOM     13  C   UNL d   1      44.957 -16.750  38.345  0.00  0.00     0.101 A 
ATOM     14  N   UNL d   1      44.279 -16.553  37.849  0.00  0.00    -0.242 NA
ATOM     15  C   UNL d   1      44.379 -15.985  37.216  0.00  0.00     0.099 A 
ATOM     16  C   UNL d   1      45.144 -15.619  37.079  0.00  0.00     0.021 A 
ATOM     17  C   UNL d   1      45.810 -15.820  37.575  0.00  0.00     0.003 A 
ATOM     18  C   UNL d   1      45.711 -16.389  38.210  0.00  0.00     0.021 A 
ENDBRANCH  12  13
ENDBRANCH  11  12
ENDBRANCH   4  11
BRANCH   3  19
ATOM     19  C   UNL d   1      45.993 -18.766  42.783  0.00  0.00     0.005 A 
ATOM     20  C   UNL d   1      45.780 -19.550  42.743  0.00  0.00     0.001 A 
ATOM     21  C   UNL d   1      45.995 -20.064  43.348  0.00  0.00     0.011 A 
ATOM     22  C   UNL d   1      46.421 -19.787  43.983  0.00  0.00     0.058 A 
ATOM     23  C   UNL d   1      46.631 -18.995  44.014  0.00  0.00     0.011 A 
ATOM     24 CL   UNL d   1      46.647 -20.326  44.617  0.00  0.00    -0.082 Cl
ATOM     25  C   UNL d   1      46.419 -18.488  43.418  0.00  0.00     0.001 A 
ENDBRANCH   3  19
TORSDOF 4
ENDMDL
