MODEL 1
REMARK VINA RESULT:      62.0      0.000      0.000
REMARK  6 active torsions:
REMARK  status: ('A' for Active; 'I' for Inactive)
REMARK       I    between atoms: C_6  and  N_1 
REMARK    1  A    between atoms: C_10  and  C_2 
REMARK    2  A    between atoms: O_16  and  C_8 
REMARK    3  A    between atoms: O_14  and  C_10 
REMARK    4  A    between atoms: O_17  and  C_11 
REMARK    5  A    between atoms: C_15  and  O_14 
REMARK    6  A    between atoms: C_24  and  C_18 
ROOT
ATOM      1  N   UNL d   1     -50.161  24.178  33.405  0.00  0.00    -0.271 N 
ATOM      2  C   UNL d   1     -50.734  24.771  33.441  0.00  0.00     0.092 A 
ATOM      3  C   UNL d   1     -51.527  24.571  33.429  0.00  0.00     0.020 A 
ATOM      4  C   UNL d   1     -51.755  23.780  33.382  0.00  0.00     0.005 A 
ATOM      5  C   UNL d   1     -52.095  25.163  33.465  0.00  0.00     0.028 A 
ATOM      6  C   UNL d   1     -49.350  24.378  33.417  0.00  0.00     0.265 C 
ATOM      7  C   UNL d   1     -50.390  23.387  33.358  0.00  0.00     0.083 A 
ATOM      8  C   UNL d   1     -52.896  24.965  33.454  0.00  0.00     0.116 A 
ATOM      9  C   UNL d   1     -52.552  23.580  33.370  0.00  0.00     0.026 A 
ATOM     10  C   UNL d   1     -53.124  24.174  33.406  0.00  0.00     0.116 A 
ATOM     11  C   UNL d   1     -51.191  23.188  33.346  0.00  0.00     0.019 A 
ATOM     12  O   UNL d   1     -49.121  25.169  33.465  0.00  0.00    -0.267 OA
ATOM     13  C   UNL d   1     -48.786  23.787  33.381  0.00  0.00     0.066 C 
ENDROOT
BRANCH   2  14
ATOM     14  C   UNL d   1     -50.506  25.562  33.489  0.00  0.00     0.140 C 
BRANCH  14  15
ATOM     15  O   UNL d   1     -50.358  25.906  34.225  0.00  0.00    -0.304 OA
BRANCH  15  16
ATOM     16  C   UNL d   1     -49.967  26.631  34.271  0.00  0.00     0.100 A 
ATOM     17  C   UNL d   1     -50.402  27.331  34.325  0.00  0.00     0.025 A 
ATOM     18  C   UNL d   1     -50.011  28.056  34.371  0.00  0.00     0.002 A 
ATOM     19  C   UNL d   1     -49.186  28.082  34.362  0.00  0.00     0.000 A 
ATOM     20  C   UNL d   1     -48.752  27.381  34.307  0.00  0.00     0.002 A 
ATOM     21  C   UNL d   1     -49.142  26.656  34.262  0.00  0.00     0.025 A 
BRANCH  19  22
ATOM     22  C   UNL d   1     -48.795  28.807  34.408  0.00  0.00     0.000 C 
ATOM     23  C   UNL d   1     -48.476  29.059  35.122  0.00  0.00     0.000 C 
ENDBRANCH  19  22
ENDBRANCH  15  16
ENDBRANCH  14  15
ENDBRANCH   2  14
BRANCH   8  24
ATOM     24  O   UNL d   1     -53.472  25.564  33.490  0.00  0.00    -0.326 OA
ATOM     25  C   UNL d   1     -53.268  26.343  33.307  0.00  0.00     0.181 C 
ENDBRANCH   8  24
BRANCH  10  26
ATOM     26  O   UNL d   1     -53.933  23.968  33.394  0.00  0.00    -0.326 OA
ATOM     27  C   UNL d   1     -54.232  23.454  33.967  0.00  0.00     0.181 C 
ENDBRANCH  10  26
TORSDOF 6
ENDMDL
