MODEL 1
REMARK VINA RESULT:      -6.2      0.000      0.000
REMARK  2 active torsions:
REMARK  status: ('A' for Active; 'I' for Inactive)
REMARK    1  A    between atoms: S_2  and  C_1 
REMARK    2  A    between atoms: N_3  and  S_2 
ROOT
ATOM      1  C   UNL d   1     -41.741-122.601 -53.675  0.00  0.00     0.125 A 
ATOM      2  C   UNL d   1     -42.180-121.953 -54.015  0.00  0.00    -0.009 A 
ATOM      3  C   UNL d   1     -41.308-123.170 -53.866  0.00  0.00     0.031 A 
ATOM      4  C   UNL d   1     -41.980-122.200 -54.235  0.00  0.00    -0.009 A 
ATOM      5  C   UNL d   1     -41.881-122.219 -55.130  0.00  0.00    -0.007 A 
ATOM      6  C   UNL d   1     -41.212-123.194 -54.694  0.00  0.00     0.045 A 
ATOM      7  C   UNL d   1     -42.109-121.959 -54.718  0.00  0.00    -0.007 A 
ATOM      8  C   UNL d   1     -41.461-122.772 -55.315  0.00  0.00    -0.022 A 
ATOM      9  C   UNL d   1     -41.549-122.694 -54.987  0.00  0.00    -0.022 A 
ATOM     10  C   UNL d   1     -42.322-121.565 -55.492  0.00  0.00    -0.001 A 
ENDROOT
BRANCH   1  11
ATOM     11  S   UNL d   1     -41.457-123.104 -52.800  0.00  0.00     0.142 S 
ATOM     12  O   UNL d   1     -41.123-123.817 -53.075  0.00  0.00    -0.233 OA
BRANCH  11  13
ATOM     13  N   UNL d   1     -41.497-122.952 -52.016  0.00  0.00    -0.251 N 
ATOM     14  C   UNL d   1     -41.867-123.483 -51.521  0.00  0.00     0.108 A 
ATOM     15  C   UNL d   1     -41.902-123.308 -50.683  0.00  0.00     0.100 A 
ATOM     16  N   UNL d   1     -41.575-122.634 -50.402  0.00  0.00    -0.299 N 
ATOM     17  C   UNL d   1     -41.204-122.111 -50.933  0.00  0.00     0.100 A 
ATOM     18  C   UNL d   1     -41.719-122.656 -49.564  0.00  0.00     0.100 C 
ATOM     19  C   UNL d   1     -41.168-122.273 -51.733  0.00  0.00     0.108 A 
ENDBRANCH  11  13
ENDBRANCH   1  11
TORSDOF 2
ENDMDL
MODEL 2
REMARK VINA RESULT:      -5.1      1.825      5.126
REMARK  2 active torsions:
REMARK  status: ('A' for Active; 'I' for Inactive)
REMARK    1  A    between atoms: S_2  and  C_1 
REMARK    2  A    between atoms: N_3  and  S_2 
ROOT
ATOM      1  C   UNL d   1     -41.836-123.427 -49.120  0.00  0.00     0.125 A 
ATOM      2  C   UNL d   1     -41.164-123.335 -48.602  0.00  0.00    -0.009 A 
ATOM      3  C   UNL d   1     -42.564-123.555 -49.106  0.00  0.00     0.031 A 
ATOM      4  C   UNL d   1     -41.519-123.403 -48.464  0.00  0.00    -0.009 A 
ATOM      5  C   UNL d   1     -41.795-123.492 -47.611  0.00  0.00    -0.007 A 
ATOM      6  C   UNL d   1     -42.827-123.638 -48.319  0.00  0.00     0.045 A 
ATOM      7  C   UNL d   1     -41.370-123.403 -47.929  0.00  0.00    -0.007 A 
ATOM      8  C   UNL d   1     -42.502-123.616 -47.598  0.00  0.00    -0.022 A 
ATOM      9  C   UNL d   1     -42.317-123.570 -47.889  0.00  0.00    -0.022 A 
ATOM     10  C   UNL d   1     -41.123-123.401 -47.070  0.00  0.00    -0.001 A 
ENDROOT
BRANCH   1  11
ATOM     11  S   UNL d   1     -42.184-123.440 -50.109  0.00  0.00     0.142 S 
ATOM     12  O   UNL d   1     -42.927-123.816 -50.057  0.00  0.00    -0.233 OA
BRANCH  11  13
ATOM     13  N   UNL d   1     -41.907-123.189 -50.816  0.00  0.00    -0.251 N 
ATOM     14  C   UNL d   1     -42.026-122.416 -51.044  0.00  0.00     0.108 A 
ATOM     15  C   UNL d   1     -41.724-122.160 -51.803  0.00  0.00     0.100 A 
ATOM     16  N   UNL d   1     -41.333-122.677 -52.272  0.00  0.00    -0.299 N 
ATOM     17  C   UNL d   1     -41.226-123.461 -52.011  0.00  0.00     0.100 A 
ATOM     18  C   UNL d   1     -41.123-122.228 -52.963  0.00  0.00     0.100 C 
ATOM     19  C   UNL d   1     -41.513-123.710 -51.288  0.00  0.00     0.108 A 
ENDBRANCH  11  13
ENDBRANCH   1  11
TORSDOF 2
ENDMDL
MODEL 3
REMARK VINA RESULT:      -3.9      1.646      4.859
REMARK  2 active torsions:
REMARK  status: ('A' for Active; 'I' for Inactive)
REMARK    1  A    between atoms: S_2  and  C_1 
REMARK    2  A    between atoms: N_3  and  S_2 
ROOT
ATOM      1  C   UNL d   1     -42.319-123.122 -49.495  0.00  0.00     0.125 A 
ATOM      2  C   UNL d   1     -43.098-123.429 -49.330  0.00  0.00    -0.009 A 
ATOM      3  C   UNL d   1     -41.689-122.930 -49.158  0.00  0.00     0.031 A 
ATOM      4  C   UNL d   1     -42.840-123.368 -49.048  0.00  0.00    -0.009 A 
ATOM      5  C   UNL d   1     -42.917-123.502 -48.161  0.00  0.00    -0.007 A 
ATOM      6  C   UNL d   1     -41.753-123.052 -48.335  0.00  0.00     0.045 A 
ATOM      7  C   UNL d   1     -43.169-123.538 -48.635  0.00  0.00    -0.007 A 
ATOM      8  C   UNL d   1     -42.306-123.316 -47.834  0.00  0.00    -0.022 A 
ATOM      9  C   UNL d   1     -42.358-123.294 -48.177  0.00  0.00    -0.022 A 
ATOM     10  C   UNL d   1     -43.705-123.815 -47.975  0.00  0.00    -0.001 A 
ENDROOT
BRANCH   1  11
ATOM     11  S   UNL d   1     -41.646-122.787 -50.226  0.00  0.00     0.142 S 
ATOM     12  O   UNL d   1     -41.127-122.285 -49.808  0.00  0.00    -0.233 OA
BRANCH  11  13
ATOM     13  N   UNL d   1     -41.550-122.906 -51.011  0.00  0.00    -0.251 N 
ATOM     14  C   UNL d   1     -41.462-122.266 -51.508  0.00  0.00     0.108 A 
ATOM     15  C   UNL d   1     -41.359-122.409 -52.346  0.00  0.00     0.100 A 
ATOM     16  N   UNL d   1     -41.351-123.158 -52.626  0.00  0.00    -0.299 N 
ATOM     17  C   UNL d   1     -41.443-123.791 -52.093  0.00  0.00     0.100 A 
ATOM     18  C   UNL d   1     -41.240-123.076 -53.466  0.00  0.00     0.100 C 
ATOM     19  C   UNL d   1     -41.541-123.661 -51.292  0.00  0.00     0.108 A 
ENDBRANCH  11  13
ENDBRANCH   1  11
TORSDOF 2
ENDMDL
