MODEL 1
REMARK VINA RESULT:      34.5      0.000      0.000
REMARK  4 active torsions:
REMARK  status: ('A' for Active; 'I' for Inactive)
REMARK    1  A    between atoms: N_7  and  C_3 
REMARK       I    between atoms: C_8  and  N_7 
REMARK    2  A    between atoms: C_14  and  C_8 
REMARK    3  A    between atoms: C_15  and  C_14 
REMARK    4  A    between atoms: C_16  and  C_14 
ROOT
ATOM      1  C   UNL d   1      14.857  15.701  -1.594  0.00  0.00     0.343 A 
ATOM      2  N   UNL d   1      14.869  15.009  -1.161  0.00  0.00    -0.241 N 
ATOM      3  C   UNL d   1      14.662  14.298  -1.514  0.00  0.00     0.159 A 
ATOM      4  N   UNL d   1      14.637  15.687  -2.388  0.00  0.00    -0.224 N 
ATOM      5  C   UNL d   1      14.442  14.283  -2.308  0.00  0.00     0.099 A 
ATOM      6  C   UNL d   1      14.427  14.980  -2.758  0.00  0.00     0.271 A 
ATOM      7  O   UNL d   1      15.065  16.417  -1.237  0.00  0.00    -0.245 OA
ATOM      8  O   UNL d   1      14.209  14.966  -3.543  0.00  0.00    -0.266 OA
ATOM      9  C   UNL d   1      15.089  15.024  -0.367  0.00  0.00     0.105 C 
ATOM     10  C   UNL d   1      14.625  16.388  -2.825  0.00  0.00     0.107 C 
ENDROOT
BRANCH   3  11
ATOM     11  N   UNL d   1      14.674  13.597  -1.077  0.00  0.00    -0.190 NA
ATOM     12  C   UNL d   1      14.425  12.894  -1.422  0.00  0.00     0.280 C 
ATOM     13  O   UNL d   1      14.164  12.886  -2.203  0.00  0.00    -0.265 OA
BRANCH  12  14
ATOM     14  C   UNL d   1      14.438  12.197  -0.985  0.00  0.00     0.058 C 
BRANCH  14  15
ATOM     15  C   UNL d   1      13.726  11.846  -0.733  0.00  0.00     0.005 C 
ATOM     16  C   UNL d   1      13.376  12.093  -0.023  0.00  0.00     0.000 C 
ENDBRANCH  14  15
BRANCH  14  17
ATOM     17  C   UNL d   1      15.131  11.847  -0.796  0.00  0.00     0.005 C 
ATOM     18  C   UNL d   1      15.404  11.825  -0.014  0.00  0.00     0.000 C 
ENDBRANCH  14  17
ENDBRANCH  12  14
ENDBRANCH   3  11
TORSDOF 4
ENDMDL
MODEL 2
REMARK VINA RESULT:      36.6      1.350      2.952
REMARK  4 active torsions:
REMARK  status: ('A' for Active; 'I' for Inactive)
REMARK    1  A    between atoms: N_7  and  C_3 
REMARK       I    between atoms: C_8  and  N_7 
REMARK    2  A    between atoms: C_14  and  C_8 
REMARK    3  A    between atoms: C_15  and  C_14 
REMARK    4  A    between atoms: C_16  and  C_14 
ROOT
ATOM      1  C   UNL d   1      13.559  12.504  -2.629  0.00  0.00     0.343 A 
ATOM      2  N   UNL d   1      13.948  12.791  -1.971  0.00  0.00    -0.241 N 
ATOM      3  C   UNL d   1      14.340  13.511  -2.005  0.00  0.00     0.159 A 
ATOM      4  N   UNL d   1      13.559  12.938  -3.329  0.00  0.00    -0.224 N 
ATOM      5  C   UNL d   1      14.340  13.945  -2.706  0.00  0.00     0.099 A 
ATOM      6  C   UNL d   1      13.948  13.664  -3.380  0.00  0.00     0.271 A 
ATOM      7  O   UNL d   1      13.165  11.779  -2.594  0.00  0.00    -0.245 OA
ATOM      8  O   UNL d   1      13.948  14.093  -4.073  0.00  0.00    -0.266 OA
ATOM      9  C   UNL d   1      13.949  12.357  -1.271  0.00  0.00     0.105 C 
ATOM     10  C   UNL d   1      13.164  12.647  -3.994  0.00  0.00     0.107 C 
ENDROOT
BRANCH   3  11
ATOM     11  N   UNL d   1      14.735  13.802  -1.340  0.00  0.00    -0.190 NA
ATOM     12  C   UNL d   1      14.811  14.613  -1.230  0.00  0.00     0.280 C 
ATOM     13  O   UNL d   1      14.494  15.136  -1.782  0.00  0.00    -0.265 OA
BRANCH  12  14
ATOM     14  C   UNL d   1      15.204  14.901  -0.567  0.00  0.00     0.058 C 
BRANCH  14  15
ATOM     15  C   UNL d   1      15.301  15.721  -0.460  0.00  0.00     0.005 C 
ATOM     16  C   UNL d   1      15.943  16.002  -0.017  0.00  0.00     0.000 C 
ENDBRANCH  14  15
BRANCH  14  17
ATOM     17  C   UNL d   1      15.497  14.400  -0.018  0.00  0.00     0.005 C 
ATOM     18  C   UNL d   1      16.282  14.137  -0.050  0.00  0.00     0.000 C 
ENDBRANCH  14  17
ENDBRANCH  12  14
ENDBRANCH   3  11
TORSDOF 4
ENDMDL
