MODEL 1
REMARK VINA RESULT:      62.0      0.000      0.000
REMARK  4 active torsions:
REMARK  status: ('A' for Active; 'I' for Inactive)
REMARK    1  A    between atoms: C_4  and  C_1 
REMARK       I    between atoms: N_7  and  C_4 
REMARK    2  A    between atoms: C_8  and  N_7 
REMARK    3  A    between atoms: O_21  and  C_13 
REMARK    4  A    between atoms: O_22  and  C_16 
ROOT
ATOM      1  C   UNL d   1     -55.166 -99.420 -45.103  0.00  0.00     0.263 C 
ATOM      2  N   UNL d   1     -54.711-100.166 -45.091  0.00  0.00    -0.209 NA
ATOM      3  O   UNL d   1     -55.045 -98.797 -45.706  0.00  0.00    -0.270 OA
ENDROOT
BRANCH   1   4
ATOM      4  C   UNL d   1     -55.748 -99.228 -44.555  0.00  0.00     0.113 A 
ATOM      5  C   UNL d   1     -57.170 -98.959 -44.037  0.00  0.00     0.025 A 
ATOM      6  C   UNL d   1     -56.350 -99.035 -44.010  0.00  0.00     0.074 A 
ATOM      7  C   UNL d   1     -57.579 -98.755 -43.368  0.00  0.00     0.002 C 
ATOM      8  C   UNL d   1     -57.737 -99.040 -44.607  0.00  0.00     0.002 C 
ATOM      9  C   UNL d   1     -56.769 -98.828 -43.330  0.00  0.00     0.012 C 
ATOM     10  C   UNL d   1     -56.542 -99.206 -44.792  0.00  0.00    -0.023 A 
ATOM     11  C   UNL d   1     -55.763 -98.955 -43.436  0.00  0.00     0.172 A 
ATOM     12  C   UNL d   1     -55.962 -99.392 -45.317  0.00  0.00    -0.018 A 
ATOM     13  C   UNL d   1     -55.183 -99.145 -43.979  0.00  0.00     0.024 A 
ATOM     14  O   UNL d   1     -55.776 -98.757 -42.624  0.00  0.00    -0.291 OA
ENDBRANCH   1   4
BRANCH   2  15
ATOM     15  C   UNL d   1     -54.869-100.757 -44.468  0.00  0.00     0.108 A 
ATOM     16  C   UNL d   1     -54.711-100.544 -43.632  0.00  0.00     0.045 A 
ATOM     17  C   UNL d   1     -54.869-101.138 -43.005  0.00  0.00     0.096 A 
ATOM     18  C   UNL d   1     -55.183-101.940 -43.221  0.00  0.00     0.026 A 
ATOM     19  C   UNL d   1     -55.333-102.130 -44.063  0.00  0.00     0.028 A 
ATOM     20  C   UNL d   1     -55.175-101.535 -44.689  0.00  0.00     0.112 A 
BRANCH  17  21
ATOM     21  O   UNL d   1     -54.718-100.942 -42.170  0.00  0.00    -0.328 OA
ATOM     22  C   UNL d   1     -54.946-101.501 -41.538  0.00  0.00     0.181 C 
ENDBRANCH  17  21
BRANCH  20  23
ATOM     23  O   UNL d   1     -55.325-101.725 -45.532  0.00  0.00    -0.327 OA
ATOM     24  C   UNL d   1     -54.883-102.385 -45.901  0.00  0.00     0.181 C 
ENDBRANCH  20  23
ENDBRANCH   2  15
TORSDOF 4
ENDMDL
