MODEL 1
REMARK VINA RESULT:      -3.3      0.000      0.000
REMARK  5 active torsions:
REMARK  status: ('A' for Active; 'I' for Inactive)
REMARK    1  A    between atoms: N_4  and  C_1 
REMARK       I    between atoms: C_7  and  N_4 
REMARK    2  A    between atoms: C_8  and  C_7 
REMARK    3  A    between atoms: C_12  and  C_8 
REMARK    4  A    between atoms: S_10  and  C_12 
REMARK    5  A    between atoms: C_11  and  S_10 
ROOT
ATOM      1  C   UNL d   1      33.241  19.089 -22.353  0.00  0.00     0.070 C 
ENDROOT
BRANCH   1   2
ATOM      2  C   UNL d   1      32.914  18.589 -22.910  0.00  0.00     0.281 C 
ATOM      3  N   UNL d   1      32.897  17.774 -22.790  0.00  0.00    -0.187 NA
ATOM      4  O   UNL d   1      32.598  18.924 -23.602  0.00  0.00    -0.265 OA
BRANCH   3   5
ATOM      5  C   UNL d   1      32.544  17.248 -23.396  0.00  0.00     0.194 A 
ATOM      6  N   UNL d   1      33.056  16.671 -23.688  0.00  0.00    -0.107 NA
ATOM      7  O   UNL d   1      32.651  16.227 -24.243  0.00  0.00    -0.210 OA
ATOM      8  C   UNL d   1      31.882  16.532 -24.295  0.00  0.00     0.128 A 
ATOM      9  C   UNL d   1      31.829  17.166 -23.764  0.00  0.00     0.068 A 
ATOM     10  C   UNL d   1      31.288  16.252 -24.786  0.00  0.00     0.029 C 
ENDBRANCH   3   5
ENDBRANCH   1   2
BRANCH   1  11
ATOM     11  C   UNL d   1      32.966  19.853 -22.237  0.00  0.00     0.040 C 
BRANCH  11  12
ATOM     12  S   UNL d   1      33.240  20.303 -21.602  0.00  0.00    -0.086 SA
BRANCH  12  13
ATOM     13  C   UNL d   1      32.916  21.064 -21.463  0.00  0.00     0.029 A 
ATOM     14  C   UNL d   1      33.162  21.706 -21.920  0.00  0.00     0.007 A 
ATOM     15  C   UNL d   1      32.838  22.466 -21.780  0.00  0.00     0.012 A 
ATOM     16  C   UNL d   1      32.275  22.564 -21.186  0.00  0.00     0.058 A 
ATOM     17  C   UNL d   1      32.032  21.918 -20.732  0.00  0.00     0.012 A 
ATOM     18 CL   UNL d   1      31.954  23.322 -21.049  0.00  0.00    -0.082 Cl
ATOM     19  C   UNL d   1      32.353  21.170 -20.871  0.00  0.00     0.007 A 
ENDBRANCH  12  13
ENDBRANCH  11  12
ENDBRANCH   1  11
TORSDOF 5
ENDMDL
MODEL 2
REMARK VINA RESULT:      -2.6      1.105      1.388
REMARK  5 active torsions:
REMARK  status: ('A' for Active; 'I' for Inactive)
REMARK    1  A    between atoms: N_4  and  C_1 
REMARK       I    between atoms: C_7  and  N_4 
REMARK    2  A    between atoms: C_8  and  C_7 
REMARK    3  A    between atoms: C_12  and  C_8 
REMARK    4  A    between atoms: S_10  and  C_12 
REMARK    5  A    between atoms: C_11  and  S_10 
ROOT
ATOM      1  C   UNL d   1      32.792  18.414 -23.497  0.00  0.00     0.070 C 
ENDROOT
BRANCH   1   2
ATOM      2  C   UNL d   1      32.181  17.990 -23.834  0.00  0.00     0.281 C 
ATOM      3  N   UNL d   1      32.029  17.212 -23.609  0.00  0.00    -0.187 NA
ATOM      4  O   UNL d   1      31.714  18.364 -24.412  0.00  0.00    -0.265 OA
BRANCH   3   5
ATOM      5  C   UNL d   1      31.370  16.769 -23.978  0.00  0.00     0.194 A 
ATOM      6  N   UNL d   1      31.398  15.953 -23.857  0.00  0.00    -0.107 NA
ATOM      7  O   UNL d   1      30.753  15.616 -24.231  0.00  0.00    -0.210 OA
ATOM      8  C   UNL d   1      30.322  16.229 -24.586  0.00  0.00     0.128 A 
ATOM      9  C   UNL d   1      30.716  16.939 -24.421  0.00  0.00     0.068 A 
ATOM     10  C   UNL d   1      29.632  16.140 -25.020  0.00  0.00     0.029 C 
ENDBRANCH   3   5
ENDBRANCH   1   2
BRANCH   1  11
ATOM     11  C   UNL d   1      32.667  19.118 -23.095  0.00  0.00     0.040 C 
BRANCH  11  12
ATOM     12  S   UNL d   1      33.241  19.413 -22.581  0.00  0.00    -0.086 SA
BRANCH  12  13
ATOM     13  C   UNL d   1      33.116  20.149 -22.199  0.00  0.00     0.029 A 
ATOM     14  C   UNL d   1      33.213  20.853 -22.619  0.00  0.00     0.007 A 
ATOM     15  C   UNL d   1      33.088  21.588 -22.236  0.00  0.00     0.012 A 
ATOM     16  C   UNL d   1      32.869  21.598 -21.442  0.00  0.00     0.058 A 
ATOM     17  C   UNL d   1      32.774  20.891 -21.025  0.00  0.00     0.012 A 
ATOM     18 CL   UNL d   1      32.746  22.332 -21.062  0.00  0.00    -0.082 Cl
ATOM     19  C   UNL d   1      32.898  20.168 -21.405  0.00  0.00     0.007 A 
ENDBRANCH  12  13
ENDBRANCH  11  12
ENDBRANCH   1  11
TORSDOF 5
ENDMDL
MODEL 3
REMARK VINA RESULT:      -0.3      2.643      5.255
REMARK  5 active torsions:
REMARK  status: ('A' for Active; 'I' for Inactive)
REMARK    1  A    between atoms: N_4  and  C_1 
REMARK       I    between atoms: C_7  and  N_4 
REMARK    2  A    between atoms: C_8  and  C_7 
REMARK    3  A    between atoms: C_12  and  C_8 
REMARK    4  A    between atoms: S_10  and  C_12 
REMARK    5  A    between atoms: C_11  and  S_10 
ROOT
ATOM      1  C   UNL d   1      32.901  18.072 -23.406  0.00  0.00     0.070 C 
ENDROOT
BRANCH   1   2
ATOM      2  C   UNL d   1      33.009  18.664 -22.853  0.00  0.00     0.281 C 
ATOM      3  N   UNL d   1      32.892  19.455 -23.050  0.00  0.00    -0.187 NA
ATOM      4  O   UNL d   1      33.241  18.446 -22.084  0.00  0.00    -0.265 OA
BRANCH   3   5
ATOM      5  C   UNL d   1      33.012  20.080 -22.447  0.00  0.00     0.194 A 
ATOM      6  N   UNL d   1      33.139  20.834 -22.757  0.00  0.00    -0.107 NA
ATOM      7  O   UNL d   1      33.241  21.354 -22.134  0.00  0.00    -0.210 OA
ATOM      8  C   UNL d   1      33.175  20.918 -21.432  0.00  0.00     0.128 A 
ATOM      9  C   UNL d   1      33.033  20.128 -21.641  0.00  0.00     0.068 A 
ATOM     10  C   UNL d   1      33.241  21.221 -20.673  0.00  0.00     0.029 C 
ENDBRANCH   3   5
ENDBRANCH   1   2
BRANCH   1  11
ATOM     11  C   UNL d   1      32.173  17.714 -23.526  0.00  0.00     0.040 C 
BRANCH  11  12
ATOM     12  S   UNL d   1      32.125  16.979 -23.897  0.00  0.00    -0.086 SA
BRANCH  12  13
ATOM     13  C   UNL d   1      31.381  16.601 -23.976  0.00  0.00     0.029 A 
ATOM     14  C   UNL d   1      31.254  15.864 -23.625  0.00  0.00     0.007 A 
ATOM     15  C   UNL d   1      30.510  15.487 -23.704  0.00  0.00     0.012 A 
ATOM     16  C   UNL d   1      29.912  15.858 -24.132  0.00  0.00     0.058 A 
ATOM     17  C   UNL d   1      30.043  16.595 -24.481  0.00  0.00     0.012 A 
ATOM     18 CL   UNL d   1      29.171  15.480 -24.209  0.00  0.00    -0.082 Cl
ATOM     19  C   UNL d   1      30.778  16.964 -24.402  0.00  0.00     0.007 A 
ENDBRANCH  12  13
ENDBRANCH  11  12
ENDBRANCH   1  11
TORSDOF 5
ENDMDL
