MODEL 1
REMARK VINA RESULT:      -3.3      0.000      0.000
REMARK  3 active torsions:
REMARK  status: ('A' for Active; 'I' for Inactive)
REMARK    1  A    between atoms: C_4  and  C_1 
REMARK    2  A    between atoms: C_7  and  C_4 
REMARK    3  A    between atoms: C_10  and  C_7 
ROOT
ATOM      1  C   UNL d   1      30.817  16.628 -24.418  0.00  0.00     0.062 A 
ATOM      2  C   UNL d   1      30.983  15.830 -24.290  0.00  0.00     0.279 A 
ATOM      3  N   UNL d   1      30.281  15.453 -24.089  0.00  0.00    -0.208 NA
ATOM      4  C   UNL d   1      30.012  16.739 -24.296  0.00  0.00     0.022 A 
ATOM      5  C   UNL d   1      29.679  16.018 -24.093  0.00  0.00     0.085 A 
ATOM      6  O   UNL d   1      31.723  15.470 -24.351  0.00  0.00    -0.265 OA
ATOM      7  C   UNL d   1      29.542  17.418 -24.346  0.00  0.00     0.002 A 
ATOM      8  C   UNL d   1      28.865  15.970 -23.938  0.00  0.00     0.019 A 
ATOM      9  C   UNL d   1      28.729  17.369 -24.191  0.00  0.00     0.000 A 
ATOM     10  C   UNL d   1      28.399  16.641 -23.987  0.00  0.00     0.002 A 
ENDROOT
BRANCH   1  11
ATOM     11  C   UNL d   1      31.362  17.207 -24.631  0.00  0.00     0.047 C 
BRANCH  11  12
ATOM     12  C   UNL d   1      31.811  17.387 -23.959  0.00  0.00     0.196 C 
ATOM     13  O   UNL d   1      31.782  16.898 -23.301  0.00  0.00    -0.287 OA
BRANCH  12  14
ATOM     14  C   UNL d   1      32.287  18.061 -23.957  0.00  0.00     0.039 A 
ATOM     15  C   UNL d   1      32.516  18.404 -23.242  0.00  0.00     0.003 A 
ATOM     16  C   UNL d   1      32.988  19.074 -23.234  0.00  0.00     0.000 A 
ATOM     17  C   UNL d   1      33.241  19.412 -23.947  0.00  0.00     0.000 A 
ATOM     18  C   UNL d   1      33.013  19.069 -24.662  0.00  0.00     0.000 A 
ATOM     19  C   UNL d   1      32.538  18.397 -24.672  0.00  0.00     0.003 A 
ENDBRANCH  12  14
ENDBRANCH  11  12
ENDBRANCH   1  11
TORSDOF 3
ENDMDL
MODEL 2
REMARK VINA RESULT:      -2.7      3.826      5.461
REMARK  3 active torsions:
REMARK  status: ('A' for Active; 'I' for Inactive)
REMARK    1  A    between atoms: C_4  and  C_1 
REMARK    2  A    between atoms: C_7  and  C_4 
REMARK    3  A    between atoms: C_10  and  C_7 
ROOT
ATOM      1  C   UNL d   1      33.224  20.601 -21.690  0.00  0.00     0.062 A 
ATOM      2  C   UNL d   1      33.225  19.908 -21.242  0.00  0.00     0.279 A 
ATOM      3  N   UNL d   1      33.206  19.270 -21.761  0.00  0.00    -0.208 NA
ATOM      4  C   UNL d   1      33.205  20.387 -22.483  0.00  0.00     0.022 A 
ATOM      5  C   UNL d   1      33.194  19.569 -22.530  0.00  0.00     0.085 A 
ATOM      6  O   UNL d   1      33.241  19.859 -20.419  0.00  0.00    -0.265 OA
ATOM      7  C   UNL d   1      33.197  20.846 -23.171  0.00  0.00     0.002 A 
ATOM      8  C   UNL d   1      33.174  19.200 -23.273  0.00  0.00     0.019 A 
ATOM      9  C   UNL d   1      33.177  20.477 -23.913  0.00  0.00     0.000 A 
ATOM     10  C   UNL d   1      33.166  19.653 -23.955  0.00  0.00     0.002 A 
ENDROOT
BRANCH   1  11
ATOM     11  C   UNL d   1      33.240  21.368 -21.393  0.00  0.00     0.047 C 
BRANCH  11  12
ATOM     12  C   UNL d   1      32.498  21.523 -21.059  0.00  0.00     0.196 C 
ATOM     13  O   UNL d   1      31.905  20.958 -21.094  0.00  0.00    -0.287 OA
BRANCH  12  14
ATOM     14  C   UNL d   1      32.361  22.249 -20.692  0.00  0.00     0.039 A 
ATOM     15  C   UNL d   1      32.632  22.382 -19.924  0.00  0.00     0.003 A 
ATOM     16  C   UNL d   1      32.499  23.101 -19.554  0.00  0.00     0.000 A 
ATOM     17  C   UNL d   1      32.089  23.702 -19.951  0.00  0.00     0.000 A 
ATOM     18  C   UNL d   1      31.818  23.570 -20.719  0.00  0.00     0.000 A 
ATOM     19  C   UNL d   1      31.951  22.848 -21.092  0.00  0.00     0.003 A 
ENDBRANCH  12  14
ENDBRANCH  11  12
ENDBRANCH   1  11
TORSDOF 3
ENDMDL
MODEL 3
REMARK VINA RESULT:      -2.6      1.182      3.602
REMARK  3 active torsions:
REMARK  status: ('A' for Active; 'I' for Inactive)
REMARK    1  A    between atoms: C_4  and  C_1 
REMARK    2  A    between atoms: C_7  and  C_4 
REMARK    3  A    between atoms: C_10  and  C_7 
ROOT
ATOM      1  C   UNL d   1      31.903  16.550 -24.012  0.00  0.00     0.062 A 
ATOM      2  C   UNL d   1      32.460  16.227 -23.495  0.00  0.00     0.279 A 
ATOM      3  N   UNL d   1      33.009  16.812 -23.315  0.00  0.00    -0.208 NA
ATOM      4  C   UNL d   1      32.111  17.333 -24.148  0.00  0.00     0.022 A 
ATOM      5  C   UNL d   1      32.790  17.498 -23.721  0.00  0.00     0.085 A 
ATOM      6  O   UNL d   1      32.467  15.454 -23.208  0.00  0.00    -0.265 OA
ATOM      7  C   UNL d   1      31.757  17.918 -24.614  0.00  0.00     0.002 A 
ATOM      8  C   UNL d   1      33.126  18.256 -23.757  0.00  0.00     0.019 A 
ATOM      9  C   UNL d   1      32.093  18.675 -24.649  0.00  0.00     0.000 A 
ATOM     10  C   UNL d   1      32.777  18.836 -24.218  0.00  0.00     0.002 A 
ENDROOT
BRANCH   1  11
ATOM     11  C   UNL d   1      31.255  16.156 -24.332  0.00  0.00     0.047 C 
BRANCH  11  12
ATOM     12  C   UNL d   1      30.719  16.014 -23.718  0.00  0.00     0.196 C 
ATOM     13  O   UNL d   1      30.971  16.037 -22.938  0.00  0.00    -0.287 OA
BRANCH  12  14
ATOM     14  C   UNL d   1      29.930  15.851 -23.897  0.00  0.00     0.039 A 
ATOM     15  C   UNL d   1      29.351  15.913 -23.311  0.00  0.00     0.003 A 
ATOM     16  C   UNL d   1      28.566  15.752 -23.482  0.00  0.00     0.000 A 
ATOM     17  C   UNL d   1      28.347  15.526 -24.249  0.00  0.00     0.000 A 
ATOM     18  C   UNL d   1      28.925  15.464 -24.834  0.00  0.00     0.000 A 
ATOM     19  C   UNL d   1      29.714  15.625 -24.664  0.00  0.00     0.003 A 
ENDBRANCH  12  14
ENDBRANCH  11  12
ENDBRANCH   1  11
TORSDOF 3
ENDMDL
MODEL 4
REMARK VINA RESULT:      -2.6      1.591      2.177
REMARK  3 active torsions:
REMARK  status: ('A' for Active; 'I' for Inactive)
REMARK    1  A    between atoms: C_4  and  C_1 
REMARK    2  A    between atoms: C_7  and  C_4 
REMARK    3  A    between atoms: C_10  and  C_7 
ROOT
ATOM      1  C   UNL d   1      29.592  16.916 -24.415  0.00  0.00     0.062 A 
ATOM      2  C   UNL d   1      29.201  17.619 -24.598  0.00  0.00     0.279 A 
ATOM      3  N   UNL d   1      28.484  17.624 -24.195  0.00  0.00    -0.208 NA
ATOM      4  C   UNL d   1      29.114  16.490 -23.899  0.00  0.00     0.022 A 
ATOM      5  C   UNL d   1      28.432  16.923 -23.762  0.00  0.00     0.085 A 
ATOM      6  O   UNL d   1      29.477  18.214 -25.097  0.00  0.00    -0.265 OA
ATOM      7  C   UNL d   1      29.223  15.754 -23.538  0.00  0.00     0.002 A 
ATOM      8  C   UNL d   1      27.847  16.620 -23.257  0.00  0.00     0.019 A 
ATOM      9  C   UNL d   1      28.638  15.453 -23.033  0.00  0.00     0.000 A 
ATOM     10  C   UNL d   1      27.953  15.892 -22.898  0.00  0.00     0.002 A 
ENDROOT
BRANCH   1  11
ATOM     11  C   UNL d   1      30.329  16.684 -24.699  0.00  0.00     0.047 C 
BRANCH  11  12
ATOM     12  C   UNL d   1      30.901  17.137 -24.309  0.00  0.00     0.196 C 
ATOM     13  O   UNL d   1      30.701  17.862 -23.983  0.00  0.00    -0.287 OA
BRANCH  12  14
ATOM     14  C   UNL d   1      31.674  16.853 -24.251  0.00  0.00     0.039 A 
ATOM     15  C   UNL d   1      32.021  16.462 -24.890  0.00  0.00     0.003 A 
ATOM     16  C   UNL d   1      32.788  16.178 -24.838  0.00  0.00     0.000 A 
ATOM     17  C   UNL d   1      33.222  16.282 -24.140  0.00  0.00     0.000 A 
ATOM     18  C   UNL d   1      32.876  16.672 -23.501  0.00  0.00     0.000 A 
ATOM     19  C   UNL d   1      32.105  16.958 -23.552  0.00  0.00     0.003 A 
ENDBRANCH  12  14
ENDBRANCH  11  12
ENDBRANCH   1  11
TORSDOF 3
ENDMDL
MODEL 5
REMARK VINA RESULT:      -1.4      5.679      7.407
REMARK  3 active torsions:
REMARK  status: ('A' for Active; 'I' for Inactive)
REMARK    1  A    between atoms: C_4  and  C_1 
REMARK    2  A    between atoms: C_7  and  C_4 
REMARK    3  A    between atoms: C_10  and  C_7 
ROOT
ATOM      1  C   UNL d   1      32.273  22.181 -20.277  0.00  0.00     0.062 A 
ATOM      2  C   UNL d   1      31.974  22.772 -20.770  0.00  0.00     0.279 A 
ATOM      3  N   UNL d   1      32.112  22.547 -21.549  0.00  0.00    -0.208 NA
ATOM      4  C   UNL d   1      32.594  21.594 -20.754  0.00  0.00     0.022 A 
ATOM      5  C   UNL d   1      32.497  21.816 -21.537  0.00  0.00     0.085 A 
ATOM      6  O   UNL d   1      31.603  23.466 -20.528  0.00  0.00    -0.265 OA
ATOM      7  C   UNL d   1      32.965  20.880 -20.565  0.00  0.00     0.002 A 
ATOM      8  C   UNL d   1      32.773  21.320 -22.143  0.00  0.00     0.019 A 
ATOM      9  C   UNL d   1      33.241  20.385 -21.170  0.00  0.00     0.000 A 
ATOM     10  C   UNL d   1      33.140  20.612 -21.957  0.00  0.00     0.002 A 
ENDROOT
BRANCH   1  11
ATOM     11  C   UNL d   1      32.252  22.182 -19.454  0.00  0.00     0.047 C 
BRANCH  11  12
ATOM     12  C   UNL d   1      32.630  22.871 -19.194  0.00  0.00     0.196 C 
ATOM     13  O   UNL d   1      33.001  23.365 -19.734  0.00  0.00    -0.287 OA
BRANCH  12  14
ATOM     14  C   UNL d   1      32.628  23.057 -18.391  0.00  0.00     0.039 A 
ATOM     15  C   UNL d   1      33.236  23.514 -18.070  0.00  0.00     0.003 A 
ATOM     16  C   UNL d   1      33.241  23.702 -17.273  0.00  0.00     0.000 A 
ATOM     17  C   UNL d   1      32.631  23.433 -16.780  0.00  0.00     0.000 A 
ATOM     18  C   UNL d   1      32.023  22.977 -17.100  0.00  0.00     0.000 A 
ATOM     19  C   UNL d   1      32.017  22.787 -17.901  0.00  0.00     0.003 A 
ENDBRANCH  12  14
ENDBRANCH  11  12
ENDBRANCH   1  11
TORSDOF 3
ENDMDL
MODEL 6
REMARK VINA RESULT:      -0.5      1.881      2.850
REMARK  3 active torsions:
REMARK  status: ('A' for Active; 'I' for Inactive)
REMARK    1  A    between atoms: C_4  and  C_1 
REMARK    2  A    between atoms: C_7  and  C_4 
REMARK    3  A    between atoms: C_10  and  C_7 
ROOT
ATOM      1  C   UNL d   1      32.796  18.190 -23.227  0.00  0.00     0.062 A 
ATOM      2  C   UNL d   1      32.837  17.604 -22.648  0.00  0.00     0.279 A 
ATOM      3  N   UNL d   1      32.405  16.955 -22.913  0.00  0.00    -0.208 NA
ATOM      4  C   UNL d   1      32.340  17.901 -23.847  0.00  0.00     0.022 A 
ATOM      5  C   UNL d   1      32.098  17.142 -23.656  0.00  0.00     0.085 A 
ATOM      6  O   UNL d   1      33.237  17.655 -21.930  0.00  0.00    -0.265 OA
ATOM      7  C   UNL d   1      32.117  18.244 -24.565  0.00  0.00     0.002 A 
ATOM      8  C   UNL d   1      31.626  16.715 -24.189  0.00  0.00     0.019 A 
ATOM      9  C   UNL d   1      31.645  17.817 -25.097  0.00  0.00     0.000 A 
ATOM     10  C   UNL d   1      31.404  17.053 -24.901  0.00  0.00     0.002 A 
ENDROOT
BRANCH   1  11
ATOM     11  C   UNL d   1      33.151  18.932 -23.189  0.00  0.00     0.047 C 
BRANCH  11  12
ATOM     12  C   UNL d   1      32.816  19.337 -22.550  0.00  0.00     0.196 C 
ATOM     13  O   UNL d   1      32.355  18.935 -22.003  0.00  0.00    -0.287 OA
BRANCH  12  14
ATOM     14  C   UNL d   1      32.950  20.147 -22.467  0.00  0.00     0.039 A 
ATOM     15  C   UNL d   1      32.931  20.495 -21.719  0.00  0.00     0.003 A 
ATOM     16  C   UNL d   1      33.063  21.299 -21.630  0.00  0.00     0.000 A 
ATOM     17  C   UNL d   1      33.217  21.770 -22.295  0.00  0.00     0.000 A 
ATOM     18  C   UNL d   1      33.235  21.422 -23.042  0.00  0.00     0.000 A 
ATOM     19  C   UNL d   1      33.103  20.615 -23.133  0.00  0.00     0.003 A 
ENDBRANCH  12  14
ENDBRANCH  11  12
ENDBRANCH   1  11
TORSDOF 3
ENDMDL
