MODEL 1
REMARK VINA RESULT:      -7.1      0.000      0.000
REMARK  2 active torsions:
REMARK  status: ('A' for Active; 'I' for Inactive)
REMARK       I    between atoms: C_3  and  N_1 
REMARK       I    between atoms: C_4  and  N_2 
REMARK    1  A    between atoms: C_5  and  C_3 
REMARK    2  A    between atoms: C_6  and  C_4 
ROOT
ATOM      1  N   UNL d   1     -47.238  12.752  23.198  0.00  0.00    -0.270 N 
ATOM      2  N   UNL d   1     -48.788  13.317  23.246  0.00  0.00    -0.269 N 
ATOM      3  C   UNL d   1     -46.472  12.477  23.173  0.00  0.00     0.271 C 
ATOM      4  C   UNL d   1     -49.551  13.604  23.266  0.00  0.00     0.271 C 
ATOM      5  C   UNL d   1     -47.852  12.257  23.461  0.00  0.00     0.085 A 
ATOM      6  C   UNL d   1     -48.613  12.545  23.481  0.00  0.00     0.101 A 
ATOM      7  C   UNL d   1     -47.388  13.529  22.957  0.00  0.00     0.102 A 
ATOM      8  C   UNL d   1     -48.175  13.812  22.983  0.00  0.00     0.102 A 
ATOM      9  O   UNL d   1     -45.856  12.979  22.907  0.00  0.00    -0.266 OA
ATOM     10  O   UNL d   1     -50.152  13.119  23.524  0.00  0.00    -0.266 OA
ATOM     11  C   UNL d   1     -47.677  11.485  23.696  0.00  0.00     0.021 C 
ENDROOT
BRANCH   3  12
ATOM     12  C   UNL d   1     -46.288  11.710  23.405  0.00  0.00     0.086 A 
ATOM     13  S   UNL d   1     -46.397  10.943  23.698  0.00  0.00    -0.082 SA
ATOM     14  C   UNL d   1     -45.670  10.561  23.682  0.00  0.00     0.036 A 
ATOM     15  C   UNL d   1     -45.108  11.091  23.378  0.00  0.00     0.008 A 
ATOM     16  C   UNL d   1     -45.497  11.805  23.207  0.00  0.00     0.012 A 
ENDBRANCH   3  12
BRANCH   4  17
ATOM     17  C   UNL d   1     -49.907  14.324  23.077  0.00  0.00     0.086 A 
ATOM     18  S   UNL d   1     -49.889  15.047  22.682  0.00  0.00    -0.082 SA
ATOM     19  C   UNL d   1     -50.595  15.445  22.855  0.00  0.00     0.036 A 
ATOM     20  C   UNL d   1     -51.042  14.951  23.363  0.00  0.00     0.008 A 
ATOM     21  C   UNL d   1     -50.605  14.270  23.488  0.00  0.00     0.012 A 
ENDBRANCH   4  17
TORSDOF 2
ENDMDL
MODEL 2
REMARK VINA RESULT:      -7.0      1.051      4.428
REMARK  2 active torsions:
REMARK  status: ('A' for Active; 'I' for Inactive)
REMARK       I    between atoms: C_3  and  N_1 
REMARK       I    between atoms: C_4  and  N_2 
REMARK    1  A    between atoms: C_5  and  C_3 
REMARK    2  A    between atoms: C_6  and  C_4 
ROOT
ATOM      1  N   UNL d   1     -48.577  14.016  23.056  0.00  0.00    -0.270 N 
ATOM      2  N   UNL d   1     -47.749  12.602  23.251  0.00  0.00    -0.269 N 
ATOM      3  C   UNL d   1     -48.982  14.717  22.959  0.00  0.00     0.271 C 
ATOM      4  C   UNL d   1     -47.332  11.908  23.344  0.00  0.00     0.271 C 
ATOM      5  C   UNL d   1     -48.984  13.323  23.268  0.00  0.00     0.085 A 
ATOM      6  C   UNL d   1     -48.567  12.631  23.361  0.00  0.00     0.101 A 
ATOM      7  C   UNL d   1     -47.758  14.013  22.939  0.00  0.00     0.102 A 
ATOM      8  C   UNL d   1     -47.342  13.295  23.039  0.00  0.00     0.102 A 
ATOM      9  O   UNL d   1     -48.568  15.413  22.745  0.00  0.00    -0.266 OA
ATOM     10  O   UNL d   1     -47.730  11.229  23.552  0.00  0.00    -0.266 OA
ATOM     11  C   UNL d   1     -49.802  13.351  23.378  0.00  0.00     0.021 C 
ENDROOT
BRANCH   3  12
ATOM     12  C   UNL d   1     -49.796  14.755  23.067  0.00  0.00     0.086 A 
ATOM     13  S   UNL d   1     -50.573  14.496  23.191  0.00  0.00    -0.082 SA
ATOM     14  C   UNL d   1     -51.060  15.158  23.209  0.00  0.00     0.036 A 
ATOM     15  C   UNL d   1     -50.584  15.829  23.096  0.00  0.00     0.008 A 
ATOM     16  C   UNL d   1     -49.799  15.573  23.007  0.00  0.00     0.012 A 
ENDBRANCH   3  12
BRANCH   4  17
ATOM     17  C   UNL d   1     -46.538  11.693  23.279  0.00  0.00     0.086 A 
ATOM     18  S   UNL d   1     -45.778  11.845  22.998  0.00  0.00    -0.082 SA
ATOM     19  C   UNL d   1     -45.289  11.226  23.253  0.00  0.00     0.036 A 
ATOM     20  C   UNL d   1     -45.765  10.696  23.692  0.00  0.00     0.008 A 
ATOM     21  C   UNL d   1     -46.525  10.997  23.698  0.00  0.00     0.012 A 
ENDBRANCH   4  17
TORSDOF 2
ENDMDL
MODEL 3
REMARK VINA RESULT:      -6.5      1.426      4.351
REMARK  2 active torsions:
REMARK  status: ('A' for Active; 'I' for Inactive)
REMARK       I    between atoms: C_3  and  N_1 
REMARK       I    between atoms: C_4  and  N_2 
REMARK    1  A    between atoms: C_5  and  C_3 
REMARK    2  A    between atoms: C_6  and  C_4 
ROOT
ATOM      1  N   UNL d   1     -48.417  12.339  23.129  0.00  0.00    -0.270 N 
ATOM      2  N   UNL d   1     -46.914  12.893  22.736  0.00  0.00    -0.269 N 
ATOM      3  C   UNL d   1     -49.159  12.062  23.323  0.00  0.00     0.271 C 
ATOM      4  C   UNL d   1     -46.167  13.157  22.542  0.00  0.00     0.271 C 
ATOM      5  C   UNL d   1     -48.299  13.149  22.984  0.00  0.00     0.085 A 
ATOM      6  C   UNL d   1     -47.553  13.412  22.791  0.00  0.00     0.101 A 
ATOM      7  C   UNL d   1     -47.793  11.799  23.080  0.00  0.00     0.102 A 
ATOM      8  C   UNL d   1     -47.033  12.083  22.881  0.00  0.00     0.102 A 
ATOM      9  O   UNL d   1     -49.275  11.245  23.468  0.00  0.00    -0.266 OA
ATOM     10  O   UNL d   1     -46.050  13.950  22.400  0.00  0.00    -0.266 OA
ATOM     11  C   UNL d   1     -48.938  13.669  23.039  0.00  0.00     0.021 C 
ENDROOT
BRANCH   3  12
ATOM     12  C   UNL d   1     -49.802  12.571  23.380  0.00  0.00     0.086 A 
ATOM     13  S   UNL d   1     -50.233  13.278  23.360  0.00  0.00    -0.082 SA
ATOM     14  C   UNL d   1     -51.011  13.105  23.556  0.00  0.00     0.036 A 
ATOM     15  C   UNL d   1     -51.064  12.288  23.698  0.00  0.00     0.008 A 
ATOM     16  C   UNL d   1     -50.309  11.961  23.587  0.00  0.00     0.012 A 
ENDBRANCH   3  12
BRANCH   4  17
ATOM     17  C   UNL d   1     -45.431  12.799  22.443  0.00  0.00     0.086 A 
ATOM     18  S   UNL d   1     -44.912  12.179  22.601  0.00  0.00    -0.082 SA
ATOM     19  C   UNL d   1     -44.204  12.335  22.197  0.00  0.00     0.036 A 
ATOM     20  C   UNL d   1     -44.303  13.061  21.792  0.00  0.00     0.008 A 
ATOM     21  C   UNL d   1     -45.059  13.330  21.954  0.00  0.00     0.012 A 
ENDBRANCH   4  17
TORSDOF 2
ENDMDL
MODEL 4
REMARK VINA RESULT:      -6.1      1.431      1.830
REMARK  2 active torsions:
REMARK  status: ('A' for Active; 'I' for Inactive)
REMARK       I    between atoms: C_3  and  N_1 
REMARK       I    between atoms: C_4  and  N_2 
REMARK    1  A    between atoms: C_5  and  C_3 
REMARK    2  A    between atoms: C_6  and  C_4 
ROOT
ATOM      1  N   UNL d   1     -46.849  13.042  22.763  0.00  0.00    -0.270 N 
ATOM      2  N   UNL d   1     -48.320  12.470  23.244  0.00  0.00    -0.269 N 
ATOM      3  C   UNL d   1     -46.124  13.328  22.526  0.00  0.00     0.271 C 
ATOM      4  C   UNL d   1     -49.051  12.197  23.479  0.00  0.00     0.271 C 
ATOM      5  C   UNL d   1     -46.931  12.245  22.985  0.00  0.00     0.085 A 
ATOM      6  C   UNL d   1     -47.662  11.973  23.220  0.00  0.00     0.101 A 
ATOM      7  C   UNL d   1     -47.493  13.560  22.778  0.00  0.00     0.102 A 
ATOM      8  C   UNL d   1     -48.237  13.267  23.022  0.00  0.00     0.102 A 
ATOM      9  O   UNL d   1     -46.044  14.132  22.303  0.00  0.00    -0.266 OA
ATOM     10  O   UNL d   1     -49.132  11.416  23.697  0.00  0.00    -0.266 OA
ATOM     11  C   UNL d   1     -46.273  11.747  22.962  0.00  0.00     0.021 C 
ENDROOT
BRANCH   3  12
ATOM     12  C   UNL d   1     -45.462  12.840  22.499  0.00  0.00     0.086 A 
ATOM     13  S   UNL d   1     -44.977  12.186  22.649  0.00  0.00    -0.082 SA
ATOM     14  C   UNL d   1     -44.266  12.304  22.254  0.00  0.00     0.036 A 
ATOM     15  C   UNL d   1     -44.310  13.033  21.858  0.00  0.00     0.008 A 
ATOM     16  C   UNL d   1     -45.056  13.363  22.014  0.00  0.00     0.012 A 
ENDBRANCH   3  12
BRANCH   4  17
ATOM     17  C   UNL d   1     -49.799  12.533  23.564  0.00  0.00     0.086 A 
ATOM     18  S   UNL d   1     -50.276  13.200  23.647  0.00  0.00    -0.082 SA
ATOM     19  C   UNL d   1     -51.062  12.941  23.696  0.00  0.00     0.036 A 
ATOM     20  C   UNL d   1     -51.054  12.106  23.641  0.00  0.00     0.008 A 
ATOM     21  C   UNL d   1     -50.273  11.874  23.561  0.00  0.00     0.012 A 
ENDBRANCH   4  17
TORSDOF 2
ENDMDL
MODEL 5
REMARK VINA RESULT:      -5.6      9.048      9.540
REMARK  2 active torsions:
REMARK  status: ('A' for Active; 'I' for Inactive)
REMARK       I    between atoms: C_3  and  N_1 
REMARK       I    between atoms: C_4  and  N_2 
REMARK    1  A    between atoms: C_5  and  C_3 
REMARK    2  A    between atoms: C_6  and  C_4 
ROOT
ATOM      1  N   UNL d   1     -39.046  14.166  20.398  0.00  0.00    -0.270 N 
ATOM      2  N   UNL d   1     -39.953  14.965  19.275  0.00  0.00    -0.269 N 
ATOM      3  C   UNL d   1     -38.596  13.769  20.950  0.00  0.00     0.271 C 
ATOM      4  C   UNL d   1     -40.395  15.356  18.713  0.00  0.00     0.271 C 
ATOM      5  C   UNL d   1     -39.651  14.681  20.644  0.00  0.00     0.085 A 
ATOM      6  C   UNL d   1     -40.092  15.071  20.082  0.00  0.00     0.101 A 
ATOM      7  C   UNL d   1     -38.887  14.044  19.596  0.00  0.00     0.102 A 
ATOM      8  C   UNL d   1     -39.348  14.451  19.030  0.00  0.00     0.102 A 
ATOM      9  O   UNL d   1     -37.988  13.251  20.699  0.00  0.00    -0.266 OA
ATOM     10  O   UNL d   1     -40.988  15.861  18.953  0.00  0.00    -0.266 OA
ATOM     11  C   UNL d   1     -39.790  14.786  21.451  0.00  0.00     0.021 C 
ENDROOT
BRANCH   3  12
ATOM     12  C   UNL d   1     -38.728  13.867  21.756  0.00  0.00     0.086 A 
ATOM     13  S   UNL d   1     -39.065  14.155  22.455  0.00  0.00    -0.082 SA
ATOM     14  C   UNL d   1     -38.685  13.794  23.087  0.00  0.00     0.036 A 
ATOM     15  C   UNL d   1     -38.108  13.280  22.779  0.00  0.00     0.008 A 
ATOM     16  C   UNL d   1     -38.139  13.330  21.951  0.00  0.00     0.012 A 
ENDBRANCH   3  12
BRANCH   4  17
ATOM     17  C   UNL d   1     -40.402  15.377  17.889  0.00  0.00     0.086 A 
ATOM     18  S   UNL d   1     -40.069  15.159  17.167  0.00  0.00    -0.082 SA
ATOM     19  C   UNL d   1     -40.533  15.494  16.566  0.00  0.00     0.036 A 
ATOM     20  C   UNL d   1     -41.152  15.919  16.936  0.00  0.00     0.008 A 
ATOM     21  C   UNL d   1     -41.056  15.836  17.745  0.00  0.00     0.012 A 
ENDBRANCH   4  17
TORSDOF 2
ENDMDL
MODEL 6
REMARK VINA RESULT:      -5.4      9.020     10.539
REMARK  2 active torsions:
REMARK  status: ('A' for Active; 'I' for Inactive)
REMARK       I    between atoms: C_3  and  N_1 
REMARK       I    between atoms: C_4  and  N_2 
REMARK    1  A    between atoms: C_5  and  C_3 
REMARK    2  A    between atoms: C_6  and  C_4 
ROOT
ATOM      1  N   UNL d   1     -39.034  14.978  17.374  0.00  0.00    -0.270 N 
ATOM      2  N   UNL d   1     -39.691  14.773  18.874  0.00  0.00    -0.269 N 
ATOM      3  C   UNL d   1     -38.711  15.083  16.633  0.00  0.00     0.271 C 
ATOM      4  C   UNL d   1     -40.016  14.682  19.615  0.00  0.00     0.271 C 
ATOM      5  C   UNL d   1     -39.105  14.214  17.694  0.00  0.00     0.085 A 
ATOM      6  C   UNL d   1     -39.430  14.124  18.435  0.00  0.00     0.101 A 
ATOM      7  C   UNL d   1     -39.288  15.644  17.793  0.00  0.00     0.102 A 
ATOM      8  C   UNL d   1     -39.620  15.536  18.553  0.00  0.00     0.102 A 
ATOM      9  O   UNL d   1     -38.641  15.855  16.313  0.00  0.00    -0.266 OA
ATOM     10  O   UNL d   1     -40.086  13.933  19.930  0.00  0.00    -0.266 OA
ATOM     11  C   UNL d   1     -38.844  13.565  17.256  0.00  0.00     0.021 C 
ENDROOT
BRANCH   3  12
ATOM     12  C   UNL d   1     -38.449  14.443  16.189  0.00  0.00     0.086 A 
ATOM     13  S   UNL d   1     -38.271  13.658  15.993  0.00  0.00    -0.082 SA
ATOM     14  C   UNL d   1     -37.957  13.652  15.234  0.00  0.00     0.036 A 
ATOM     15  C   UNL d   1     -37.940  14.435  14.957  0.00  0.00     0.008 A 
ATOM     16  C   UNL d   1     -38.247  14.924  15.555  0.00  0.00     0.012 A 
ENDBRANCH   3  12
BRANCH   4  17
ATOM     17  C   UNL d   1     -40.322  15.194  20.184  0.00  0.00     0.086 A 
ATOM     18  S   UNL d   1     -40.297  15.916  20.582  0.00  0.00    -0.082 SA
ATOM     19  C   UNL d   1     -40.917  15.920  21.132  0.00  0.00     0.036 A 
ATOM     20  C   UNL d   1     -41.319  15.189  21.062  0.00  0.00     0.008 A 
ATOM     21  C   UNL d   1     -40.941  14.758  20.477  0.00  0.00     0.012 A 
ENDBRANCH   4  17
TORSDOF 2
ENDMDL
MODEL 7
REMARK VINA RESULT:      -5.0      8.902     10.820
REMARK  2 active torsions:
REMARK  status: ('A' for Active; 'I' for Inactive)
REMARK       I    between atoms: C_3  and  N_1 
REMARK       I    between atoms: C_4  and  N_2 
REMARK    1  A    between atoms: C_5  and  C_3 
REMARK    2  A    between atoms: C_6  and  C_4 
ROOT
ATOM      1  N   UNL d   1     -39.718  14.600  18.945  0.00  0.00    -0.270 N 
ATOM      2  N   UNL d   1     -39.251  14.748  17.369  0.00  0.00    -0.269 N 
ATOM      3  C   UNL d   1     -39.948  14.523  19.723  0.00  0.00     0.271 C 
ATOM      4  C   UNL d   1     -39.016  14.812  16.592  0.00  0.00     0.271 C 
ATOM      5  C   UNL d   1     -39.900  15.293  18.522  0.00  0.00     0.085 A 
ATOM      6  C   UNL d   1     -39.665  15.356  17.745  0.00  0.00     0.101 A 
ATOM      7  C   UNL d   1     -39.305  13.978  18.591  0.00  0.00     0.102 A 
ATOM      8  C   UNL d   1     -39.069  14.056  17.792  0.00  0.00     0.102 A 
ATOM      9  O   UNL d   1     -39.763  13.824  20.146  0.00  0.00    -0.266 OA
ATOM     10  O   UNL d   1     -39.193  15.491  16.177  0.00  0.00    -0.266 OA
ATOM     11  C   UNL d   1     -40.314  15.900  18.898  0.00  0.00     0.021 C 
ENDROOT
BRANCH   3  12
ATOM     12  C   UNL d   1     -40.360  15.123  20.106  0.00  0.00     0.086 A 
ATOM     13  S   UNL d   1     -40.799  15.818  20.206  0.00  0.00    -0.082 SA
ATOM     14  C   UNL d   1     -40.949  15.909  21.009  0.00  0.00     0.036 A 
ATOM     15  C   UNL d   1     -40.603  15.268  21.408  0.00  0.00     0.008 A 
ATOM     16  C   UNL d   1     -40.238  14.781  20.842  0.00  0.00     0.012 A 
ENDBRANCH   3  12
BRANCH   4  17
ATOM     17  C   UNL d   1     -38.607  14.327  16.065  0.00  0.00     0.086 A 
ATOM     18  S   UNL d   1     -38.285  13.592  15.875  0.00  0.00    -0.082 SA
ATOM     19  C   UNL d   1     -37.940  13.657  15.124  0.00  0.00     0.036 A 
ATOM     20  C   UNL d   1     -38.058  14.444  14.861  0.00  0.00     0.008 A 
ATOM     21  C   UNL d   1     -38.468  14.838  15.450  0.00  0.00     0.012 A 
ENDBRANCH   4  17
TORSDOF 2
ENDMDL
