MODEL 1
REMARK VINA RESULT:     118.5      0.000      0.000
REMARK  1 active torsions:
REMARK  status: ('A' for Active; 'I' for Inactive)
REMARK    1  A    between atoms: C_11  and  C_2 
ROOT
ATOM      1  C   UNL d   1     -57.714 -99.041 -44.453  0.00  0.00     0.026 A 
ATOM      2  C   UNL d   1     -57.013 -99.116 -44.855  0.00  0.00     0.007 A 
ATOM      3  C   UNL d   1     -58.405 -98.879 -44.856  0.00  0.00     0.103 A 
ATOM      4  C   UNL d   1     -56.990 -99.030 -45.669  0.00  0.00     0.026 A 
ATOM      5  C   UNL d   1     -57.730 -99.130 -43.631  0.00  0.00     0.047 A 
ATOM      6  C   UNL d   1     -57.684 -98.867 -46.073  0.00  0.00     0.103 A 
ATOM      7  O   UNL d   1     -58.402 -98.790 -45.664  0.00  0.00    -0.307 OA
ATOM      8  C   UNL d   1     -59.115 -98.803 -44.451  0.00  0.00     0.070 A 
ATOM      9  C   UNL d   1     -58.429 -99.057 -43.211  0.00  0.00     0.234 A 
ATOM     10  C   UNL d   1     -59.130 -98.893 -43.616  0.00  0.00     0.236 A 
ATOM     11  C   UNL d   1     -56.290 -99.103 -46.092  0.00  0.00     0.047 A 
ATOM     12  C   UNL d   1     -57.679 -98.776 -46.906  0.00  0.00     0.070 A 
ATOM     13  C   UNL d   1     -56.268 -99.014 -46.924  0.00  0.00     0.234 A 
ATOM     14  C   UNL d   1     -56.974 -98.850 -47.322  0.00  0.00     0.236 A 
ATOM     15  O   UNL d   1     -59.826 -98.822 -43.189  0.00  0.00    -0.283 OA
ATOM     16  O   UNL d   1     -58.423 -99.148 -42.398  0.00  0.00    -0.283 OA
ATOM     17  O   UNL d   1     -55.568 -99.088 -47.339  0.00  0.00    -0.283 OA
ATOM     18  O   UNL d   1     -56.976 -98.758 -48.142  0.00  0.00    -0.283 OA
ENDROOT
BRANCH   2  19
ATOM     19  C   UNL d   1     -56.319 -99.280 -44.450  0.00  0.00     0.039 A 
ATOM     20  C   UNL d   1     -56.260 -99.978 -43.995  0.00  0.00     0.196 A 
ATOM     21  O   UNL d   1     -56.878-100.499 -43.946  0.00  0.00    -0.287 OA
ATOM     22  C   UNL d   1     -55.559-100.142 -43.587  0.00  0.00     0.042 A 
ATOM     23  C   UNL d   1     -54.912 -99.610 -43.630  0.00  0.00     0.003 A 
ATOM     24  C   UNL d   1     -54.983 -98.923 -44.084  0.00  0.00     0.000 A 
ATOM     25  C   UNL d   1     -55.688 -98.768 -44.488  0.00  0.00     0.003 A 
ENDBRANCH   2  19
TORSDOF 1
ENDMDL
