MODEL 1
REMARK VINA RESULT:      -5.2      0.000      0.000
REMARK  4 active torsions:
REMARK  status: ('A' for Active; 'I' for Inactive)
REMARK    1  A    between atoms: S_11  and  C_4 
REMARK       I    between atoms: N_8  and  C_10 
REMARK    2  A    between atoms: C_20  and  N_9 
REMARK    3  A    between atoms: C_10  and  C_15 
REMARK    4  A    between atoms: C_15  and  S_11 
ROOT
ATOM      1  N   UNL d   1     -48.116  12.494  23.319  0.00  0.00    -0.269 N 
ATOM      2  N   UNL d   1     -49.221  13.707  23.192  0.00  0.00    -0.301 N 
ATOM      3  C   UNL d   1     -47.562  11.886  23.383  0.00  0.00     0.272 C 
ATOM      4  C   UNL d   1     -47.891  13.226  23.011  0.00  0.00     0.102 A 
ATOM      5  C   UNL d   1     -48.895  12.370  23.564  0.00  0.00     0.102 A 
ATOM      6  C   UNL d   1     -49.446  12.975  23.500  0.00  0.00     0.100 A 
ATOM      7  C   UNL d   1     -48.443  13.831  22.947  0.00  0.00     0.100 A 
ATOM      8  O   UNL d   1     -47.787  11.154  23.691  0.00  0.00    -0.266 OA
ENDROOT
BRANCH   3   9
ATOM      9  C   UNL d   1     -46.783  12.010  23.139  0.00  0.00     0.099 C 
BRANCH   9  10
ATOM     10  S   UNL d   1     -46.190  11.484  23.369  0.00  0.00    -0.044 SA
BRANCH  10  11
ATOM     11  C   UNL d   1     -45.420  11.572  23.063  0.00  0.00     0.182 A 
ATOM     12  N   UNL d   1     -45.234  12.233  22.589  0.00  0.00    -0.222 NA
ATOM     13  C   UNL d   1     -44.482  12.318  22.290  0.00  0.00     0.095 A 
ATOM     14  C   UNL d   1     -43.900  11.756  22.453  0.00  0.00     0.104 A 
ATOM     15  C   UNL d   1     -44.148  12.903  21.815  0.00  0.00     0.026 A 
ATOM     16  C   UNL d   1     -44.072  11.108  22.915  0.00  0.00     0.274 A 
ATOM     17  S   UNL d   1     -43.208  11.994  22.079  0.00  0.00    -0.081 SA
ATOM     18  N   UNL d   1     -44.838  11.010  23.226  0.00  0.00    -0.251 N 
ATOM     19  O   UNL d   1     -43.491  10.546  23.078  0.00  0.00    -0.266 OA
ATOM     20  C   UNL d   1     -45.018  10.350  23.698  0.00  0.00     0.104 C 
ATOM     21  C   UNL d   1     -43.366  12.705  21.684  0.00  0.00     0.031 A 
ATOM     22  C   UNL d   1     -42.833  13.146  21.234  0.00  0.00     0.007 C 
ENDBRANCH  10  11
ENDBRANCH   9  10
ENDBRANCH   3   9
BRANCH   2  23
ATOM     23  C   UNL d   1     -49.775  14.314  23.128  0.00  0.00     0.064 A 
ATOM     24  C   UNL d   1     -50.510  14.168  22.782  0.00  0.00     0.018 A 
ATOM     25  C   UNL d   1     -51.064  14.776  22.718  0.00  0.00     0.002 A 
ATOM     26  C   UNL d   1     -50.883  15.530  23.000  0.00  0.00     0.000 A 
ATOM     27  C   UNL d   1     -50.148  15.677  23.346  0.00  0.00     0.002 A 
ATOM     28  C   UNL d   1     -49.594  15.069  23.410  0.00  0.00     0.018 A 
ENDBRANCH   2  23
TORSDOF 4
ENDMDL
MODEL 2
REMARK VINA RESULT:      -5.1      1.584      5.796
REMARK  4 active torsions:
REMARK  status: ('A' for Active; 'I' for Inactive)
REMARK    1  A    between atoms: S_11  and  C_4 
REMARK       I    between atoms: N_8  and  C_10 
REMARK    2  A    between atoms: C_20  and  N_9 
REMARK    3  A    between atoms: C_10  and  C_15 
REMARK    4  A    between atoms: C_15  and  S_11 
ROOT
ATOM      1  N   UNL d   1     -46.228  12.404  22.819  0.00  0.00    -0.269 N 
ATOM      2  N   UNL d   1     -44.755  12.703  22.151  0.00  0.00    -0.301 N 
ATOM      3  C   UNL d   1     -46.967  12.254  23.154  0.00  0.00     0.272 C 
ATOM      4  C   UNL d   1     -46.137  13.025  22.284  0.00  0.00     0.102 A 
ATOM      5  C   UNL d   1     -45.581  11.932  23.020  0.00  0.00     0.102 A 
ATOM      6  C   UNL d   1     -44.846  12.081  22.686  0.00  0.00     0.100 A 
ATOM      7  C   UNL d   1     -45.402  13.175  21.951  0.00  0.00     0.100 A 
ATOM      8  O   UNL d   1     -47.059  11.632  23.690  0.00  0.00    -0.266 OA
ENDROOT
BRANCH   3   9
ATOM      9  C   UNL d   1     -47.615  12.725  22.954  0.00  0.00     0.099 C 
BRANCH   9  10
ATOM     10  S   UNL d   1     -48.381  12.426  23.028  0.00  0.00    -0.044 SA
BRANCH  10  11
ATOM     11  C   UNL d   1     -49.032  12.943  22.965  0.00  0.00     0.182 A 
ATOM     12  N   UNL d   1     -49.009  13.687  23.341  0.00  0.00    -0.222 NA
ATOM     13  C   UNL d   1     -49.646  14.191  23.279  0.00  0.00     0.095 A 
ATOM     14  C   UNL d   1     -50.313  13.972  22.847  0.00  0.00     0.104 A 
ATOM     15  C   UNL d   1     -49.775  14.945  23.586  0.00  0.00     0.026 A 
ATOM     16  C   UNL d   1     -50.345  13.248  22.477  0.00  0.00     0.274 A 
ATOM     17  S   UNL d   1     -50.855  14.590  22.887  0.00  0.00    -0.081 SA
ATOM     18  N   UNL d   1     -49.699  12.724  22.533  0.00  0.00    -0.251 N 
ATOM     19  O   UNL d   1     -51.012  13.028  22.044  0.00  0.00    -0.266 OA
ATOM     20  C   UNL d   1     -49.727  11.983  22.156  0.00  0.00     0.104 C 
ATOM     21  C   UNL d   1     -50.517  15.191  23.347  0.00  0.00     0.031 A 
ATOM     22  C   UNL d   1     -50.861  15.917  23.536  0.00  0.00     0.007 C 
ENDBRANCH  10  11
ENDBRANCH   9  10
ENDBRANCH   3   9
BRANCH   2  23
ATOM     23  C   UNL d   1     -44.016  12.853  21.816  0.00  0.00     0.064 A 
ATOM     24  C   UNL d   1     -43.436  12.266  21.816  0.00  0.00     0.018 A 
ATOM     25  C   UNL d   1     -42.697  12.416  21.481  0.00  0.00     0.002 A 
ATOM     26  C   UNL d   1     -42.538  13.153  21.146  0.00  0.00     0.000 A 
ATOM     27  C   UNL d   1     -43.118  13.740  21.145  0.00  0.00     0.002 A 
ATOM     28  C   UNL d   1     -43.857  13.590  21.480  0.00  0.00     0.018 A 
ENDBRANCH   2  23
TORSDOF 4
ENDMDL
MODEL 3
REMARK VINA RESULT:      -4.2      2.061      6.241
REMARK  4 active torsions:
REMARK  status: ('A' for Active; 'I' for Inactive)
REMARK    1  A    between atoms: S_11  and  C_4 
REMARK       I    between atoms: N_8  and  C_10 
REMARK    2  A    between atoms: C_20  and  N_9 
REMARK    3  A    between atoms: C_10  and  C_15 
REMARK    4  A    between atoms: C_15  and  S_11 
ROOT
ATOM      1  N   UNL d   1     -42.998  13.082  21.523  0.00  0.00    -0.269 N 
ATOM      2  N   UNL d   1     -41.831  14.075  20.926  0.00  0.00    -0.301 N 
ATOM      3  C   UNL d   1     -43.584  12.584  21.822  0.00  0.00     0.272 C 
ATOM      4  C   UNL d   1     -43.167  13.877  21.380  0.00  0.00     0.102 A 
ATOM      5  C   UNL d   1     -42.244  12.784  21.367  0.00  0.00     0.102 A 
ATOM      6  C   UNL d   1     -41.662  13.280  21.069  0.00  0.00     0.100 A 
ATOM      7  C   UNL d   1     -42.584  14.373  21.083  0.00  0.00     0.100 A 
ATOM      8  O   UNL d   1     -43.415  11.788  21.965  0.00  0.00    -0.266 OA
ENDROOT
BRANCH   3   9
ATOM      9  C   UNL d   1     -44.338  12.880  21.979  0.00  0.00     0.099 C 
BRANCH   9  10
ATOM     10  S   UNL d   1     -44.880  12.426  22.405  0.00  0.00    -0.044 SA
BRANCH  10  11
ATOM     11  C   UNL d   1     -45.623  12.749  22.602  0.00  0.00     0.182 A 
ATOM     12  N   UNL d   1     -45.817  13.522  22.361  0.00  0.00    -0.222 NA
ATOM     13  C   UNL d   1     -46.543  13.837  22.554  0.00  0.00     0.095 A 
ATOM     14  C   UNL d   1     -47.088  13.396  22.988  0.00  0.00     0.104 A 
ATOM     15  C   UNL d   1     -46.878  14.572  22.392  0.00  0.00     0.026 A 
ATOM     16  C   UNL d   1     -46.907  12.639  23.229  0.00  0.00     0.274 A 
ATOM     17  S   UNL d   1     -47.760  13.858  23.094  0.00  0.00    -0.081 SA
ATOM     18  N   UNL d   1     -46.168  12.307  23.037  0.00  0.00    -0.251 N 
ATOM     19  O   UNL d   1     -47.453  12.198  23.663  0.00  0.00    -0.266 OA
ATOM     20  C   UNL d   1     -45.980  11.535  23.280  0.00  0.00     0.104 C 
ATOM     21  C   UNL d   1     -47.625  14.587  22.723  0.00  0.00     0.031 A 
ATOM     22  C   UNL d   1     -48.148  15.224  22.688  0.00  0.00     0.007 C 
ENDBRANCH  10  11
ENDBRANCH   9  10
ENDBRANCH   3   9
BRANCH   2  23
ATOM     23  C   UNL d   1     -41.245  14.574  20.627  0.00  0.00     0.064 A 
ATOM     24  C   UNL d   1     -41.003  15.233  21.061  0.00  0.00     0.018 A 
ATOM     25  C   UNL d   1     -40.418  15.732  20.761  0.00  0.00     0.002 A 
ATOM     26  C   UNL d   1     -40.074  15.570  20.028  0.00  0.00     0.000 A 
ATOM     27  C   UNL d   1     -40.316  14.911  19.594  0.00  0.00     0.002 A 
ATOM     28  C   UNL d   1     -40.901  14.413  19.894  0.00  0.00     0.018 A 
ENDBRANCH   2  23
TORSDOF 4
ENDMDL
MODEL 4
REMARK VINA RESULT:      -3.6      2.881      4.800
REMARK  4 active torsions:
REMARK  status: ('A' for Active; 'I' for Inactive)
REMARK    1  A    between atoms: S_11  and  C_4 
REMARK       I    between atoms: N_8  and  C_10 
REMARK    2  A    between atoms: C_20  and  N_9 
REMARK    3  A    between atoms: C_10  and  C_15 
REMARK    4  A    between atoms: C_15  and  S_11 
ROOT
ATOM      1  N   UNL d   1     -43.846  12.893  21.794  0.00  0.00    -0.269 N 
ATOM      2  N   UNL d   1     -45.406  13.221  22.197  0.00  0.00    -0.301 N 
ATOM      3  C   UNL d   1     -43.063  12.728  21.591  0.00  0.00     0.272 C 
ATOM      4  C   UNL d   1     -44.181  13.618  21.587  0.00  0.00     0.102 A 
ATOM      5  C   UNL d   1     -44.293  12.332  22.202  0.00  0.00     0.102 A 
ATOM      6  C   UNL d   1     -45.071  12.496  22.404  0.00  0.00     0.100 A 
ATOM      7  C   UNL d   1     -44.960  13.782  21.789  0.00  0.00     0.100 A 
ATOM      8  O   UNL d   1     -42.727  12.002  21.797  0.00  0.00    -0.266 OA
ENDROOT
BRANCH   3   9
ATOM      9  C   UNL d   1     -42.616  13.288  21.182  0.00  0.00     0.099 C 
BRANCH   9  10
ATOM     10  S   UNL d   1     -41.795  13.304  21.269  0.00  0.00    -0.044 SA
BRANCH  10  11
ATOM     11  C   UNL d   1     -41.333  13.751  20.738  0.00  0.00     0.182 A 
ATOM     12  N   UNL d   1     -41.522  13.755  19.926  0.00  0.00    -0.222 NA
ATOM     13  C   UNL d   1     -41.070  14.192  19.407  0.00  0.00     0.095 A 
ATOM     14  C   UNL d   1     -40.427  14.630  19.680  0.00  0.00     0.104 A 
ATOM     15  C   UNL d   1     -41.126  14.298  18.592  0.00  0.00     0.026 A 
ATOM     16  C   UNL d   1     -40.235  14.632  20.471  0.00  0.00     0.274 A 
ATOM     17  S   UNL d   1     -40.086  15.007  19.033  0.00  0.00    -0.081 SA
ATOM     18  N   UNL d   1     -40.689  14.189  21.010  0.00  0.00    -0.251 N 
ATOM     19  O   UNL d   1     -39.591  15.071  20.744  0.00  0.00    -0.266 OA
ATOM     20  C   UNL d   1     -40.497  14.188  21.819  0.00  0.00     0.104 C 
ATOM     21  C   UNL d   1     -40.523  14.798  18.361  0.00  0.00     0.031 A 
ATOM     22  C   UNL d   1     -40.381  15.045  17.586  0.00  0.00     0.007 C 
ENDBRANCH  10  11
ENDBRANCH   9  10
ENDBRANCH   3   9
BRANCH   2  23
ATOM     23  C   UNL d   1     -46.189  13.386  22.400  0.00  0.00     0.064 A 
ATOM     24  C   UNL d   1     -46.382  14.109  22.749  0.00  0.00     0.018 A 
ATOM     25  C   UNL d   1     -47.164  14.274  22.952  0.00  0.00     0.002 A 
ATOM     26  C   UNL d   1     -47.754  13.716  22.805  0.00  0.00     0.000 A 
ATOM     27  C   UNL d   1     -47.562  12.993  22.455  0.00  0.00     0.002 A 
ATOM     28  C   UNL d   1     -46.780  12.828  22.253  0.00  0.00     0.018 A 
ENDBRANCH   2  23
TORSDOF 4
ENDMDL
MODEL 5
REMARK VINA RESULT:      -3.5      1.441      2.188
REMARK  4 active torsions:
REMARK  status: ('A' for Active; 'I' for Inactive)
REMARK    1  A    between atoms: S_11  and  C_4 
REMARK       I    between atoms: N_8  and  C_10 
REMARK    2  A    between atoms: C_20  and  N_9 
REMARK    3  A    between atoms: C_10  and  C_15 
REMARK    4  A    between atoms: C_15  and  S_11 
ROOT
ATOM      1  N   UNL d   1     -46.966  14.244  22.614  0.00  0.00    -0.269 N 
ATOM      2  N   UNL d   1     -48.602  14.386  22.705  0.00  0.00    -0.301 N 
ATOM      3  C   UNL d   1     -46.145  14.173  22.569  0.00  0.00     0.272 C 
ATOM      4  C   UNL d   1     -47.434  13.569  22.694  0.00  0.00     0.102 A 
ATOM      5  C   UNL d   1     -47.318  14.990  22.580  0.00  0.00     0.102 A 
ATOM      6  C   UNL d   1     -48.134  15.061  22.625  0.00  0.00     0.100 A 
ATOM      7  C   UNL d   1     -48.251  13.640  22.739  0.00  0.00     0.100 A 
ATOM      8  O   UNL d   1     -45.676  14.848  22.489  0.00  0.00    -0.266 OA
ENDROOT
BRANCH   3   9
ATOM      9  C   UNL d   1     -45.793  13.427  22.603  0.00  0.00     0.099 C 
BRANCH   9  10
ATOM     10  S   UNL d   1     -45.097  13.280  22.184  0.00  0.00    -0.044 SA
BRANCH  10  11
ATOM     11  C   UNL d   1     -44.650  12.597  22.355  0.00  0.00     0.182 A 
ATOM     12  N   UNL d   1     -44.996  11.970  22.780  0.00  0.00    -0.222 NA
ATOM     13  C   UNL d   1     -44.559  11.303  22.947  0.00  0.00     0.095 A 
ATOM     14  C   UNL d   1     -43.775  11.244  22.698  0.00  0.00     0.104 A 
ATOM     15  C   UNL d   1     -44.753  10.611  23.350  0.00  0.00     0.026 A 
ATOM     16  C   UNL d   1     -43.428  11.852  22.281  0.00  0.00     0.274 A 
ATOM     17  S   UNL d   1     -43.485  10.516  22.947  0.00  0.00    -0.081 SA
ATOM     18  N   UNL d   1     -43.866  12.538  22.105  0.00  0.00    -0.251 N 
ATOM     19  O   UNL d   1     -42.644  11.793  22.032  0.00  0.00    -0.266 OA
ATOM     20  C   UNL d   1     -43.516  13.161  21.681  0.00  0.00     0.104 C 
ATOM     21  C   UNL d   1     -44.095  10.127  23.351  0.00  0.00     0.031 A 
ATOM     22  C   UNL d   1     -44.055   9.379  23.698  0.00  0.00     0.007 C 
ENDBRANCH  10  11
ENDBRANCH   9  10
ENDBRANCH   3   9
BRANCH   2  23
ATOM     23  C   UNL d   1     -49.423  14.457  22.750  0.00  0.00     0.064 A 
ATOM     24  C   UNL d   1     -49.898  14.151  22.148  0.00  0.00     0.018 A 
ATOM     25  C   UNL d   1     -50.719  14.222  22.194  0.00  0.00     0.002 A 
ATOM     26  C   UNL d   1     -51.064  14.599  22.841  0.00  0.00     0.000 A 
ATOM     27  C   UNL d   1     -50.590  14.905  23.444  0.00  0.00     0.002 A 
ATOM     28  C   UNL d   1     -49.770  14.834  23.398  0.00  0.00     0.018 A 
ENDBRANCH   2  23
TORSDOF 4
ENDMDL
MODEL 6
REMARK VINA RESULT:      -3.5      1.474      5.882
REMARK  4 active torsions:
REMARK  status: ('A' for Active; 'I' for Inactive)
REMARK    1  A    between atoms: S_11  and  C_4 
REMARK       I    between atoms: N_8  and  C_10 
REMARK    2  A    between atoms: C_20  and  N_9 
REMARK    3  A    between atoms: C_10  and  C_15 
REMARK    4  A    between atoms: C_15  and  S_11 
ROOT
ATOM      1  N   UNL d   1     -44.108  12.542  22.141  0.00  0.00    -0.269 N 
ATOM      2  N   UNL d   1     -42.832  13.218  21.354  0.00  0.00    -0.301 N 
ATOM      3  C   UNL d   1     -44.749  12.203  22.536  0.00  0.00     0.272 C 
ATOM      4  C   UNL d   1     -44.203  13.259  21.744  0.00  0.00     0.102 A 
ATOM      5  C   UNL d   1     -43.375  12.164  22.144  0.00  0.00     0.102 A 
ATOM      6  C   UNL d   1     -42.738  12.501  21.751  0.00  0.00     0.100 A 
ATOM      7  C   UNL d   1     -43.566  13.597  21.351  0.00  0.00     0.100 A 
ATOM      8  O   UNL d   1     -44.655  11.486  22.934  0.00  0.00    -0.266 OA
ENDROOT
BRANCH   3   9
ATOM      9  C   UNL d   1     -45.483  12.581  22.534  0.00  0.00     0.099 C 
BRANCH   9  10
ATOM     10  S   UNL d   1     -46.097  12.291  23.003  0.00  0.00    -0.044 SA
BRANCH  10  11
ATOM     11  C   UNL d   1     -46.833  12.684  23.006  0.00  0.00     0.182 A 
ATOM     12  N   UNL d   1     -46.875  13.488  22.788  0.00  0.00    -0.222 NA
ATOM     13  C   UNL d   1     -47.594  13.871  22.792  0.00  0.00     0.095 A 
ATOM     14  C   UNL d   1     -48.281  13.470  23.010  0.00  0.00     0.104 A 
ATOM     15  C   UNL d   1     -47.798  14.647  22.605  0.00  0.00     0.026 A 
ATOM     16  C   UNL d   1     -48.249  12.685  23.225  0.00  0.00     0.274 A 
ATOM     17  S   UNL d   1     -48.909  13.998  22.959  0.00  0.00    -0.081 SA
ATOM     18  N   UNL d   1     -47.519  12.283  23.225  0.00  0.00    -0.251 N 
ATOM     19  O   UNL d   1     -48.936  12.284  23.443  0.00  0.00    -0.266 OA
ATOM     20  C   UNL d   1     -47.483  11.482  23.444  0.00  0.00     0.104 C 
ATOM     21  C   UNL d   1     -48.605  14.727  22.708  0.00  0.00     0.031 A 
ATOM     22  C   UNL d   1     -49.034  15.421  22.580  0.00  0.00     0.007 C 
ENDBRANCH  10  11
ENDBRANCH   9  10
ENDBRANCH   3   9
BRANCH   2  23
ATOM     23  C   UNL d   1     -42.192  13.557  20.959  0.00  0.00     0.064 A 
ATOM     24  C   UNL d   1     -41.606  13.953  21.385  0.00  0.00     0.018 A 
ATOM     25  C   UNL d   1     -40.966  14.292  20.991  0.00  0.00     0.002 A 
ATOM     26  C   UNL d   1     -40.912  14.236  20.169  0.00  0.00     0.000 A 
ATOM     27  C   UNL d   1     -41.497  13.840  19.742  0.00  0.00     0.002 A 
ATOM     28  C   UNL d   1     -42.137  13.501  20.137  0.00  0.00     0.018 A 
ENDBRANCH   2  23
TORSDOF 4
ENDMDL
