MODEL 1
REMARK VINA RESULT:      63.8      0.000      0.000
REMARK  5 active torsions:
REMARK  status: ('A' for Active; 'I' for Inactive)
REMARK    1  A    between atoms: N_6  and  C_1 
REMARK    2  A    between atoms: C_8  and  C_2 
REMARK    3  A    between atoms: C_11  and  C_3 
REMARK       I    between atoms: C_7  and  N_6 
REMARK    4  A    between atoms: C_9  and  C_7 
REMARK    5  A    between atoms: C_20  and  C_11 
ROOT
ATOM      1  C   UNL d   1      13.567  13.692  -3.955  0.00  0.00     0.119 A 
ATOM      2  C   UNL d   1      13.314  13.164  -4.529  0.00  0.00     0.084 A 
ATOM      3  C   UNL d   1      13.203  12.566  -3.336  0.00  0.00     0.031 A 
ATOM      4  S   UNL d   1      13.502  13.330  -3.213  0.00  0.00    -0.068 SA
ATOM      5  C   UNL d   1      13.088  12.465  -4.145  0.00  0.00     0.013 A 
ATOM      6  C   UNL d   1      12.796  11.779  -4.503  0.00  0.00     0.001 C 
ENDROOT
BRANCH   1   7
ATOM      7  N   UNL d   1      13.846  14.472  -4.096  0.00  0.00    -0.201 NA
ATOM      8  C   UNL d   1      14.159  14.922  -3.468  0.00  0.00     0.280 C 
ATOM      9  O   UNL d   1      14.197  14.608  -2.707  0.00  0.00    -0.265 OA
BRANCH   8  10
ATOM     10  C   UNL d   1      14.433  15.691  -3.614  0.00  0.00     0.058 A 
ATOM     11  C   UNL d   1      14.394  16.006  -4.379  0.00  0.00     0.005 A 
ATOM     12  C   UNL d   1      14.661  16.752  -4.515  0.00  0.00     0.000 A 
ATOM     13  C   UNL d   1      14.608  17.040  -5.298  0.00  0.00     0.000 A 
ATOM     14  C   UNL d   1      14.972  17.220  -3.929  0.00  0.00     0.000 A 
ATOM     15  C   UNL d   1      14.871  17.793  -5.465  0.00  0.00     0.000 A 
ATOM     16  C   UNL d   1      15.187  18.271  -4.872  0.00  0.00     0.000 A 
ATOM     17  C   UNL d   1      15.235  17.975  -4.100  0.00  0.00     0.000 A 
ATOM     18  C   UNL d   1      15.016  16.906  -3.140  0.00  0.00     0.000 A 
ATOM     19  C   UNL d   1      14.743  16.140  -2.997  0.00  0.00     0.005 A 
ENDBRANCH   8  10
ENDBRANCH   1   7
BRANCH   2  20
ATOM     20  C   UNL d   1      13.284  13.291  -5.343  0.00  0.00     0.299 C 
ATOM     21  O   UNL d   1      12.931  14.045  -5.648  0.00  0.00    -0.264 OA
ATOM     22  N   UNL d   1      13.554  12.770  -5.836  0.00  0.00    -0.102 N 
ENDBRANCH   2  20
BRANCH   3  23
ATOM     23  C   UNL d   1      13.021  11.948  -2.805  0.00  0.00     0.007 C 
BRANCH  23  24
ATOM     24  C   UNL d   1      13.414  11.906  -2.073  0.00  0.00     0.003 A 
ATOM     25  C   UNL d   1      14.244  11.887  -2.054  0.00  0.00     0.026 A 
ATOM     26  C   UNL d   1      14.640  11.845  -1.334  0.00  0.00     0.119 A 
ATOM     27  O   UNL d   1      15.437  11.818  -1.150  0.00  0.00    -0.300 OA
ATOM     28  C   UNL d   1      14.214  11.822  -0.629  0.00  0.00     0.119 A 
ATOM     29  C   UNL d   1      15.508  11.780  -0.335  0.00  0.00     0.304 A 
ATOM     30  O   UNL d   1      14.750  11.782  -0.014  0.00  0.00    -0.300 OA
ATOM     31  C   UNL d   1      13.392  11.841  -0.644  0.00  0.00     0.026 A 
ATOM     32  C   UNL d   1      12.988  11.883  -1.368  0.00  0.00     0.002 A 
ENDBRANCH  23  24
ENDBRANCH   3  23
TORSDOF 5
ENDMDL
