MODEL 1
REMARK VINA RESULT:      -9.6      0.000      0.000
REMARK  2 active torsions:
REMARK  status: ('A' for Active; 'I' for Inactive)
REMARK    1  A    between atoms: O_3  and  C_1 
REMARK    2  A    between atoms: C_2  and  O_3 
REMARK       I    between atoms: N_7  and  C_2 
ROOT
ATOM      1  C   UNL d   1      52.915  33.688  53.535  0.00  0.00     0.133 A 
ATOM      2  C   UNL d   1      53.182  32.897  53.609  0.00  0.00     0.106 A 
ATOM      3  C   UNL d   1      53.761  32.716  54.159  0.00  0.00     0.030 A 
ATOM      4  C   UNL d   1      53.233  34.277  54.013  0.00  0.00     0.083 A 
ATOM      5  C   UNL d   1      54.085  33.299  54.641  0.00  0.00     0.060 A 
ATOM      6  C   UNL d   1      53.818  34.090  54.567  0.00  0.00     0.025 A 
ATOM      7  N   UNL d   1      52.856  32.313  53.124  0.00  0.00    -0.242 NA
ATOM      8 CL   UNL d   1      52.970  35.055  53.940  0.00  0.00    -0.080 Cl
ATOM      9 CL   UNL d   1      54.670  33.121  55.197  0.00  0.00    -0.082 Cl
ATOM     10  C   UNL d   1      54.024  31.938  54.231  0.00  0.00     0.004 A 
ATOM     11  C   UNL d   1      53.119  31.535  53.196  0.00  0.00     0.099 A 
ATOM     12  C   UNL d   1      53.706  31.349  53.753  0.00  0.00     0.021 A 
ENDROOT
BRANCH   1  13
ATOM     13  O   UNL d   1      52.324  33.886  52.976  0.00  0.00    -0.257 OA
BRANCH  13  14
ATOM     14  C   UNL d   1      51.537  34.022  53.231  0.00  0.00     0.378 C 
ATOM     15  N   UNL d   1      50.946  34.171  52.682  0.00  0.00    -0.252 N 
ATOM     16  C   UNL d   1      50.171  34.304  52.939  0.00  0.00     0.085 A 
ATOM     17  C   UNL d   1      51.122  34.189  51.876  0.00  0.00     0.085 A 
ATOM     18  C   UNL d   1      49.576  34.454  52.389  0.00  0.00     0.019 A 
ATOM     19  C   UNL d   1      49.752  34.473  51.584  0.00  0.00     0.003 A 
ATOM     20  C   UNL d   1      50.522  34.340  51.331  0.00  0.00     0.019 A 
ATOM     21  O   UNL d   1      51.358  34.003  54.048  0.00  0.00    -0.237 OA
ENDBRANCH  13  14
ENDBRANCH   1  13
TORSDOF 2
ENDMDL
MODEL 2
REMARK VINA RESULT:      -9.5      1.271      3.496
REMARK  2 active torsions:
REMARK  status: ('A' for Active; 'I' for Inactive)
REMARK    1  A    between atoms: O_3  and  C_1 
REMARK    2  A    between atoms: C_2  and  O_3 
REMARK       I    between atoms: N_7  and  C_2 
ROOT
ATOM      1  C   UNL d   1      53.346  33.126  53.554  0.00  0.00     0.133 A 
ATOM      2  C   UNL d   1      52.637  33.539  53.386  0.00  0.00     0.106 A 
ATOM      3  C   UNL d   1      52.567  34.325  53.603  0.00  0.00     0.030 A 
ATOM      4  C   UNL d   1      53.967  33.509  53.934  0.00  0.00     0.083 A 
ATOM      5  C   UNL d   1      53.182  34.717  53.983  0.00  0.00     0.060 A 
ATOM      6  C   UNL d   1      53.892  34.304  54.151  0.00  0.00     0.025 A 
ATOM      7  N   UNL d   1      52.019  33.144  53.004  0.00  0.00    -0.242 NA
ATOM      8 CL   UNL d   1      54.665  33.102  54.099  0.00  0.00    -0.080 Cl
ATOM      9 CL   UNL d   1      53.116  35.511  54.203  0.00  0.00    -0.082 Cl
ATOM     10  C   UNL d   1      51.868  34.733  53.438  0.00  0.00     0.004 A 
ATOM     11  C   UNL d   1      51.321  33.551  52.839  0.00  0.00     0.099 A 
ATOM     12  C   UNL d   1      51.248  34.349  53.058  0.00  0.00     0.021 A 
ENDROOT
BRANCH   1  13
ATOM     13  O   UNL d   1      53.430  32.321  53.338  0.00  0.00    -0.257 OA
BRANCH  13  14
ATOM     14  C   UNL d   1      53.433  31.728  53.929  0.00  0.00     0.378 C 
ATOM     15  N   UNL d   1      53.324  30.942  53.724  0.00  0.00    -0.252 N 
ATOM     16  C   UNL d   1      53.328  30.359  54.312  0.00  0.00     0.085 A 
ATOM     17  C   UNL d   1      53.210  30.729  52.935  0.00  0.00     0.085 A 
ATOM     18  C   UNL d   1      53.217  29.568  54.109  0.00  0.00     0.019 A 
ATOM     19  C   UNL d   1      53.103  29.356  53.320  0.00  0.00     0.003 A 
ATOM     20  C   UNL d   1      53.100  29.936  52.738  0.00  0.00     0.019 A 
ATOM     21  O   UNL d   1      53.549  31.943  54.729  0.00  0.00    -0.237 OA
ENDBRANCH  13  14
ENDBRANCH   1  13
TORSDOF 2
ENDMDL
MODEL 3
REMARK VINA RESULT:      -8.2      1.120      1.861
REMARK  2 active torsions:
REMARK  status: ('A' for Active; 'I' for Inactive)
REMARK    1  A    between atoms: O_3  and  C_1 
REMARK    2  A    between atoms: C_2  and  O_3 
REMARK       I    between atoms: N_7  and  C_2 
ROOT
ATOM      1  C   UNL d   1      52.553  32.929  53.567  0.00  0.00     0.133 A 
ATOM      2  C   UNL d   1      53.139  33.306  54.033  0.00  0.00     0.106 A 
ATOM      3  C   UNL d   1      53.852  32.928  54.168  0.00  0.00     0.030 A 
ATOM      4  C   UNL d   1      52.696  32.185  53.247  0.00  0.00     0.083 A 
ATOM      5  C   UNL d   1      54.004  32.183  53.852  0.00  0.00     0.060 A 
ATOM      6  C   UNL d   1      53.419  31.807  53.386  0.00  0.00     0.025 A 
ATOM      7  N   UNL d   1      52.984  34.054  54.349  0.00  0.00    -0.242 NA
ATOM      8 CL   UNL d   1      52.120  31.814  52.788  0.00  0.00    -0.080 Cl
ATOM      9 CL   UNL d   1      54.724  31.799  53.986  0.00  0.00    -0.082 Cl
ATOM     10  C   UNL d   1      54.429  33.299  54.627  0.00  0.00     0.004 A 
ATOM     11  C   UNL d   1      53.561  34.424  54.808  0.00  0.00     0.099 A 
ATOM     12  C   UNL d   1      54.286  34.043  54.946  0.00  0.00     0.021 A 
ENDROOT
BRANCH   1  13
ATOM     13  O   UNL d   1      51.819  33.305  53.422  0.00  0.00    -0.257 OA
BRANCH  13  14
ATOM     14  C   UNL d   1      51.645  33.600  52.657  0.00  0.00     0.378 C 
ATOM     15  N   UNL d   1      50.928  33.972  52.512  0.00  0.00    -0.252 N 
ATOM     16  C   UNL d   1      50.761  34.262  51.756  0.00  0.00     0.085 A 
ATOM     17  C   UNL d   1      50.375  34.058  53.118  0.00  0.00     0.085 A 
ATOM     18  C   UNL d   1      50.042  34.636  51.608  0.00  0.00     0.019 A 
ATOM     19  C   UNL d   1      49.488  34.721  52.213  0.00  0.00     0.003 A 
ATOM     20  C   UNL d   1      49.656  34.433  52.964  0.00  0.00     0.019 A 
ATOM     21  O   UNL d   1      52.206  33.513  52.043  0.00  0.00    -0.237 OA
ENDBRANCH  13  14
ENDBRANCH   1  13
TORSDOF 2
ENDMDL
MODEL 4
REMARK VINA RESULT:      -7.0      2.820      4.067
REMARK  2 active torsions:
REMARK  status: ('A' for Active; 'I' for Inactive)
REMARK    1  A    between atoms: O_3  and  C_1 
REMARK    2  A    between atoms: C_2  and  O_3 
REMARK       I    between atoms: N_7  and  C_2 
ROOT
ATOM      1  C   UNL d   1      53.201  31.240  53.752  0.00  0.00     0.133 A 
ATOM      2  C   UNL d   1      53.251  30.464  54.065  0.00  0.00     0.106 A 
ATOM      3  C   UNL d   1      53.000  29.830  53.613  0.00  0.00     0.030 A 
ATOM      4  C   UNL d   1      52.902  31.361  52.996  0.00  0.00     0.083 A 
ATOM      5  C   UNL d   1      52.700  29.941  52.855  0.00  0.00     0.060 A 
ATOM      6  C   UNL d   1      52.650  30.717  52.542  0.00  0.00     0.025 A 
ATOM      7  N   UNL d   1      53.554  30.354  54.826  0.00  0.00    -0.242 NA
ATOM      8 CL   UNL d   1      52.853  32.125  52.688  0.00  0.00    -0.080 Cl
ATOM      9 CL   UNL d   1      52.445  29.303  52.395  0.00  0.00    -0.082 Cl
ATOM     10  C   UNL d   1      53.050  29.066  53.921  0.00  0.00     0.004 A 
ATOM     11  C   UNL d   1      53.603  29.591  55.134  0.00  0.00     0.099 A 
ATOM     12  C   UNL d   1      53.349  28.945  54.678  0.00  0.00     0.021 A 
ENDROOT
BRANCH   1  13
ATOM     13  O   UNL d   1      53.454  31.898  54.204  0.00  0.00    -0.257 OA
BRANCH  13  14
ATOM     14  C   UNL d   1      54.168  32.290  54.008  0.00  0.00     0.378 C 
ATOM     15  N   UNL d   1      54.454  32.890  54.487  0.00  0.00    -0.252 N 
ATOM     16  C   UNL d   1      55.159  33.275  54.289  0.00  0.00     0.085 A 
ATOM     17  C   UNL d   1      54.042  33.111  55.167  0.00  0.00     0.085 A 
ATOM     18  C   UNL d   1      55.449  33.878  54.770  0.00  0.00     0.019 A 
ATOM     19  C   UNL d   1      55.037  34.099  55.449  0.00  0.00     0.003 A 
ATOM     20  C   UNL d   1      54.337  33.716  55.644  0.00  0.00     0.019 A 
ATOM     21  O   UNL d   1      54.586  32.066  53.318  0.00  0.00    -0.237 OA
ENDBRANCH  13  14
ENDBRANCH   1  13
TORSDOF 2
ENDMDL
