MODEL 1
REMARK VINA RESULT:      -8.1      0.000      0.000
REMARK  5 active torsions:
REMARK  status: ('A' for Active; 'I' for Inactive)
REMARK    1  A    between atoms: O_6  and  C_1 
REMARK    2  A    between atoms: C_2  and  C_4 
REMARK    3  A    between atoms: O_7  and  C_3 
REMARK    4  A    between atoms: C_8  and  O_6 
REMARK    5  A    between atoms: C_9  and  O_7 
ROOT
ATOM      1  C   UNL d   1      52.903  32.901  53.607  0.00  0.00     0.126 A 
ATOM      2  C   UNL d   1      53.574  32.838  54.080  0.00  0.00     0.126 A 
ATOM      3  C   UNL d   1      53.023  31.516  53.260  0.00  0.00     0.067 A 
ATOM      4  C   UNL d   1      52.626  32.242  53.196  0.00  0.00     0.033 A 
ATOM      5  C   UNL d   1      53.972  32.113  54.143  0.00  0.00     0.027 A 
ATOM      6  C   UNL d   1      53.693  31.458  53.733  0.00  0.00     0.008 A 
ENDROOT
BRANCH   1   7
ATOM      7  O   UNL d   1      52.507  33.623  53.544  0.00  0.00    -0.271 OA
BRANCH   7   8
ATOM      8  C   UNL d   1      51.767  33.658  53.184  0.00  0.00     0.300 C 
ATOM      9  O   UNL d   1      51.089  33.366  53.585  0.00  0.00    -0.259 OA
ATOM     10  C   UNL d   1      51.692  33.981  52.429  0.00  0.00     0.074 C 
ENDBRANCH   7   8
ENDBRANCH   1   7
BRANCH   2  11
ATOM     11  O   UNL d   1      53.856  33.513  54.499  0.00  0.00    -0.271 OA
BRANCH  11  12
ATOM     12  C   UNL d   1      54.474  33.437  55.035  0.00  0.00     0.300 C 
ATOM     13  O   UNL d   1      54.357  33.037  55.748  0.00  0.00    -0.259 OA
ATOM     14  C   UNL d   1      55.215  33.762  54.855  0.00  0.00     0.074 C 
ENDBRANCH  11  12
ENDBRANCH   2  11
BRANCH   3  15
ATOM     15  C   UNL d   1      52.749  30.835  52.844  0.00  0.00     0.211 C 
ATOM     16  O   UNL d   1      52.986  30.724  52.061  0.00  0.00    -0.644 OA
ATOM     17  O   UNL d   1      52.247  30.287  53.224  0.00  0.00    -0.644 OA
ENDBRANCH   3  15
TORSDOF 5
ENDMDL
MODEL 2
REMARK VINA RESULT:      -8.0      0.895      3.149
REMARK  5 active torsions:
REMARK  status: ('A' for Active; 'I' for Inactive)
REMARK    1  A    between atoms: O_6  and  C_1 
REMARK    2  A    between atoms: C_2  and  C_4 
REMARK    3  A    between atoms: O_7  and  C_3 
REMARK    4  A    between atoms: C_8  and  O_6 
REMARK    5  A    between atoms: C_9  and  O_7 
ROOT
ATOM      1  C   UNL d   1      52.875  32.470  53.200  0.00  0.00     0.126 A 
ATOM      2  C   UNL d   1      52.423  33.159  53.183  0.00  0.00     0.126 A 
ATOM      3  C   UNL d   1      53.652  33.012  54.276  0.00  0.00     0.067 A 
ATOM      4  C   UNL d   1      53.490  32.395  53.745  0.00  0.00     0.033 A 
ATOM      5  C   UNL d   1      52.586  33.776  53.714  0.00  0.00     0.027 A 
ATOM      6  C   UNL d   1      53.199  33.698  54.255  0.00  0.00     0.008 A 
ENDROOT
BRANCH   1   7
ATOM      7  O   UNL d   1      52.713  31.856  52.673  0.00  0.00    -0.271 OA
BRANCH   7   8
ATOM      8  C   UNL d   1      52.731  31.074  52.932  0.00  0.00     0.300 C 
ATOM      9  O   UNL d   1      52.092  30.764  53.379  0.00  0.00    -0.259 OA
ATOM     10  C   UNL d   1      53.378  30.596  52.750  0.00  0.00     0.074 C 
ENDBRANCH   7   8
ENDBRANCH   1   7
BRANCH   2  11
ATOM     11  O   UNL d   1      51.796  33.234  52.626  0.00  0.00    -0.271 OA
BRANCH  11  12
ATOM     12  C   UNL d   1      51.454  33.968  52.488  0.00  0.00     0.300 C 
ATOM     13  O   UNL d   1      51.842  34.525  52.017  0.00  0.00    -0.259 OA
ATOM     14  C   UNL d   1      50.717  34.147  52.824  0.00  0.00     0.074 C 
ENDBRANCH  11  12
ENDBRANCH   2  11
BRANCH   3  15
ATOM     15  C   UNL d   1      54.278  32.946  54.837  0.00  0.00     0.211 C 
ATOM     16  O   UNL d   1      54.121  32.600  55.570  0.00  0.00    -0.644 OA
ATOM     17  O   UNL d   1      55.042  33.226  54.649  0.00  0.00    -0.644 OA
ENDBRANCH   3  15
TORSDOF 5
ENDMDL
MODEL 3
REMARK VINA RESULT:      -8.0      0.854      3.222
REMARK  5 active torsions:
REMARK  status: ('A' for Active; 'I' for Inactive)
REMARK    1  A    between atoms: O_6  and  C_1 
REMARK    2  A    between atoms: C_2  and  C_4 
REMARK    3  A    between atoms: O_7  and  C_3 
REMARK    4  A    between atoms: C_8  and  O_6 
REMARK    5  A    between atoms: C_9  and  O_7 
ROOT
ATOM      1  C   UNL d   1      53.562  32.623  53.729  0.00  0.00     0.126 A 
ATOM      2  C   UNL d   1      53.171  31.995  53.366  0.00  0.00     0.126 A 
ATOM      3  C   UNL d   1      52.552  33.521  53.249  0.00  0.00     0.067 A 
ATOM      4  C   UNL d   1      53.254  33.387  53.672  0.00  0.00     0.033 A 
ATOM      5  C   UNL d   1      52.470  32.130  52.944  0.00  0.00     0.027 A 
ATOM      6  C   UNL d   1      52.166  32.891  52.889  0.00  0.00     0.008 A 
ENDROOT
BRANCH   1   7
ATOM      7  O   UNL d   1      54.259  32.490  54.149  0.00  0.00    -0.271 OA
BRANCH   7   8
ATOM      8  C   UNL d   1      54.426  32.932  54.824  0.00  0.00     0.300 C 
ATOM      9  O   UNL d   1      54.014  32.780  55.540  0.00  0.00    -0.259 OA
ATOM     10  C   UNL d   1      54.999  33.524  54.795  0.00  0.00     0.074 C 
ENDBRANCH   7   8
ENDBRANCH   1   7
BRANCH   2  11
ATOM     11  O   UNL d   1      53.487  31.216  53.425  0.00  0.00    -0.271 OA
BRANCH  11  12
ATOM     12  C   UNL d   1      53.115  30.591  53.044  0.00  0.00     0.300 C 
ATOM     13  O   UNL d   1      53.107  30.554  52.218  0.00  0.00    -0.259 OA
ATOM     14  C   UNL d   1      52.747  29.997  53.491  0.00  0.00     0.074 C 
ENDBRANCH  11  12
ENDBRANCH   2  11
BRANCH   3  15
ATOM     15  C   UNL d   1      52.229  34.297  53.184  0.00  0.00     0.211 C 
ATOM     16  O   UNL d   1      51.565  34.491  53.636  0.00  0.00    -0.644 OA
ATOM     17  O   UNL d   1      52.579  34.855  52.671  0.00  0.00    -0.644 OA
ENDBRANCH   3  15
TORSDOF 5
ENDMDL
MODEL 4
REMARK VINA RESULT:      -7.9      0.795      2.292
REMARK  5 active torsions:
REMARK  status: ('A' for Active; 'I' for Inactive)
REMARK    1  A    between atoms: O_6  and  C_1 
REMARK    2  A    between atoms: C_2  and  C_4 
REMARK    3  A    between atoms: O_7  and  C_3 
REMARK    4  A    between atoms: C_8  and  O_6 
REMARK    5  A    between atoms: C_9  and  O_7 
ROOT
ATOM      1  C   UNL d   1      53.120  32.385  53.520  0.00  0.00     0.126 A 
ATOM      2  C   UNL d   1      53.543  32.926  53.974  0.00  0.00     0.126 A 
ATOM      3  C   UNL d   1      52.107  33.374  53.296  0.00  0.00     0.067 A 
ATOM      4  C   UNL d   1      52.402  32.607  53.180  0.00  0.00     0.033 A 
ATOM      5  C   UNL d   1      53.248  33.693  54.091  0.00  0.00     0.027 A 
ATOM      6  C   UNL d   1      52.533  33.911  53.751  0.00  0.00     0.008 A 
ENDROOT
BRANCH   1   7
ATOM      7  O   UNL d   1      53.414  31.623  53.404  0.00  0.00    -0.271 OA
BRANCH   7   8
ATOM      8  C   UNL d   1      52.978  31.074  52.970  0.00  0.00     0.300 C 
ATOM      9  O   UNL d   1      52.927  31.142  52.135  0.00  0.00    -0.259 OA
ATOM     10  C   UNL d   1      52.592  30.457  53.358  0.00  0.00     0.074 C 
ENDBRANCH   7   8
ENDBRANCH   1   7
BRANCH   2  11
ATOM     11  O   UNL d   1      54.277  32.698  54.321  0.00  0.00    -0.271 OA
BRANCH  11  12
ATOM     12  C   UNL d   1      54.561  33.095  54.982  0.00  0.00     0.300 C 
ATOM     13  O   UNL d   1      54.281  32.900  55.735  0.00  0.00    -0.259 OA
ATOM     14  C   UNL d   1      55.130  33.692  54.890  0.00  0.00     0.074 C 
ENDBRANCH  11  12
ENDBRANCH   2  11
BRANCH   3  15
ATOM     15  C   UNL d   1      51.374  33.611  52.953  0.00  0.00     0.211 C 
ATOM     16  O   UNL d   1      51.384  34.051  52.255  0.00  0.00    -0.644 OA
ATOM     17  O   UNL d   1      50.653  33.402  53.319  0.00  0.00    -0.644 OA
ENDBRANCH   3  15
TORSDOF 5
ENDMDL
MODEL 5
REMARK VINA RESULT:      -7.8      0.665      2.792
REMARK  5 active torsions:
REMARK  status: ('A' for Active; 'I' for Inactive)
REMARK    1  A    between atoms: O_6  and  C_1 
REMARK    2  A    between atoms: C_2  and  C_4 
REMARK    3  A    between atoms: O_7  and  C_3 
REMARK    4  A    between atoms: C_8  and  O_6 
REMARK    5  A    between atoms: C_9  and  O_7 
ROOT
ATOM      1  C   UNL d   1      52.867  32.645  53.281  0.00  0.00     0.126 A 
ATOM      2  C   UNL d   1      53.010  31.836  53.345  0.00  0.00     0.126 A 
ATOM      3  C   UNL d   1      53.907  32.898  54.235  0.00  0.00     0.067 A 
ATOM      4  C   UNL d   1      53.314  33.177  53.725  0.00  0.00     0.033 A 
ATOM      5  C   UNL d   1      53.603  31.557  53.854  0.00  0.00     0.027 A 
ATOM      6  C   UNL d   1      54.046  32.090  54.295  0.00  0.00     0.008 A 
ENDROOT
BRANCH   1   7
ATOM      7  O   UNL d   1      52.278  32.922  52.775  0.00  0.00    -0.271 OA
BRANCH   7   8
ATOM      8  C   UNL d   1      51.819  33.571  52.992  0.00  0.00     0.300 C 
ATOM      9  O   UNL d   1      51.239  33.494  53.595  0.00  0.00    -0.259 OA
ATOM     10  C   UNL d   1      51.929  34.296  52.615  0.00  0.00     0.074 C 
ENDBRANCH   7   8
ENDBRANCH   1   7
BRANCH   2  11
ATOM     11  O   UNL d   1      52.552  31.293  52.891  0.00  0.00    -0.271 OA
BRANCH  11  12
ATOM     12  C   UNL d   1      52.806  30.517  52.799  0.00  0.00     0.300 C 
ATOM     13  O   UNL d   1      53.327  30.321  52.189  0.00  0.00    -0.259 OA
ATOM     14  C   UNL d   1      52.535  29.932  53.321  0.00  0.00     0.074 C 
ENDBRANCH  11  12
ENDBRANCH   2  11
BRANCH   3  15
ATOM     15  C   UNL d   1      54.370  33.433  54.693  0.00  0.00     0.211 C 
ATOM     16  O   UNL d   1      55.154  33.572  54.473  0.00  0.00    -0.644 OA
ATOM     17  O   UNL d   1      54.036  33.813  55.357  0.00  0.00    -0.644 OA
ENDBRANCH   3  15
TORSDOF 5
ENDMDL
MODEL 6
REMARK VINA RESULT:      -7.8      0.647      2.540
REMARK  5 active torsions:
REMARK  status: ('A' for Active; 'I' for Inactive)
REMARK    1  A    between atoms: O_6  and  C_1 
REMARK    2  A    between atoms: C_2  and  C_4 
REMARK    3  A    between atoms: O_7  and  C_3 
REMARK    4  A    between atoms: C_8  and  O_6 
REMARK    5  A    between atoms: C_9  and  O_7 
ROOT
ATOM      1  C   UNL d   1      53.303  32.709  53.921  0.00  0.00     0.126 A 
ATOM      2  C   UNL d   1      52.670  32.870  53.418  0.00  0.00     0.126 A 
ATOM      3  C   UNL d   1      53.302  31.346  53.478  0.00  0.00     0.067 A 
ATOM      4  C   UNL d   1      53.620  31.948  53.952  0.00  0.00     0.033 A 
ATOM      5  C   UNL d   1      52.352  32.267  52.944  0.00  0.00     0.027 A 
ATOM      6  C   UNL d   1      52.670  31.511  52.978  0.00  0.00     0.008 A 
ENDROOT
BRANCH   1   7
ATOM      7  O   UNL d   1      53.619  33.308  54.392  0.00  0.00    -0.271 OA
BRANCH   7   8
ATOM      8  C   UNL d   1      54.246  33.145  54.901  0.00  0.00     0.300 C 
ATOM      9  O   UNL d   1      54.116  32.700  55.601  0.00  0.00    -0.259 OA
ATOM     10  C   UNL d   1      55.003  33.420  54.722  0.00  0.00     0.074 C 
ENDBRANCH   7   8
ENDBRANCH   1   7
BRANCH   2  11
ATOM     11  O   UNL d   1      52.347  33.647  53.387  0.00  0.00    -0.271 OA
BRANCH  11  12
ATOM     12  C   UNL d   1      51.617  33.776  53.033  0.00  0.00     0.300 C 
ATOM     13  O   UNL d   1      50.924  33.530  53.410  0.00  0.00    -0.259 OA
ATOM     14  C   UNL d   1      51.580  34.155  52.296  0.00  0.00     0.074 C 
ENDBRANCH  11  12
ENDBRANCH   2  11
BRANCH   3  15
ATOM     15  C   UNL d   1      53.619  30.565  53.502  0.00  0.00     0.211 C 
ATOM     16  O   UNL d   1      54.294  30.394  53.058  0.00  0.00    -0.644 OA
ATOM     17  O   UNL d   1      53.251  29.977  53.968  0.00  0.00    -0.644 OA
ENDBRANCH   3  15
TORSDOF 5
ENDMDL
