MODEL 1
REMARK VINA RESULT:      -7.3      0.000      0.000
REMARK  3 active torsions:
REMARK  status: ('A' for Active; 'I' for Inactive)
REMARK    1  A    between atoms: N_2  and  C_1 
REMARK    2  A    between atoms: C_3  and  C_1 
REMARK    3  A    between atoms: N_6  and  C_5 
ROOT
ATOM      1  C   UNL d   1      53.962  32.691  54.142  0.00  0.00     0.027 A 
ATOM      2  C   UNL d   1      53.479  31.169  53.710  0.00  0.00     0.064 A 
ATOM      3  C   UNL d   1      53.982  32.456  53.345  0.00  0.00     0.004 A 
ATOM      4  C   UNL d   1      53.697  32.158  54.725  0.00  0.00     0.004 A 
ATOM      5  C   UNL d   1      53.741  31.697  53.133  0.00  0.00     0.018 A 
ATOM      6  C   UNL d   1      53.455  31.394  54.507  0.00  0.00     0.018 A 
ENDROOT
BRANCH   1   7
ATOM      7  C   UNL d   1      54.203  33.452  54.357  0.00  0.00     0.120 C 
ATOM      8  S   UNL d   1      54.979  33.574  54.618  0.00  0.00    -0.059 SA
BRANCH   7   9
ATOM      9  N   UNL d   1      53.673  34.081  54.310  0.00  0.00    -0.292 N 
ATOM     10  C   UNL d   1      53.363  34.402  55.001  0.00  0.00     0.108 A 
ATOM     11  C   UNL d   1      52.832  35.032  54.954  0.00  0.00     0.142 A 
ATOM     12  O   UNL d   1      52.616  35.334  54.220  0.00  0.00    -0.300 OA
ATOM     13  C   UNL d   1      52.931  35.008  53.528  0.00  0.00     0.142 A 
ATOM     14  C   UNL d   1      53.461  34.378  53.575  0.00  0.00     0.108 A 
ENDBRANCH   7   9
ENDBRANCH   1   7
BRANCH   2  15
ATOM     15  N   UNL d   1      53.238  30.412  53.497  0.00  0.00    -0.301 N 
ATOM     16  C   UNL d   1      53.471  29.761  53.950  0.00  0.00     0.100 C 
ATOM     17  C   UNL d   1      52.765  30.303  52.832  0.00  0.00     0.100 C 
ENDBRANCH   2  15
TORSDOF 3
ENDMDL
MODEL 2
REMARK VINA RESULT:      -7.3      2.249      3.345
REMARK  3 active torsions:
REMARK  status: ('A' for Active; 'I' for Inactive)
REMARK    1  A    between atoms: N_2  and  C_1 
REMARK    2  A    between atoms: C_3  and  C_1 
REMARK    3  A    between atoms: N_6  and  C_5 
ROOT
ATOM      1  C   UNL d   1      52.333  32.867  53.147  0.00  0.00     0.027 A 
ATOM      2  C   UNL d   1      51.042  33.853  52.833  0.00  0.00     0.064 A 
ATOM      3  C   UNL d   1      52.418  33.520  52.641  0.00  0.00     0.004 A 
ATOM      4  C   UNL d   1      51.594  32.709  53.498  0.00  0.00     0.004 A 
ATOM      5  C   UNL d   1      51.774  34.010  52.486  0.00  0.00     0.018 A 
ATOM      6  C   UNL d   1      50.947  33.205  53.340  0.00  0.00     0.018 A 
ENDROOT
BRANCH   1   7
ATOM      7  C   UNL d   1      52.978  32.375  53.304  0.00  0.00     0.120 C 
ATOM      8  S   UNL d   1      53.006  31.620  52.965  0.00  0.00    -0.059 SA
BRANCH   7   9
ATOM      9  N   UNL d   1      53.587  32.637  53.793  0.00  0.00    -0.292 N 
ATOM     10  C   UNL d   1      54.283  32.920  53.457  0.00  0.00     0.108 A 
ATOM     11  C   UNL d   1      54.893  33.182  53.947  0.00  0.00     0.142 A 
ATOM     12  O   UNL d   1      54.803  33.161  54.765  0.00  0.00    -0.300 OA
ATOM     13  C   UNL d   1      54.101  32.876  55.097  0.00  0.00     0.142 A 
ATOM     14  C   UNL d   1      53.492  32.614  54.607  0.00  0.00     0.108 A 
ENDBRANCH   7   9
ENDBRANCH   1   7
BRANCH   2  15
ATOM     15  N   UNL d   1      50.400  34.343  52.679  0.00  0.00    -0.301 N 
ATOM     16  C   UNL d   1      50.058  34.352  51.926  0.00  0.00     0.100 C 
ATOM     17  C   UNL d   1      50.096  34.824  53.274  0.00  0.00     0.100 C 
ENDBRANCH   2  15
TORSDOF 3
ENDMDL
MODEL 3
REMARK VINA RESULT:      -6.9      2.011      2.896
REMARK  3 active torsions:
REMARK  status: ('A' for Active; 'I' for Inactive)
REMARK    1  A    between atoms: N_2  and  C_1 
REMARK    2  A    between atoms: C_3  and  C_1 
REMARK    3  A    between atoms: N_6  and  C_5 
ROOT
ATOM      1  C   UNL d   1      53.154  32.876  53.623  0.00  0.00     0.027 A 
ATOM      2  C   UNL d   1      54.424  33.364  54.565  0.00  0.00     0.064 A 
ATOM      3  C   UNL d   1      53.054  32.976  54.442  0.00  0.00     0.004 A 
ATOM      4  C   UNL d   1      53.897  33.023  53.276  0.00  0.00     0.004 A 
ATOM      5  C   UNL d   1      53.688  33.219  54.909  0.00  0.00     0.018 A 
ATOM      6  C   UNL d   1      54.533  33.268  53.750  0.00  0.00     0.018 A 
ENDROOT
BRANCH   1   7
ATOM      7  C   UNL d   1      52.519  32.632  53.154  0.00  0.00     0.120 C 
ATOM      8  S   UNL d   1      52.488  31.850  52.884  0.00  0.00    -0.059 SA
BRANCH   7   9
ATOM      9  N   UNL d   1      51.923  33.167  52.957  0.00  0.00    -0.292 N 
ATOM     10  C   UNL d   1      51.215  33.155  53.375  0.00  0.00     0.108 A 
ATOM     11  C   UNL d   1      50.618  33.690  53.178  0.00  0.00     0.142 A 
ATOM     12  O   UNL d   1      50.733  34.230  52.569  0.00  0.00    -0.300 OA
ATOM     13  C   UNL d   1      51.448  34.238  52.152  0.00  0.00     0.142 A 
ATOM     14  C   UNL d   1      52.044  33.703  52.349  0.00  0.00     0.108 A 
ENDBRANCH   7   9
ENDBRANCH   1   7
BRANCH   2  15
ATOM     15  N   UNL d   1      55.056  33.607  55.031  0.00  0.00    -0.301 N 
ATOM     16  C   UNL d   1      54.991  33.595  55.855  0.00  0.00     0.100 C 
ATOM     17  C   UNL d   1      55.754  33.862  54.676  0.00  0.00     0.100 C 
ENDBRANCH   2  15
TORSDOF 3
ENDMDL
