MODEL 1
REMARK VINA RESULT:      -3.2      0.000      0.000
REMARK  1 active torsions:
REMARK  status: ('A' for Active; 'I' for Inactive)
REMARK    1  A    between atoms: C_6  and  C_1 
ROOT
ATOM      1  C   UNL d   1      29.371  16.571 -24.067  0.00  0.00     0.128 A 
ATOM      2  C   UNL d   1      29.418  17.275 -24.494  0.00  0.00     0.306 A 
ATOM      3  C   UNL d   1      30.062  16.226 -23.755  0.00  0.00     0.013 A 
ATOM      4  O   UNL d   1      30.156  17.638 -24.612  0.00  0.00    -0.273 OA
ATOM      5  C   UNL d   1      30.791  16.593 -23.876  0.00  0.00     0.023 A 
ATOM      6  C   UNL d   1      30.838  17.297 -24.303  0.00  0.00     0.103 A 
ATOM      7  O   UNL d   1      28.736  17.616 -24.803  0.00  0.00    -0.259 OA
ATOM      8  C   UNL d   1      31.474  16.252 -23.567  0.00  0.00     0.002 A 
ATOM      9  C   UNL d   1      31.568  17.660 -24.422  0.00  0.00     0.025 A 
ATOM     10  C   UNL d   1      32.203  16.614 -23.686  0.00  0.00     0.000 A 
ATOM     11  C   UNL d   1      32.250  17.318 -24.113  0.00  0.00     0.002 A 
ATOM     12  C   UNL d   1      32.887  16.274 -23.377  0.00  0.00     0.000 C 
ENDROOT
BRANCH   1  13
ATOM     13  C   UNL d   1      28.637  16.208 -23.949  0.00  0.00     0.216 C 
ATOM     14  O   UNL d   1      28.392  15.603 -24.454  0.00  0.00    -0.644 OA
ATOM     15  O   UNL d   1      28.153  16.450 -23.330  0.00  0.00    -0.644 OA
ENDBRANCH   1  13
TORSDOF 1
ENDMDL
MODEL 2
REMARK VINA RESULT:      -3.0      1.295      2.987
REMARK  1 active torsions:
REMARK  status: ('A' for Active; 'I' for Inactive)
REMARK    1  A    between atoms: C_6  and  C_1 
ROOT
ATOM      1  C   UNL d   1      31.670  17.032 -23.954  0.00  0.00     0.128 A 
ATOM      2  C   UNL d   1      31.400  17.651 -24.426  0.00  0.00     0.306 A 
ATOM      3  C   UNL d   1      31.134  16.462 -23.666  0.00  0.00     0.013 A 
ATOM      4  O   UNL d   1      30.592  17.705 -24.615  0.00  0.00    -0.273 OA
ATOM      5  C   UNL d   1      30.334  16.522 -23.857  0.00  0.00     0.023 A 
ATOM      6  C   UNL d   1      30.064  17.142 -24.330  0.00  0.00     0.103 A 
ATOM      7  O   UNL d   1      31.928  18.215 -24.711  0.00  0.00    -0.259 OA
ATOM      8  C   UNL d   1      29.804  15.959 -23.573  0.00  0.00     0.002 A 
ATOM      9  C   UNL d   1      29.264  17.199 -24.519  0.00  0.00     0.025 A 
ATOM     10  C   UNL d   1      29.005  16.016 -23.762  0.00  0.00     0.000 A 
ATOM     11  C   UNL d   1      28.735  16.635 -24.235  0.00  0.00     0.002 A 
ATOM     12  C   UNL d   1      28.476  15.453 -23.478  0.00  0.00     0.000 C 
ENDROOT
BRANCH   1  13
ATOM     13  C   UNL d   1      32.473  16.977 -23.765  0.00  0.00     0.216 C 
ATOM     14  O   UNL d   1      32.980  16.540 -24.249  0.00  0.00    -0.644 OA
ATOM     15  O   UNL d   1      32.767  17.357 -23.098  0.00  0.00    -0.644 OA
ENDBRANCH   1  13
TORSDOF 1
ENDMDL
MODEL 3
REMARK VINA RESULT:      -2.9      5.397      6.422
REMARK  1 active torsions:
REMARK  status: ('A' for Active; 'I' for Inactive)
REMARK    1  A    between atoms: C_6  and  C_1 
ROOT
ATOM      1  C   UNL d   1      32.653  22.358 -21.165  0.00  0.00     0.128 A 
ATOM      2  C   UNL d   1      32.847  22.066 -20.418  0.00  0.00     0.306 A 
ATOM      3  C   UNL d   1      32.654  21.851 -21.825  0.00  0.00     0.013 A 
ATOM      4  O   UNL d   1      33.043  21.263 -20.327  0.00  0.00    -0.273 OA
ATOM      5  C   UNL d   1      32.851  21.055 -21.727  0.00  0.00     0.023 A 
ATOM      6  C   UNL d   1      33.045  20.763 -20.981  0.00  0.00     0.103 A 
ATOM      7  O   UNL d   1      32.846  22.566 -19.765  0.00  0.00    -0.259 OA
ATOM      8  C   UNL d   1      32.852  20.553 -22.380  0.00  0.00     0.002 A 
ATOM      9  C   UNL d   1      33.240  19.968 -20.887  0.00  0.00     0.025 A 
ATOM     10  C   UNL d   1      33.047  19.760 -22.286  0.00  0.00     0.000 A 
ATOM     11  C   UNL d   1      33.241  19.467 -21.540  0.00  0.00     0.002 A 
ATOM     12  C   UNL d   1      33.049  19.257 -22.939  0.00  0.00     0.000 C 
ENDROOT
BRANCH   1  13
ATOM     13  C   UNL d   1      32.457  23.157 -21.256  0.00  0.00     0.216 C 
ATOM     14  O   UNL d   1      31.683  23.408 -21.124  0.00  0.00    -0.644 OA
ATOM     15  O   UNL d   1      33.034  23.700 -21.478  0.00  0.00    -0.644 OA
ENDBRANCH   1  13
TORSDOF 1
ENDMDL
MODEL 4
REMARK VINA RESULT:      -2.7      1.960      3.482
REMARK  1 active torsions:
REMARK  status: ('A' for Active; 'I' for Inactive)
REMARK    1  A    between atoms: C_6  and  C_1 
ROOT
ATOM      1  C   UNL d   1      32.285  17.778 -23.652  0.00  0.00     0.128 A 
ATOM      2  C   UNL d   1      32.523  17.110 -23.230  0.00  0.00     0.306 A 
ATOM      3  C   UNL d   1      31.558  17.776 -24.060  0.00  0.00     0.013 A 
ATOM      4  O   UNL d   1      32.037  16.437 -23.213  0.00  0.00    -0.273 OA
ATOM      5  C   UNL d   1      31.081  17.103 -24.038  0.00  0.00     0.023 A 
ATOM      6  C   UNL d   1      31.319  16.436 -23.616  0.00  0.00     0.103 A 
ATOM      7  O   UNL d   1      33.241  17.111 -22.827  0.00  0.00    -0.259 OA
ATOM      8  C   UNL d   1      30.362  17.101 -24.441  0.00  0.00     0.002 A 
ATOM      9  C   UNL d   1      30.840  15.766 -23.597  0.00  0.00     0.025 A 
ATOM     10  C   UNL d   1      29.883  16.433 -24.422  0.00  0.00     0.000 A 
ATOM     11  C   UNL d   1      30.122  15.765 -24.000  0.00  0.00     0.002 A 
ATOM     12  C   UNL d   1      29.165  16.431 -24.825  0.00  0.00     0.000 C 
ENDROOT
BRANCH   1  13
ATOM     13  C   UNL d   1      32.768  18.448 -23.670  0.00  0.00     0.216 C 
ATOM     14  O   UNL d   1      32.860  18.906 -22.990  0.00  0.00    -0.644 OA
ATOM     15  O   UNL d   1      33.156  18.659 -24.364  0.00  0.00    -0.644 OA
ENDBRANCH   1  13
TORSDOF 1
ENDMDL
MODEL 5
REMARK VINA RESULT:      -2.3      4.101      5.088
REMARK  1 active torsions:
REMARK  status: ('A' for Active; 'I' for Inactive)
REMARK    1  A    between atoms: C_6  and  C_1 
ROOT
ATOM      1  C   UNL d   1      32.630  20.889 -21.544  0.00  0.00     0.128 A 
ATOM      2  C   UNL d   1      32.716  21.380 -22.202  0.00  0.00     0.306 A 
ATOM      3  C   UNL d   1      32.719  20.064 -21.626  0.00  0.00     0.013 A 
ATOM      4  O   UNL d   1      32.890  21.050 -22.944  0.00  0.00    -0.273 OA
ATOM      5  C   UNL d   1      32.892  19.744 -22.366  0.00  0.00     0.023 A 
ATOM      6  C   UNL d   1      32.978  20.236 -23.023  0.00  0.00     0.103 A 
ATOM      7  O   UNL d   1      32.628  22.195 -22.122  0.00  0.00    -0.259 OA
ATOM      8  C   UNL d   1      32.980  18.929 -22.447  0.00  0.00     0.002 A 
ATOM      9  C   UNL d   1      33.151  19.912 -23.761  0.00  0.00     0.025 A 
ATOM     10  C   UNL d   1      33.153  18.606 -23.183  0.00  0.00     0.000 A 
ATOM     11  C   UNL d   1      33.238  19.098 -23.840  0.00  0.00     0.002 A 
ATOM     12  C   UNL d   1      33.241  17.791 -23.264  0.00  0.00     0.000 C 
ENDROOT
BRANCH   1  13
ATOM     13  C   UNL d   1      32.456  21.216 -20.805  0.00  0.00     0.216 C 
ATOM     14  O   UNL d   1      31.671  21.300 -20.567  0.00  0.00    -0.644 OA
ATOM     15  O   UNL d   1      33.066  21.457 -20.308  0.00  0.00    -0.644 OA
ENDBRANCH   1  13
TORSDOF 1
ENDMDL
MODEL 6
REMARK VINA RESULT:      -2.0      6.027      6.824
REMARK  1 active torsions:
REMARK  status: ('A' for Active; 'I' for Inactive)
REMARK    1  A    between atoms: C_6  and  C_1 
ROOT
ATOM      1  C   UNL d   1      32.710  21.888 -21.212  0.00  0.00     0.128 A 
ATOM      2  C   UNL d   1      32.796  22.665 -20.949  0.00  0.00     0.306 A 
ATOM      3  C   UNL d   1      32.779  21.713 -22.024  0.00  0.00     0.013 A 
ATOM      4  O   UNL d   1      32.951  23.272 -21.495  0.00  0.00    -0.273 OA
ATOM      5  C   UNL d   1      32.933  22.321 -22.560  0.00  0.00     0.023 A 
ATOM      6  C   UNL d   1      33.019  23.098 -22.296  0.00  0.00     0.103 A 
ATOM      7  O   UNL d   1      32.728  22.839 -20.147  0.00  0.00    -0.259 OA
ATOM      8  C   UNL d   1      33.002  22.148 -23.362  0.00  0.00     0.002 A 
ATOM      9  C   UNL d   1      33.173  23.702 -22.835  0.00  0.00     0.025 A 
ATOM     10  C   UNL d   1      33.155  22.751 -23.900  0.00  0.00     0.000 A 
ATOM     11  C   UNL d   1      33.241  23.528 -23.637  0.00  0.00     0.002 A 
ATOM     12  C   UNL d   1      33.223  22.578 -24.703  0.00  0.00     0.000 C 
ENDROOT
BRANCH   1  13
ATOM     13  C   UNL d   1      32.556  21.283 -20.670  0.00  0.00     0.216 C 
ATOM     14  O   UNL d   1      31.777  21.065 -20.508  0.00  0.00    -0.644 OA
ATOM     15  O   UNL d   1      33.178  20.900 -20.291  0.00  0.00    -0.644 OA
ENDBRANCH   1  13
TORSDOF 1
ENDMDL
MODEL 7
REMARK VINA RESULT:      -2.0      3.392      4.600
REMARK  1 active torsions:
REMARK  status: ('A' for Active; 'I' for Inactive)
REMARK    1  A    between atoms: C_6  and  C_1 
ROOT
ATOM      1  C   UNL d   1      32.867  18.767 -23.463  0.00  0.00     0.128 A 
ATOM      2  C   UNL d   1      32.994  18.265 -22.820  0.00  0.00     0.306 A 
ATOM      3  C   UNL d   1      32.864  19.592 -23.353  0.00  0.00     0.013 A 
ATOM      4  O   UNL d   1      33.119  18.586 -22.064  0.00  0.00    -0.273 OA
ATOM      5  C   UNL d   1      32.989  19.904 -22.599  0.00  0.00     0.023 A 
ATOM      6  C   UNL d   1      33.116  19.402 -21.957  0.00  0.00     0.103 A 
ATOM      7  O   UNL d   1      32.997  17.449 -22.928  0.00  0.00    -0.259 OA
ATOM      8  C   UNL d   1      32.987  20.720 -22.491  0.00  0.00     0.002 A 
ATOM      9  C   UNL d   1      33.241  19.717 -21.205  0.00  0.00     0.025 A 
ATOM     10  C   UNL d   1      33.111  21.034 -21.741  0.00  0.00     0.000 A 
ATOM     11  C   UNL d   1      33.238  20.533 -21.098  0.00  0.00     0.002 A 
ATOM     12  C   UNL d   1      33.109  21.851 -21.632  0.00  0.00     0.000 C 
ENDROOT
BRANCH   1  13
ATOM     13  C   UNL d   1      32.742  18.448 -24.216  0.00  0.00     0.216 C 
ATOM     14  O   UNL d   1      32.143  17.894 -24.333  0.00  0.00    -0.644 OA
ATOM     15  O   UNL d   1      33.215  18.684 -24.846  0.00  0.00    -0.644 OA
ENDBRANCH   1  13
TORSDOF 1
ENDMDL
MODEL 8
REMARK VINA RESULT:      -1.7      5.050      6.102
REMARK  1 active torsions:
REMARK  status: ('A' for Active; 'I' for Inactive)
REMARK    1  A    between atoms: C_6  and  C_1 
ROOT
ATOM      1  C   UNL d   1      32.961  20.301 -22.196  0.00  0.00     0.128 A 
ATOM      2  C   UNL d   1      33.061  19.992 -21.437  0.00  0.00     0.306 A 
ATOM      3  C   UNL d   1      32.779  21.107 -22.298  0.00  0.00     0.013 A 
ATOM      4  O   UNL d   1      32.981  20.489 -20.776  0.00  0.00    -0.273 OA
ATOM      5  C   UNL d   1      32.701  21.594 -21.636  0.00  0.00     0.023 A 
ATOM      6  C   UNL d   1      32.801  21.286 -20.878  0.00  0.00     0.103 A 
ATOM      7  O   UNL d   1      33.241  19.195 -21.336  0.00  0.00    -0.259 OA
ATOM      8  C   UNL d   1      32.521  22.391 -21.737  0.00  0.00     0.002 A 
ATOM      9  C   UNL d   1      32.723  21.775 -20.219  0.00  0.00     0.025 A 
ATOM     10  C   UNL d   1      32.443  22.880 -21.079  0.00  0.00     0.000 A 
ATOM     11  C   UNL d   1      32.543  22.572 -20.321  0.00  0.00     0.002 A 
ATOM     12  C   UNL d   1      32.263  23.677 -21.180  0.00  0.00     0.000 C 
ENDROOT
BRANCH   1  13
ATOM     13  C   UNL d   1      33.041  19.807 -22.855  0.00  0.00     0.216 C 
ATOM     14  O   UNL d   1      32.919  18.995 -22.778  0.00  0.00    -0.644 OA
ATOM     15  O   UNL d   1      33.241  20.126 -23.587  0.00  0.00    -0.644 OA
ENDBRANCH   1  13
TORSDOF 1
ENDMDL
MODEL 9
REMARK VINA RESULT:      -1.3      2.237      3.422
REMARK  1 active torsions:
REMARK  status: ('A' for Active; 'I' for Inactive)
REMARK    1  A    between atoms: C_6  and  C_1 
ROOT
ATOM      1  C   UNL d   1      32.364  17.087 -23.898  0.00  0.00     0.128 A 
ATOM      2  C   UNL d   1      32.666  17.129 -23.131  0.00  0.00     0.306 A 
ATOM      3  C   UNL d   1      32.355  17.766 -24.380  0.00  0.00     0.013 A 
ATOM      4  O   UNL d   1      32.959  17.851 -22.842  0.00  0.00    -0.273 OA
ATOM      5  C   UNL d   1      32.648  18.479 -24.086  0.00  0.00     0.023 A 
ATOM      6  C   UNL d   1      32.949  18.521 -23.319  0.00  0.00     0.103 A 
ATOM      7  O   UNL d   1      32.676  16.459 -22.654  0.00  0.00    -0.259 OA
ATOM      8  C   UNL d   1      32.638  19.151 -24.563  0.00  0.00     0.002 A 
ATOM      9  C   UNL d   1      33.241  19.235 -23.029  0.00  0.00     0.025 A 
ATOM     10  C   UNL d   1      32.929  19.863 -24.273  0.00  0.00     0.000 A 
ATOM     11  C   UNL d   1      33.231  19.906 -23.507  0.00  0.00     0.002 A 
ATOM     12  C   UNL d   1      32.920  20.535 -24.750  0.00  0.00     0.000 C 
ENDROOT
BRANCH   1  13
ATOM     13  C   UNL d   1      32.072  16.369 -24.187  0.00  0.00     0.216 C 
ATOM     14  O   UNL d   1      31.261  16.221 -24.174  0.00  0.00    -0.644 OA
ATOM     15  O   UNL d   1      32.590  15.804 -24.486  0.00  0.00    -0.644 OA
ENDBRANCH   1  13
TORSDOF 1
ENDMDL
