MODEL 1
REMARK VINA RESULT:      -5.2      0.000      0.000
REMARK  7 active torsions:
REMARK  status: ('A' for Active; 'I' for Inactive)
REMARK    1  A    between atoms: N_2  and  C_1 
REMARK       I    between atoms: C_6  and  N_2 
REMARK    2  A    between atoms: S_3  and  C_12 
REMARK    3  A    between atoms: C_28  and  N_4 
REMARK    4  A    between atoms: C_8  and  C_6 
REMARK    5  A    between atoms: C_15  and  C_11 
REMARK    6  A    between atoms: C_32  and  C_28 
REMARK    7  A    between atoms: O_31  and  C_32 
ROOT
ATOM      1  N   UNL d   1      51.818  33.475  53.448  0.00  0.00    -0.184 NA
ATOM      2  C   UNL d   1      52.214  32.895  53.019  0.00  0.00     0.281 C 
ATOM      3  O   UNL d   1      51.941  32.678  52.273  0.00  0.00    -0.265 OA
ENDROOT
BRANCH   1   4
ATOM      4  C   UNL d   1      51.149  33.834  53.124  0.00  0.00     0.182 A 
ATOM      5  N   UNL d   1      50.790  34.514  53.407  0.00  0.00    -0.283 N 
ATOM      6  C   UNL d   1      50.140  34.686  52.926  0.00  0.00     0.072 A 
ATOM      7  C   UNL d   1      49.583  35.293  52.944  0.00  0.00     0.019 A 
ATOM      8  C   UNL d   1      50.101  34.105  52.342  0.00  0.00     0.049 A 
ATOM      9  C   UNL d   1      48.986  35.317  52.377  0.00  0.00     0.015 A 
ATOM     10  C   UNL d   1      48.947  34.735  51.793  0.00  0.00     0.107 A 
ATOM     11  C   UNL d   1      49.504  34.130  51.776  0.00  0.00     0.021 A 
ATOM     12  S   UNL d   1      50.726  33.578  52.466  0.00  0.00    -0.048 SA
BRANCH   5  13
ATOM     13  C   UNL d   1      51.030  34.959  54.061  0.00  0.00     0.108 C 
BRANCH  13  14
ATOM     14  C   UNL d   1      51.679  35.462  54.008  0.00  0.00     0.135 C 
BRANCH  14  15
ATOM     15  O   UNL d   1      51.874  35.953  54.636  0.00  0.00    -0.325 OA
ATOM     16  C   UNL d   1      52.663  36.151  54.789  0.00  0.00     0.182 C 
ENDBRANCH  14  15
ENDBRANCH  13  14
ENDBRANCH   5  13
BRANCH  10  17
ATOM     17  S   UNL d   1      48.340  34.763  51.219  0.00  0.00     0.302 S 
ATOM     18  O   UNL d   1      47.889  35.183  51.763  0.00  0.00    -0.197 OA
ATOM     19  O   UNL d   1      48.797  34.339  50.672  0.00  0.00    -0.197 OA
ATOM     20  N   UNL d   1      47.726  34.805  50.672  0.00  0.00    -0.043 N 
ENDBRANCH  10  17
ENDBRANCH   1   4
BRANCH   2  21
ATOM     21  C   UNL d   1      52.884  32.531  53.336  0.00  0.00     0.061 A 
ATOM     22  C   UNL d   1      53.464  32.983  53.736  0.00  0.00     0.025 A 
ATOM     23  C   UNL d   1      54.133  32.619  54.053  0.00  0.00     0.087 A 
ATOM     24  N   UNL d   1      54.231  31.795  53.973  0.00  0.00    -0.245 NA
ATOM     25  C   UNL d   1      53.658  31.349  53.579  0.00  0.00     0.082 A 
ATOM     26  C   UNL d   1      52.988  31.713  53.262  0.00  0.00     0.022 A 
ATOM     27  C   UNL d   1      53.756  30.528  53.500  0.00  0.00     0.019 A 
ATOM     28  C   UNL d   1      52.411  31.268  52.865  0.00  0.00     0.002 A 
ATOM     29  C   UNL d   1      52.519  30.438  52.790  0.00  0.00     0.000 A 
ATOM     30  C   UNL d   1      53.188  30.074  53.107  0.00  0.00     0.002 A 
BRANCH  23  31
ATOM     31  C   UNL d   1      54.703  33.064  54.446  0.00  0.00     0.047 A 
ATOM     32  S   UNL d   1      55.337  33.388  54.028  0.00  0.00    -0.085 SA
ATOM     33  C   UNL d   1      55.818  33.802  54.554  0.00  0.00     0.035 A 
ATOM     34  C   UNL d   1      55.471  33.729  55.301  0.00  0.00     0.007 A 
ATOM     35  C   UNL d   1      54.786  33.277  55.239  0.00  0.00     0.009 A 
ENDBRANCH  23  31
ENDBRANCH   2  21
TORSDOF 7
ENDMDL
MODEL 2
REMARK VINA RESULT:      -4.7     10.530     11.453
REMARK  7 active torsions:
REMARK  status: ('A' for Active; 'I' for Inactive)
REMARK    1  A    between atoms: N_2  and  C_1 
REMARK       I    between atoms: C_6  and  N_2 
REMARK    2  A    between atoms: S_3  and  C_12 
REMARK    3  A    between atoms: C_28  and  N_4 
REMARK    4  A    between atoms: C_8  and  C_6 
REMARK    5  A    between atoms: C_15  and  C_11 
REMARK    6  A    between atoms: C_32  and  C_28 
REMARK    7  A    between atoms: O_31  and  C_32 
ROOT
ATOM      1  N   UNL d   1      44.488  30.095  60.382  0.00  0.00    -0.184 NA
ATOM      2  C   UNL d   1      44.404  30.665  60.969  0.00  0.00     0.281 C 
ATOM      3  O   UNL d   1      44.314  31.457  60.761  0.00  0.00    -0.265 OA
ENDROOT
BRANCH   1   4
ATOM      4  C   UNL d   1      44.480  30.323  59.589  0.00  0.00     0.182 A 
ATOM      5  N   UNL d   1      44.401  29.819  58.948  0.00  0.00    -0.283 N 
ATOM      6  C   UNL d   1      44.421  30.269  58.256  0.00  0.00     0.072 A 
ATOM      7  C   UNL d   1      44.367  30.064  57.460  0.00  0.00     0.019 A 
ATOM      8  C   UNL d   1      44.514  31.059  58.475  0.00  0.00     0.049 A 
ATOM      9  C   UNL d   1      44.407  30.650  56.883  0.00  0.00     0.015 A 
ATOM     10  C   UNL d   1      44.500  31.440  57.102  0.00  0.00     0.107 A 
ATOM     11  C   UNL d   1      44.553  31.644  57.897  0.00  0.00     0.021 A 
ATOM     12  S   UNL d   1      44.551  31.091  59.300  0.00  0.00    -0.048 SA
BRANCH   5  13
ATOM     13  C   UNL d   1      44.315  28.997  58.981  0.00  0.00     0.108 C 
BRANCH  13  14
ATOM     14  C   UNL d   1      44.960  28.504  58.845  0.00  0.00     0.135 C 
BRANCH  14  15
ATOM     15  O   UNL d   1      44.856  27.691  58.796  0.00  0.00    -0.325 OA
ATOM     16  C   UNL d   1      45.506  27.189  58.689  0.00  0.00     0.182 C 
ENDBRANCH  14  15
ENDBRANCH  13  14
ENDBRANCH   5  13
BRANCH  10  17
ATOM     17  S   UNL d   1      44.539  32.032  56.513  0.00  0.00     0.302 S 
ATOM     18  O   UNL d   1      44.462  32.588  57.114  0.00  0.00    -0.197 OA
ATOM     19  O   UNL d   1      44.617  31.469  55.910  0.00  0.00    -0.197 OA
ATOM     20  N   UNL d   1      44.576  32.635  55.954  0.00  0.00    -0.043 N 
ENDBRANCH  10  17
ENDBRANCH   1   4
BRANCH   2  21
ATOM     21  C   UNL d   1      44.411  30.444  61.764  0.00  0.00     0.061 A 
ATOM     22  C   UNL d   1      44.435  29.636  61.981  0.00  0.00     0.025 A 
ATOM     23  C   UNL d   1      44.441  29.416  62.776  0.00  0.00     0.087 A 
ATOM     24  N   UNL d   1      44.424  30.004  63.367  0.00  0.00    -0.245 NA
ATOM     25  C   UNL d   1      44.400  30.802  63.153  0.00  0.00     0.082 A 
ATOM     26  C   UNL d   1      44.394  31.022  62.358  0.00  0.00     0.022 A 
ATOM     27  C   UNL d   1      44.383  31.386  63.743  0.00  0.00     0.019 A 
ATOM     28  C   UNL d   1      44.370  31.823  62.139  0.00  0.00     0.002 A 
ATOM     29  C   UNL d   1      44.352  32.407  62.743  0.00  0.00     0.000 A 
ATOM     30  C   UNL d   1      44.359  32.187  63.537  0.00  0.00     0.002 A 
BRANCH  23  31
ATOM     31  C   UNL d   1      44.465  28.621  62.988  0.00  0.00     0.047 A 
ATOM     32  S   UNL d   1      44.489  28.405  63.783  0.00  0.00    -0.085 SA
ATOM     33  C   UNL d   1      44.509  27.582  63.836  0.00  0.00     0.035 A 
ATOM     34  C   UNL d   1      44.497  27.296  63.060  0.00  0.00     0.007 A 
ATOM     35  C   UNL d   1      44.470  27.930  62.536  0.00  0.00     0.009 A 
ENDBRANCH  23  31
ENDBRANCH   2  21
TORSDOF 7
ENDMDL
MODEL 3
REMARK VINA RESULT:      -3.8      1.712      5.734
REMARK  7 active torsions:
REMARK  status: ('A' for Active; 'I' for Inactive)
REMARK    1  A    between atoms: N_2  and  C_1 
REMARK       I    between atoms: C_6  and  N_2 
REMARK    2  A    between atoms: S_3  and  C_12 
REMARK    3  A    between atoms: C_28  and  N_4 
REMARK    4  A    between atoms: C_8  and  C_6 
REMARK    5  A    between atoms: C_15  and  C_11 
REMARK    6  A    between atoms: C_32  and  C_28 
REMARK    7  A    between atoms: O_31  and  C_32 
ROOT
ATOM      1  N   UNL d   1      51.028  33.909  53.439  0.00  0.00    -0.184 NA
ATOM      2  C   UNL d   1      50.850  34.671  53.184  0.00  0.00     0.281 C 
ATOM      3  O   UNL d   1      51.441  35.245  53.163  0.00  0.00    -0.265 OA
ENDROOT
BRANCH   1   4
ATOM      4  C   UNL d   1      51.799  33.728  53.672  0.00  0.00     0.182 A 
ATOM      5  N   UNL d   1      52.190  33.025  53.519  0.00  0.00    -0.283 N 
ATOM      6  C   UNL d   1      52.947  33.069  53.847  0.00  0.00     0.072 A 
ATOM      7  C   UNL d   1      53.575  32.536  53.866  0.00  0.00     0.019 A 
ATOM      8  C   UNL d   1      53.020  33.808  54.206  0.00  0.00     0.049 A 
ATOM      9  C   UNL d   1      54.276  32.744  54.244  0.00  0.00     0.015 A 
ATOM     10  C   UNL d   1      54.350  33.483  54.603  0.00  0.00     0.107 A 
ATOM     11  C   UNL d   1      53.722  34.015  54.583  0.00  0.00     0.021 A 
ATOM     12  S   UNL d   1      52.309  34.216  54.097  0.00  0.00    -0.048 SA
BRANCH   5  13
ATOM     13  C   UNL d   1      51.886  32.376  53.107  0.00  0.00     0.108 C 
BRANCH  13  14
ATOM     14  C   UNL d   1      51.798  31.648  53.481  0.00  0.00     0.135 C 
BRANCH  14  15
ATOM     15  O   UNL d   1      51.716  30.962  53.038  0.00  0.00    -0.325 OA
ATOM     16  C   UNL d   1      51.723  30.219  53.404  0.00  0.00     0.182 C 
ENDBRANCH  14  15
ENDBRANCH  13  14
ENDBRANCH   5  13
BRANCH  10  17
ATOM     17  S   UNL d   1      55.063  33.690  54.985  0.00  0.00     0.302 S 
ATOM     18  O   UNL d   1      55.365  33.884  54.246  0.00  0.00    -0.197 OA
ATOM     19  O   UNL d   1      54.756  33.493  55.730  0.00  0.00    -0.197 OA
ATOM     20  N   UNL d   1      55.777  33.901  55.338  0.00  0.00    -0.043 N 
ENDBRANCH  10  17
ENDBRANCH   1   4
BRANCH   2  21
ATOM     21  C   UNL d   1      50.082  34.860  52.949  0.00  0.00     0.061 A 
ATOM     22  C   UNL d   1      49.563  35.258  53.472  0.00  0.00     0.025 A 
ATOM     23  C   UNL d   1      48.795  35.446  53.237  0.00  0.00     0.087 A 
ATOM     24  N   UNL d   1      48.535  35.238  52.472  0.00  0.00    -0.245 NA
ATOM     25  C   UNL d   1      49.048  34.846  51.956  0.00  0.00     0.082 A 
ATOM     26  C   UNL d   1      49.816  34.657  52.191  0.00  0.00     0.022 A 
ATOM     27  C   UNL d   1      48.787  34.639  51.195  0.00  0.00     0.019 A 
ATOM     28  C   UNL d   1      50.333  34.263  51.675  0.00  0.00     0.002 A 
ATOM     29  C   UNL d   1      50.061  34.058  50.907  0.00  0.00     0.000 A 
ATOM     30  C   UNL d   1      49.293  34.246  50.672  0.00  0.00     0.002 A 
BRANCH  23  31
ATOM     31  C   UNL d   1      48.286  35.837  53.751  0.00  0.00     0.047 A 
ATOM     32  S   UNL d   1      47.491  35.622  53.791  0.00  0.00    -0.085 SA
ATOM     33  C   UNL d   1      47.112  36.099  54.347  0.00  0.00     0.035 A 
ATOM     34  C   UNL d   1      47.687  36.612  54.648  0.00  0.00     0.007 A 
ATOM     35  C   UNL d   1      48.409  36.455  54.285  0.00  0.00     0.009 A 
ENDBRANCH  23  31
ENDBRANCH   2  21
TORSDOF 7
ENDMDL
MODEL 4
REMARK VINA RESULT:      -3.6      1.034      2.108
REMARK  7 active torsions:
REMARK  status: ('A' for Active; 'I' for Inactive)
REMARK    1  A    between atoms: N_2  and  C_1 
REMARK       I    between atoms: C_6  and  N_2 
REMARK    2  A    between atoms: S_3  and  C_12 
REMARK    3  A    between atoms: C_28  and  N_4 
REMARK    4  A    between atoms: C_8  and  C_6 
REMARK    5  A    between atoms: C_15  and  C_11 
REMARK    6  A    between atoms: C_32  and  C_28 
REMARK    7  A    between atoms: O_31  and  C_32 
ROOT
ATOM      1  N   UNL d   1      51.828  33.068  53.426  0.00  0.00    -0.184 NA
ATOM      2  C   UNL d   1      52.316  32.650  52.912  0.00  0.00     0.281 C 
ATOM      3  O   UNL d   1      52.183  32.687  52.100  0.00  0.00    -0.265 OA
ENDROOT
BRANCH   1   4
ATOM      4  C   UNL d   1      51.209  33.520  53.122  0.00  0.00     0.182 A 
ATOM      5  N   UNL d   1      50.936  34.227  53.435  0.00  0.00    -0.283 N 
ATOM      6  C   UNL d   1      50.313  34.498  52.966  0.00  0.00     0.072 A 
ATOM      7  C   UNL d   1      49.835  35.168  53.012  0.00  0.00     0.019 A 
ATOM      8  C   UNL d   1      50.201  33.952  52.358  0.00  0.00     0.049 A 
ATOM      9  C   UNL d   1      49.246  35.289  52.450  0.00  0.00     0.015 A 
ATOM     10  C   UNL d   1      49.134  34.742  51.843  0.00  0.00     0.107 A 
ATOM     11  C   UNL d   1      49.612  34.074  51.797  0.00  0.00     0.021 A 
ATOM     12  S   UNL d   1      50.757  33.346  52.456  0.00  0.00    -0.048 SA
BRANCH   5  13
ATOM     13  C   UNL d   1      51.230  34.611  54.105  0.00  0.00     0.108 C 
BRANCH  13  14
ATOM     14  C   UNL d   1      51.762  35.234  54.030  0.00  0.00     0.135 C 
BRANCH  14  15
ATOM     15  O   UNL d   1      52.022  35.639  54.695  0.00  0.00    -0.325 OA
ATOM     16  C   UNL d   1      52.791  35.945  54.730  0.00  0.00     0.182 C 
ENDBRANCH  14  15
ENDBRANCH  13  14
ENDBRANCH   5  13
BRANCH  10  17
ATOM     17  S   UNL d   1      48.535  34.869  51.274  0.00  0.00     0.302 S 
ATOM     18  O   UNL d   1      48.084  35.207  51.872  0.00  0.00    -0.197 OA
ATOM     19  O   UNL d   1      48.992  34.528  50.672  0.00  0.00    -0.197 OA
ATOM     20  N   UNL d   1      47.928  35.006  50.734  0.00  0.00    -0.043 N 
ENDBRANCH  10  17
ENDBRANCH   1   4
BRANCH   2  21
ATOM     21  C   UNL d   1      52.937  32.195  53.209  0.00  0.00     0.061 A 
ATOM     22  C   UNL d   1      52.806  31.406  53.456  0.00  0.00     0.025 A 
ATOM     23  C   UNL d   1      53.427  30.952  53.753  0.00  0.00     0.087 A 
ATOM     24  N   UNL d   1      54.191  31.282  53.807  0.00  0.00    -0.245 NA
ATOM     25  C   UNL d   1      54.320  32.062  53.563  0.00  0.00     0.082 A 
ATOM     26  C   UNL d   1      53.699  32.516  53.266  0.00  0.00     0.022 A 
ATOM     27  C   UNL d   1      55.081  32.389  53.617  0.00  0.00     0.019 A 
ATOM     28  C   UNL d   1      53.825  33.299  53.020  0.00  0.00     0.002 A 
ATOM     29  C   UNL d   1      54.598  33.622  53.078  0.00  0.00     0.000 A 
ATOM     30  C   UNL d   1      55.220  33.168  53.375  0.00  0.00     0.002 A 
BRANCH  23  31
ATOM     31  C   UNL d   1      53.298  30.176  53.995  0.00  0.00     0.047 A 
ATOM     32  S   UNL d   1      53.091  29.599  53.444  0.00  0.00    -0.085 SA
ATOM     33  C   UNL d   1      52.995  28.878  53.835  0.00  0.00     0.035 A 
ATOM     34  C   UNL d   1      53.147  29.022  54.635  0.00  0.00     0.007 A 
ATOM     35  C   UNL d   1      53.333  29.818  54.738  0.00  0.00     0.009 A 
ENDBRANCH  23  31
ENDBRANCH   2  21
TORSDOF 7
ENDMDL
MODEL 5
REMARK VINA RESULT:      -3.1     11.039     12.235
REMARK  7 active torsions:
REMARK  status: ('A' for Active; 'I' for Inactive)
REMARK    1  A    between atoms: N_2  and  C_1 
REMARK       I    between atoms: C_6  and  N_2 
REMARK    2  A    between atoms: S_3  and  C_12 
REMARK    3  A    between atoms: C_28  and  N_4 
REMARK    4  A    between atoms: C_8  and  C_6 
REMARK    5  A    between atoms: C_15  and  C_11 
REMARK    6  A    between atoms: C_32  and  C_28 
REMARK    7  A    between atoms: O_31  and  C_32 
ROOT
ATOM      1  N   UNL d   1      45.041  25.518  57.634  0.00  0.00    -0.184 NA
ATOM      2  C   UNL d   1      44.742  24.768  57.792  0.00  0.00     0.281 C 
ATOM      3  O   UNL d   1      44.315  24.635  58.484  0.00  0.00    -0.265 OA
ENDROOT
BRANCH   1   4
ATOM      4  C   UNL d   1      44.911  26.130  58.172  0.00  0.00     0.182 A 
ATOM      5  N   UNL d   1      44.610  26.870  57.990  0.00  0.00    -0.283 N 
ATOM      6  C   UNL d   1      44.568  27.314  58.684  0.00  0.00     0.072 A 
ATOM      7  C   UNL d   1      44.314  28.084  58.836  0.00  0.00     0.019 A 
ATOM      8  C   UNL d   1      44.847  26.842  59.300  0.00  0.00     0.049 A 
ATOM      9  C   UNL d   1      44.339  28.379  59.603  0.00  0.00     0.015 A 
ATOM     10  C   UNL d   1      44.617  27.906  60.220  0.00  0.00     0.107 A 
ATOM     11  C   UNL d   1      44.871  27.139  60.068  0.00  0.00     0.021 A 
ATOM     12  S   UNL d   1      45.059  26.109  58.982  0.00  0.00    -0.048 SA
BRANCH   5  13
ATOM     13  C   UNL d   1      44.385  27.134  57.240  0.00  0.00     0.108 C 
BRANCH  13  14
ATOM     14  C   UNL d   1      44.876  27.634  56.808  0.00  0.00     0.135 C 
BRANCH  14  15
ATOM     15  O   UNL d   1      44.598  28.004  56.130  0.00  0.00    -0.325 OA
ATOM     16  C   UNL d   1      44.905  28.735  55.891  0.00  0.00     0.182 C 
ENDBRANCH  14  15
ENDBRANCH  13  14
ENDBRANCH   5  13
BRANCH  10  17
ATOM     17  S   UNL d   1      44.641  28.210  60.998  0.00  0.00     0.302 S 
ATOM     18  O   UNL d   1      44.329  27.493  61.252  0.00  0.00    -0.197 OA
ATOM     19  O   UNL d   1      44.956  28.932  60.739  0.00  0.00    -0.197 OA
ATOM     20  N   UNL d   1      44.654  28.484  61.775  0.00  0.00    -0.043 N 
ENDBRANCH  10  17
ENDBRANCH   1   4
BRANCH   2  21
ATOM     21  C   UNL d   1      44.868  24.152  57.258  0.00  0.00     0.061 A 
ATOM     22  C   UNL d   1      44.737  24.265  56.440  0.00  0.00     0.025 A 
ATOM     23  C   UNL d   1      44.863  23.648  55.906  0.00  0.00     0.087 A 
ATOM     24  N   UNL d   1      45.122  22.907  56.187  0.00  0.00    -0.245 NA
ATOM     25  C   UNL d   1      45.251  22.795  56.996  0.00  0.00     0.082 A 
ATOM     26  C   UNL d   1      45.125  23.412  57.529  0.00  0.00     0.022 A 
ATOM     27  C   UNL d   1      45.509  22.057  57.273  0.00  0.00     0.019 A 
ATOM     28  C   UNL d   1      45.253  23.303  58.342  0.00  0.00     0.002 A 
ATOM     29  C   UNL d   1      45.514  22.553  58.614  0.00  0.00     0.000 A 
ATOM     30  C   UNL d   1      45.640  21.936  58.081  0.00  0.00     0.002 A 
BRANCH  23  31
ATOM     31  C   UNL d   1      44.735  23.760  55.101  0.00  0.00     0.047 A 
ATOM     32  S   UNL d   1      44.688  23.111  54.594  0.00  0.00    -0.085 SA
ATOM     33  C   UNL d   1      44.557  23.381  53.826  0.00  0.00     0.035 A 
ATOM     34  C   UNL d   1      44.525  24.206  53.868  0.00  0.00     0.007 A 
ATOM     35  C   UNL d   1      44.633  24.443  54.649  0.00  0.00     0.009 A 
ENDBRANCH  23  31
ENDBRANCH   2  21
TORSDOF 7
ENDMDL
MODEL 6
REMARK VINA RESULT:      -2.3     11.895     12.674
REMARK  7 active torsions:
REMARK  status: ('A' for Active; 'I' for Inactive)
REMARK    1  A    between atoms: N_2  and  C_1 
REMARK       I    between atoms: C_6  and  N_2 
REMARK    2  A    between atoms: S_3  and  C_12 
REMARK    3  A    between atoms: C_28  and  N_4 
REMARK    4  A    between atoms: C_8  and  C_6 
REMARK    5  A    between atoms: C_15  and  C_11 
REMARK    6  A    between atoms: C_32  and  C_28 
REMARK    7  A    between atoms: O_31  and  C_32 
ROOT
ATOM      1  N   UNL d   1      44.543  29.113  61.783  0.00  0.00    -0.184 NA
ATOM      2  C   UNL d   1      44.460  29.685  62.369  0.00  0.00     0.281 C 
ATOM      3  O   UNL d   1      44.412  30.481  62.160  0.00  0.00    -0.265 OA
ENDROOT
BRANCH   1   4
ATOM      4  C   UNL d   1      44.577  29.343  60.992  0.00  0.00     0.182 A 
ATOM      5  N   UNL d   1      44.472  28.848  60.347  0.00  0.00    -0.283 N 
ATOM      6  C   UNL d   1      44.550  29.296  59.658  0.00  0.00     0.072 A 
ATOM      7  C   UNL d   1      44.500  29.098  58.859  0.00  0.00     0.019 A 
ATOM      8  C   UNL d   1      44.704  30.074  59.882  0.00  0.00     0.049 A 
ATOM      9  C   UNL d   1      44.605  29.679  58.286  0.00  0.00     0.015 A 
ATOM     10  C   UNL d   1      44.760  30.458  58.510  0.00  0.00     0.107 A 
ATOM     11  C   UNL d   1      44.810  30.655  59.307  0.00  0.00     0.021 A 
ATOM     12  S   UNL d   1      44.721  30.102  60.708  0.00  0.00    -0.048 SA
BRANCH   5  13
ATOM     13  C   UNL d   1      44.314  28.037  60.373  0.00  0.00     0.108 C 
BRANCH  13  14
ATOM     14  C   UNL d   1      44.775  27.508  59.944  0.00  0.00     0.135 C 
BRANCH  14  15
ATOM     15  O   UNL d   1      44.798  26.714  60.152  0.00  0.00    -0.325 OA
ATOM     16  C   UNL d   1      44.363  26.153  59.725  0.00  0.00     0.182 C 
ENDBRANCH  14  15
ENDBRANCH  13  14
ENDBRANCH   5  13
BRANCH  10  17
ATOM     17  S   UNL d   1      44.867  31.046  57.926  0.00  0.00     0.302 S 
ATOM     18  O   UNL d   1      44.967  30.439  57.381  0.00  0.00    -0.197 OA
ATOM     19  O   UNL d   1      44.765  31.656  58.478  0.00  0.00    -0.197 OA
ATOM     20  N   UNL d   1      44.975  31.605  57.331  0.00  0.00    -0.043 N 
ENDBRANCH  10  17
ENDBRANCH   1   4
BRANCH   2  21
ATOM     21  C   UNL d   1      44.426  29.464  63.163  0.00  0.00     0.061 A 
ATOM     22  C   UNL d   1      44.416  28.655  63.378  0.00  0.00     0.025 A 
ATOM     23  C   UNL d   1      44.382  28.433  64.172  0.00  0.00     0.087 A 
ATOM     24  N   UNL d   1      44.356  29.020  64.763  0.00  0.00    -0.245 NA
ATOM     25  C   UNL d   1      44.366  29.819  64.550  0.00  0.00     0.082 A 
ATOM     26  C   UNL d   1      44.401  30.041  63.756  0.00  0.00     0.022 A 
ATOM     27  C   UNL d   1      44.341  30.403  65.141  0.00  0.00     0.019 A 
ATOM     28  C   UNL d   1      44.410  30.842  63.539  0.00  0.00     0.002 A 
ATOM     29  C   UNL d   1      44.385  31.426  64.143  0.00  0.00     0.000 A 
ATOM     30  C   UNL d   1      44.350  31.204  64.937  0.00  0.00     0.002 A 
BRANCH  23  31
ATOM     31  C   UNL d   1      44.372  27.638  64.382  0.00  0.00     0.047 A 
ATOM     32  S   UNL d   1      44.424  27.418  65.176  0.00  0.00    -0.085 SA
ATOM     33  C   UNL d   1      44.401  26.595  65.228  0.00  0.00     0.035 A 
ATOM     34  C   UNL d   1      44.335  26.312  64.454  0.00  0.00     0.007 A 
ATOM     35  C   UNL d   1      44.317  26.948  63.932  0.00  0.00     0.009 A 
ENDBRANCH  23  31
ENDBRANCH   2  21
TORSDOF 7
ENDMDL
