MODEL 1
REMARK VINA RESULT:      33.7      0.000      0.000
REMARK  6 active torsions:
REMARK  status: ('A' for Active; 'I' for Inactive)
REMARK    1  A    between atoms: C_5  and  N_1 
REMARK    2  A    between atoms: C_7  and  C_3 
REMARK    3  A    between atoms: C_12  and  C_4 
REMARK    4  A    between atoms: N_14  and  C_5 
REMARK    5  A    between atoms: O_16  and  C_9 
REMARK    6  A    between atoms: O_17  and  C_11 
ROOT
ATOM      1  N   UNL d   1      14.631  13.045  -1.109  0.00  0.00    -0.203 N 
ATOM      2  N   UNL d   1      14.985  13.645  -0.663  0.00  0.00    -0.163 NA
ATOM      3  C   UNL d   1      14.368  13.384  -1.809  0.00  0.00     0.087 A 
ATOM      4  C   UNL d   1      14.940  14.335  -1.077  0.00  0.00     0.103 A 
ATOM      5  C   UNL d   1      14.561  14.181  -1.783  0.00  0.00     0.040 A 
ENDROOT
BRANCH   3   6
ATOM      6  C   UNL d   1      13.976  13.002  -2.435  0.00  0.00     0.020 A 
ATOM      7  C   UNL d   1      13.700  13.408  -3.080  0.00  0.00     0.028 A 
ATOM      8  C   UNL d   1      13.316  13.028  -3.694  0.00  0.00     0.116 A 
ATOM      9  C   UNL d   1      13.206  12.227  -3.659  0.00  0.00     0.116 A 
ATOM     10  C   UNL d   1      13.480  11.797  -3.011  0.00  0.00     0.026 A 
ATOM     11  C   UNL d   1      13.864  12.177  -2.397  0.00  0.00     0.004 A 
BRANCH   8  12
ATOM     12  O   UNL d   1      13.032  13.440  -4.357  0.00  0.00    -0.326 OA
ATOM     13  C   UNL d   1      13.322  14.197  -4.532  0.00  0.00     0.181 C 
ENDBRANCH   8  12
BRANCH   9  14
ATOM     14  O   UNL d   1      12.812  11.826  -4.283  0.00  0.00    -0.326 OA
ATOM     15  C   UNL d   1      13.082  11.865  -5.057  0.00  0.00     0.181 C 
ENDBRANCH   9  14
ENDBRANCH   3   6
BRANCH   1  16
ATOM     16  C   UNL d   1      14.562  12.248  -0.879  0.00  0.00     0.222 C 
ATOM     17  S   UNL d   1      15.239  11.779  -0.732  0.00  0.00    -0.037 SA
BRANCH  16  18
ATOM     18  N   UNL d   1      13.801  11.893  -0.789  0.00  0.00    -0.214 NA
ATOM     19  C   UNL d   1      13.436  11.904  -0.033  0.00  0.00     0.122 C 
ENDBRANCH  16  18
ENDBRANCH   1  16
BRANCH   4  20
ATOM     20  C   UNL d   1      15.243  15.055  -0.790  0.00  0.00     0.019 A 
ATOM     21  C   UNL d   1      14.887  15.759  -0.995  0.00  0.00     0.002 A 
ATOM     22  C   UNL d   1      15.178  16.494  -0.715  0.00  0.00     0.000 A 
ATOM     23  C   UNL d   1      15.851  16.495  -0.216  0.00  0.00     0.000 A 
ATOM     24  C   UNL d   1      16.206  15.761  -0.014  0.00  0.00     0.000 A 
ATOM     25  C   UNL d   1      15.909  15.054  -0.295  0.00  0.00     0.002 A 
ENDBRANCH   4  20
TORSDOF 6
ENDMDL
MODEL 2
REMARK VINA RESULT:      35.4      2.379      3.484
REMARK  6 active torsions:
REMARK  status: ('A' for Active; 'I' for Inactive)
REMARK    1  A    between atoms: C_5  and  N_1 
REMARK    2  A    between atoms: C_7  and  C_3 
REMARK    3  A    between atoms: C_12  and  C_4 
REMARK    4  A    between atoms: N_14  and  C_5 
REMARK    5  A    between atoms: O_16  and  C_9 
REMARK    6  A    between atoms: O_17  and  C_11 
ROOT
ATOM      1  N   UNL d   1      13.674  12.549  -3.645  0.00  0.00    -0.203 N 
ATOM      2  N   UNL d   1      13.861  12.096  -2.979  0.00  0.00    -0.163 NA
ATOM      3  C   UNL d   1      13.724  13.338  -3.426  0.00  0.00     0.087 A 
ATOM      4  C   UNL d   1      14.022  12.593  -2.366  0.00  0.00     0.103 A 
ATOM      5  C   UNL d   1      13.939  13.360  -2.634  0.00  0.00     0.040 A 
ENDROOT
BRANCH   3   6
ATOM      6  C   UNL d   1      13.585  14.003  -3.906  0.00  0.00     0.020 A 
ATOM      7  C   UNL d   1      13.948  14.715  -3.769  0.00  0.00     0.028 A 
ATOM      8  C   UNL d   1      13.808  15.365  -4.244  0.00  0.00     0.116 A 
ATOM      9  C   UNL d   1      13.295  15.300  -4.868  0.00  0.00     0.116 A 
ATOM     10  C   UNL d   1      12.917  14.584  -5.022  0.00  0.00     0.026 A 
ATOM     11  C   UNL d   1      13.057  13.934  -4.546  0.00  0.00     0.004 A 
BRANCH   8  12
ATOM     12  O   UNL d   1      14.177  16.097  -4.108  0.00  0.00    -0.326 OA
ATOM     13  C   UNL d   1      14.936  16.125  -3.774  0.00  0.00     0.181 C 
ENDBRANCH   8  12
BRANCH   9  14
ATOM     14  O   UNL d   1      13.143  15.962  -5.362  0.00  0.00    -0.326 OA
ATOM     15  C   UNL d   1      13.492  16.034  -6.103  0.00  0.00     0.181 C 
ENDBRANCH   9  14
ENDBRANCH   3   6
BRANCH   1  16
ATOM     16  C   UNL d   1      13.474  12.248  -4.395  0.00  0.00     0.222 C 
ATOM     17  S   UNL d   1      12.769  11.814  -4.513  0.00  0.00    -0.037 SA
BRANCH  16  18
ATOM     18  N   UNL d   1      13.983  12.375  -5.057  0.00  0.00    -0.214 NA
ATOM     19  C   UNL d   1      13.951  11.837  -5.701  0.00  0.00     0.122 C 
ENDBRANCH  16  18
ENDBRANCH   1  16
BRANCH   4  20
ATOM     20  C   UNL d   1      14.232  12.323  -1.607  0.00  0.00     0.019 A 
ATOM     21  C   UNL d   1      13.655  12.174  -1.051  0.00  0.00     0.002 A 
ATOM     22  C   UNL d   1      13.848  11.902  -0.283  0.00  0.00     0.000 A 
ATOM     23  C   UNL d   1      14.654  11.781  -0.090  0.00  0.00     0.000 A 
ATOM     24  C   UNL d   1      15.236  11.939  -0.674  0.00  0.00     0.000 A 
ATOM     25  C   UNL d   1      15.031  12.204  -1.418  0.00  0.00     0.002 A 
ENDBRANCH   4  20
TORSDOF 6
ENDMDL
