MODEL 1
REMARK VINA RESULT:      -4.4      0.000      0.000
REMARK  6 active torsions:
REMARK  status: ('A' for Active; 'I' for Inactive)
REMARK    1  A    between atoms: C_3  and  N_1 
REMARK       I    between atoms: C_2  and  N_5 
REMARK       I    between atoms: N_10  and  C_2 
REMARK    2  A    between atoms: N_5  and  C_8 
REMARK    3  A    between atoms: C_17  and  N_10 
REMARK    4  A    between atoms: O_18  and  C_11 
REMARK    5  A    between atoms: C_12  and  C_22 
REMARK    6  A    between atoms: C_22  and  C_17 
ROOT
ATOM      1  C   UNL d   1      56.936   0.097  31.828  0.00  0.00     0.369 C 
ATOM      2  N   UNL d   1      56.587   0.681  32.299  0.00  0.00    -0.191 NA
ATOM      3  O   UNL d   1      56.847  -0.700  32.033  0.00  0.00    -0.242 OA
ATOM      4  N   UNL d   1      57.364   0.308  31.170  0.00  0.00    -0.189 NA
ENDROOT
BRANCH   2   5
ATOM      5  C   UNL d   1      56.152   0.470  32.968  0.00  0.00     0.088 A 
ATOM      6  C   UNL d   1      56.440   0.636  33.717  0.00  0.00     0.043 A 
ATOM      7  C   UNL d   1      56.015   0.429  34.381  0.00  0.00     0.128 A 
ATOM      8  C   UNL d   1      55.286   0.047  34.302  0.00  0.00     0.024 A 
ATOM      9  C   UNL d   1      54.992  -0.123  33.549  0.00  0.00     0.003 A 
ATOM     10  C   UNL d   1      55.426   0.089  32.881  0.00  0.00     0.019 A 
BRANCH   7  11
ATOM     11  N   UNL d   1      56.306   0.598  35.137  0.00  0.00    -0.114 N 
ATOM     12  O   UNL d   1      57.114   0.681  35.258  0.00  0.00    -0.532 OA
ATOM     13  O   UNL d   1      55.785   0.682  35.763  0.00  0.00    -0.532 OA
ENDBRANCH   7  11
ENDBRANCH   2   5
BRANCH   4  14
ATOM     14  C   UNL d   1      57.713  -0.276  30.700  0.00  0.00     0.104 C 
BRANCH  14  15
ATOM     15  C   UNL d   1      58.050  -0.077  29.973  0.00  0.00     0.021 C 
BRANCH  15  16
ATOM     16  C   UNL d   1      58.640  -0.547  29.653  0.00  0.00     0.002 A 
ATOM     17  C   UNL d   1      58.445  -1.253  29.284  0.00  0.00     0.002 A 
ATOM     18  C   UNL d   1      59.040  -1.730  28.960  0.00  0.00     0.024 A 
ATOM     19  C   UNL d   1      59.821  -1.490  29.011  0.00  0.00     0.094 A 
ATOM     20  C   UNL d   1      60.016  -0.787  29.379  0.00  0.00     0.024 A 
ATOM     21  C   UNL d   1      59.422  -0.310  29.703  0.00  0.00     0.002 A 
BRANCH  19  22
ATOM     22  O   UNL d   1      60.415  -1.962  28.689  0.00  0.00    -0.328 OA
ATOM     23  C   UNL d   1      60.457  -2.762  28.887  0.00  0.00     0.181 C 
ENDBRANCH  19  22
ENDBRANCH  15  16
ENDBRANCH  14  15
ENDBRANCH   4  14
TORSDOF 6
ENDMDL
MODEL 2
REMARK VINA RESULT:      -2.0      1.645      5.761
REMARK  6 active torsions:
REMARK  status: ('A' for Active; 'I' for Inactive)
REMARK    1  A    between atoms: C_3  and  N_1 
REMARK       I    between atoms: C_2  and  N_5 
REMARK       I    between atoms: N_10  and  C_2 
REMARK    2  A    between atoms: N_5  and  C_8 
REMARK    3  A    between atoms: C_17  and  N_10 
REMARK    4  A    between atoms: O_18  and  C_11 
REMARK    5  A    between atoms: C_12  and  C_22 
REMARK    6  A    between atoms: C_22  and  C_17 
ROOT
ATOM      1  C   UNL d   1      58.294  -0.264  30.043  0.00  0.00     0.369 C 
ATOM      2  N   UNL d   1      58.340  -0.517  29.255  0.00  0.00    -0.191 NA
ATOM      3  O   UNL d   1      58.921  -0.423  30.559  0.00  0.00    -0.242 OA
ATOM      4  N   UNL d   1      57.636   0.136  30.304  0.00  0.00    -0.189 NA
ENDROOT
BRANCH   2   5
ATOM      5  C   UNL d   1      59.006  -0.923  28.988  0.00  0.00     0.088 A 
ATOM      6  C   UNL d   1      59.015  -1.743  28.986  0.00  0.00     0.043 A 
ATOM      7  C   UNL d   1      59.671  -2.149  28.723  0.00  0.00     0.128 A 
ATOM      8  C   UNL d   1      60.335  -1.735  28.456  0.00  0.00     0.024 A 
ATOM      9  C   UNL d   1      60.330  -0.909  28.457  0.00  0.00     0.003 A 
ATOM     10  C   UNL d   1      59.664  -0.502  28.724  0.00  0.00     0.019 A 
BRANCH   7  11
ATOM     11  N   UNL d   1      59.680  -2.977  28.721  0.00  0.00    -0.114 N 
ATOM     12  O   UNL d   1      59.002  -3.397  28.915  0.00  0.00    -0.532 OA
ATOM     13  O   UNL d   1      60.368  -3.375  28.523  0.00  0.00    -0.532 OA
ENDBRANCH   7  11
ENDBRANCH   2   5
BRANCH   4  14
ATOM     14  C   UNL d   1      57.591   0.388  31.090  0.00  0.00     0.104 C 
BRANCH  14  15
ATOM     15  C   UNL d   1      56.880   0.677  31.394  0.00  0.00     0.021 C 
BRANCH  15  16
ATOM     16  C   UNL d   1      56.531   0.310  32.037  0.00  0.00     0.002 A 
ATOM     17  C   UNL d   1      55.895   0.666  32.415  0.00  0.00     0.002 A 
ATOM     18  C   UNL d   1      55.539   0.297  33.066  0.00  0.00     0.024 A 
ATOM     19  C   UNL d   1      55.828  -0.424  33.327  0.00  0.00     0.094 A 
ATOM     20  C   UNL d   1      56.461  -0.778  32.951  0.00  0.00     0.024 A 
ATOM     21  C   UNL d   1      56.816  -0.410  32.301  0.00  0.00     0.002 A 
BRANCH  19  22
ATOM     22  O   UNL d   1      55.476  -0.793  33.975  0.00  0.00    -0.328 OA
ATOM     23  C   UNL d   1      54.841  -1.306  33.860  0.00  0.00     0.181 C 
ENDBRANCH  19  22
ENDBRANCH  15  16
ENDBRANCH  14  15
ENDBRANCH   4  14
TORSDOF 6
ENDMDL
MODEL 3
REMARK VINA RESULT:      -1.9      9.322     10.511
REMARK  6 active torsions:
REMARK  status: ('A' for Active; 'I' for Inactive)
REMARK    1  A    between atoms: C_3  and  N_1 
REMARK       I    between atoms: C_2  and  N_5 
REMARK       I    between atoms: N_10  and  C_2 
REMARK    2  A    between atoms: N_5  and  C_8 
REMARK    3  A    between atoms: C_17  and  N_10 
REMARK    4  A    between atoms: O_18  and  C_11 
REMARK    5  A    between atoms: C_12  and  C_22 
REMARK    6  A    between atoms: C_22  and  C_17 
ROOT
ATOM      1  C   UNL d   1      58.387  -9.770  32.335  0.00  0.00     0.369 C 
ATOM      2  N   UNL d   1      57.712  -9.744  31.856  0.00  0.00    -0.191 NA
ATOM      3  O   UNL d   1      59.135  -9.814  31.983  0.00  0.00    -0.242 OA
ATOM      4  N   UNL d   1      58.313  -9.754  33.144  0.00  0.00    -0.189 NA
ENDROOT
BRANCH   2   5
ATOM      5  C   UNL d   1      57.786  -9.760  31.035  0.00  0.00     0.088 A 
ATOM      6  C   UNL d   1      57.117  -9.766  30.561  0.00  0.00     0.043 A 
ATOM      7  C   UNL d   1      57.184  -9.782  29.749  0.00  0.00     0.128 A 
ATOM      8  C   UNL d   1      57.932  -9.794  29.396  0.00  0.00     0.024 A 
ATOM      9  C   UNL d   1      58.608  -9.789  29.869  0.00  0.00     0.003 A 
ATOM     10  C   UNL d   1      58.535  -9.772  30.691  0.00  0.00     0.019 A 
BRANCH   7  11
ATOM     11  N   UNL d   1      56.508  -9.788  29.271  0.00  0.00    -0.114 N 
ATOM     12  O   UNL d   1      55.762  -9.814  29.612  0.00  0.00    -0.532 OA
ATOM     13  O   UNL d   1      56.588  -9.766  28.456  0.00  0.00    -0.532 OA
ENDBRANCH   7  11
ENDBRANCH   2   5
BRANCH   4  14
ATOM     14  C   UNL d   1      58.988  -9.781  33.622  0.00  0.00     0.104 C 
BRANCH  14  15
ATOM     15  C   UNL d   1      58.917  -9.736  34.443  0.00  0.00     0.021 C 
BRANCH  15  16
ATOM     16  C   UNL d   1      59.439  -9.276  34.874  0.00  0.00     0.002 A 
ATOM     17  C   UNL d   1      60.026  -8.852  34.487  0.00  0.00     0.002 A 
ATOM     18  C   UNL d   1      60.555  -8.385  34.922  0.00  0.00     0.024 A 
ATOM     19  C   UNL d   1      60.487  -8.352  35.737  0.00  0.00     0.094 A 
ATOM     20  C   UNL d   1      59.903  -8.774  36.122  0.00  0.00     0.024 A 
ATOM     21  C   UNL d   1      59.374  -9.240  35.689  0.00  0.00     0.002 A 
BRANCH  19  22
ATOM     22  O   UNL d   1      61.012  -7.889  36.172  0.00  0.00    -0.328 OA
ATOM     23  C   UNL d   1      60.850  -7.090  36.296  0.00  0.00     0.181 C 
ENDBRANCH  19  22
ENDBRANCH  15  16
ENDBRANCH  14  15
ENDBRANCH   4  14
TORSDOF 6
ENDMDL
