MODEL 1
REMARK VINA RESULT:      -7.4      0.000      0.000
REMARK  5 active torsions:
REMARK  status: ('A' for Active; 'I' for Inactive)
REMARK    1  A    between atoms: N_8  and  C_2 
REMARK    2  A    between atoms: C_6  and  C_5 
REMARK    3  A    between atoms: C_7  and  C_6 
REMARK       I    between atoms: N_9  and  C_7 
REMARK    4  A    between atoms: C_18  and  N_9 
REMARK    5  A    between atoms: C_11  and  C_12 
ROOT
ATOM      1  C   UNL d   1      52.916  32.196  53.051  0.00  0.00     0.280 C 
ATOM      2  N   UNL d   1      52.887  31.443  52.700  0.00  0.00    -0.208 NA
ATOM      3  O   UNL d   1      53.057  32.270  53.856  0.00  0.00    -0.265 OA
ENDROOT
BRANCH   1   4
ATOM      4  C   UNL d   1      52.803  32.861  52.585  0.00  0.00     0.074 C 
BRANCH   4   5
ATOM      5  C   UNL d   1      52.442  33.532  52.901  0.00  0.00     0.093 A 
ATOM      6  C   UNL d   1      51.680  33.790  52.724  0.00  0.00     0.272 A 
ATOM      7  N   UNL d   1      51.535  34.478  53.155  0.00  0.00    -0.251 N 
ATOM      8  O   UNL d   1      51.143  33.433  52.207  0.00  0.00    -0.266 OA
ATOM      9  C   UNL d   1      52.215  34.647  53.603  0.00  0.00     0.182 A 
ATOM     10  C   UNL d   1      50.845  34.927  53.151  0.00  0.00     0.104 C 
ATOM     11  S   UNL d   1      52.767  34.057  53.438  0.00  0.00    -0.045 SA
BRANCH   9  12
ATOM     12  N   UNL d   1      52.313  35.287  54.115  0.00  0.00    -0.219 NA
ATOM     13  C   UNL d   1      53.062  35.496  54.385  0.00  0.00     0.122 C 
ENDBRANCH   9  12
ENDBRANCH   4   5
ENDBRANCH   1   4
BRANCH   2  14
ATOM     14  C   UNL d   1      53.001  30.774  53.166  0.00  0.00     0.085 A 
ATOM     15  C   UNL d   1      52.366  30.254  53.322  0.00  0.00     0.019 A 
ATOM     16  C   UNL d   1      52.485  29.585  53.791  0.00  0.00     0.005 A 
ATOM     17  C   UNL d   1      53.236  29.426  54.107  0.00  0.00     0.039 A 
ATOM     18  C   UNL d   1      53.863  29.939  53.953  0.00  0.00     0.005 A 
ATOM     19  C   UNL d   1      53.745  30.615  53.481  0.00  0.00     0.019 A 
BRANCH  17  20
ATOM     20  C   UNL d   1      53.352  28.760  54.573  0.00  0.00     0.196 C 
ATOM     21  O   UNL d   1      53.440  28.018  54.222  0.00  0.00    -0.287 OA
ATOM     22  C   UNL d   1      53.382  28.833  55.395  0.00  0.00     0.045 C 
ENDBRANCH  17  20
ENDBRANCH   2  14
TORSDOF 5
ENDMDL
MODEL 2
REMARK VINA RESULT:      -7.1      1.862      5.177
REMARK  5 active torsions:
REMARK  status: ('A' for Active; 'I' for Inactive)
REMARK    1  A    between atoms: N_8  and  C_2 
REMARK    2  A    between atoms: C_6  and  C_5 
REMARK    3  A    between atoms: C_7  and  C_6 
REMARK       I    between atoms: N_9  and  C_7 
REMARK    4  A    between atoms: C_18  and  N_9 
REMARK    5  A    between atoms: C_11  and  C_12 
ROOT
ATOM      1  C   UNL d   1      51.246  33.715  53.325  0.00  0.00     0.280 C 
ATOM      2  N   UNL d   1      51.097  34.428  52.924  0.00  0.00    -0.208 NA
ATOM      3  O   UNL d   1      50.692  33.109  53.306  0.00  0.00    -0.265 OA
ENDROOT
BRANCH   1   4
ATOM      4  C   UNL d   1      51.948  33.624  53.736  0.00  0.00     0.074 C 
BRANCH   4   5
ATOM      5  C   UNL d   1      52.490  33.045  53.510  0.00  0.00     0.093 A 
ATOM      6  C   UNL d   1      53.305  33.084  53.628  0.00  0.00     0.272 A 
ATOM      7  N   UNL d   1      53.641  32.396  53.322  0.00  0.00    -0.251 N 
ATOM      8  O   UNL d   1      53.725  33.697  53.988  0.00  0.00    -0.266 OA
ATOM      9  C   UNL d   1      53.028  31.927  53.011  0.00  0.00     0.182 A 
ATOM     10  C   UNL d   1      54.440  32.196  53.318  0.00  0.00     0.104 C 
ATOM     11  S   UNL d   1      52.324  32.338  53.133  0.00  0.00    -0.045 SA
BRANCH   9  12
ATOM     12  N   UNL d   1      53.116  31.190  52.650  0.00  0.00    -0.219 NA
ATOM     13  C   UNL d   1      52.782  30.518  52.988  0.00  0.00     0.122 C 
ENDBRANCH   9  12
ENDBRANCH   4   5
ENDBRANCH   1   4
BRANCH   2  14
ATOM     14  C   UNL d   1      50.392  34.521  52.509  0.00  0.00     0.085 A 
ATOM     15  C   UNL d   1      49.707  34.800  52.897  0.00  0.00     0.019 A 
ATOM     16  C   UNL d   1      49.002  34.891  52.476  0.00  0.00     0.005 A 
ATOM     17  C   UNL d   1      48.973  34.707  51.667  0.00  0.00     0.039 A 
ATOM     18  C   UNL d   1      49.650  34.432  51.284  0.00  0.00     0.005 A 
ATOM     19  C   UNL d   1      50.361  34.339  51.707  0.00  0.00     0.019 A 
BRANCH  17  20
ATOM     20  C   UNL d   1      48.271  34.799  51.251  0.00  0.00     0.196 C 
ATOM     21  O   UNL d   1      48.058  34.251  50.672  0.00  0.00    -0.287 OA
ATOM     22  C   UNL d   1      47.778  35.441  51.414  0.00  0.00     0.045 C 
ENDBRANCH  17  20
ENDBRANCH   2  14
TORSDOF 5
ENDMDL
MODEL 3
REMARK VINA RESULT:      -7.1      3.025      4.184
REMARK  5 active torsions:
REMARK  status: ('A' for Active; 'I' for Inactive)
REMARK    1  A    between atoms: N_8  and  C_2 
REMARK    2  A    between atoms: C_6  and  C_5 
REMARK    3  A    between atoms: C_7  and  C_6 
REMARK       I    between atoms: N_9  and  C_7 
REMARK    4  A    between atoms: C_18  and  N_9 
REMARK    5  A    between atoms: C_11  and  C_12 
ROOT
ATOM      1  C   UNL d   1      50.459  34.164  52.529  0.00  0.00     0.280 C 
ATOM      2  N   UNL d   1      51.258  34.286  52.331  0.00  0.00    -0.208 NA
ATOM      3  O   UNL d   1      50.251  33.971  53.299  0.00  0.00    -0.265 OA
ENDROOT
BRANCH   1   4
ATOM      4  C   UNL d   1      49.886  34.239  51.948  0.00  0.00     0.074 C 
BRANCH   4   5
ATOM      5  C   UNL d   1      49.240  34.738  52.065  0.00  0.00     0.093 A 
ATOM      6  C   UNL d   1      48.608  34.828  51.543  0.00  0.00     0.272 A 
ATOM      7  N   UNL d   1      48.084  35.376  51.868  0.00  0.00    -0.251 N 
ATOM      8  O   UNL d   1      48.504  34.444  50.820  0.00  0.00    -0.266 OA
ATOM      9  C   UNL d   1      48.395  35.628  52.597  0.00  0.00     0.182 A 
ATOM     10  C   UNL d   1      47.376  35.637  51.538  0.00  0.00     0.104 C 
ATOM     11  S   UNL d   1      49.107  35.227  52.707  0.00  0.00    -0.045 SA
BRANCH   9  12
ATOM     12  N   UNL d   1      48.050  36.175  53.110  0.00  0.00    -0.219 NA
ATOM     13  C   UNL d   1      47.965  36.003  53.910  0.00  0.00     0.122 C 
ENDBRANCH   9  12
ENDBRANCH   4   5
ENDBRANCH   1   4
BRANCH   2  14
ATOM     14  C   UNL d   1      51.836  34.211  52.913  0.00  0.00     0.085 A 
ATOM     15  C   UNL d   1      52.183  34.890  53.253  0.00  0.00     0.019 A 
ATOM     16  C   UNL d   1      52.762  34.810  53.837  0.00  0.00     0.005 A 
ATOM     17  C   UNL d   1      53.000  34.055  54.086  0.00  0.00     0.039 A 
ATOM     18  C   UNL d   1      52.657  33.384  53.750  0.00  0.00     0.005 A 
ATOM     19  C   UNL d   1      52.073  33.463  53.162  0.00  0.00     0.019 A 
BRANCH  17  20
ATOM     20  C   UNL d   1      53.576  33.977  54.666  0.00  0.00     0.196 C 
ATOM     21  O   UNL d   1      53.756  34.613  55.160  0.00  0.00    -0.287 OA
ATOM     22  C   UNL d   1      53.976  33.260  54.755  0.00  0.00     0.045 C 
ENDBRANCH  17  20
ENDBRANCH   2  14
TORSDOF 5
ENDMDL
MODEL 4
REMARK VINA RESULT:      -6.8      1.822      4.833
REMARK  5 active torsions:
REMARK  status: ('A' for Active; 'I' for Inactive)
REMARK    1  A    between atoms: N_8  and  C_2 
REMARK    2  A    between atoms: C_6  and  C_5 
REMARK    3  A    between atoms: C_7  and  C_6 
REMARK       I    between atoms: N_9  and  C_7 
REMARK    4  A    between atoms: C_18  and  N_9 
REMARK    5  A    between atoms: C_11  and  C_12 
ROOT
ATOM      1  C   UNL d   1      53.787  32.062  53.637  0.00  0.00     0.280 C 
ATOM      2  N   UNL d   1      53.948  32.774  53.238  0.00  0.00    -0.208 NA
ATOM      3  O   UNL d   1      53.389  32.074  54.355  0.00  0.00    -0.265 OA
ENDROOT
BRANCH   1   4
ATOM      4  C   UNL d   1      54.029  31.352  53.306  0.00  0.00     0.074 C 
BRANCH   4   5
ATOM      5  C   UNL d   1      53.596  30.663  53.441  0.00  0.00     0.093 A 
ATOM      6  C   UNL d   1      53.050  30.335  52.917  0.00  0.00     0.272 A 
ATOM      7  N   UNL d   1      52.743  29.652  53.262  0.00  0.00    -0.251 N 
ATOM      8  O   UNL d   1      52.838  30.626  52.175  0.00  0.00    -0.266 OA
ATOM      9  C   UNL d   1      53.102  29.557  54.007  0.00  0.00     0.182 A 
ATOM     10  C   UNL d   1      52.180  29.144  52.939  0.00  0.00     0.104 C 
ATOM     11  S   UNL d   1      53.625  30.186  54.105  0.00  0.00    -0.045 SA
BRANCH   9  12
ATOM     12  N   UNL d   1      52.957  28.945  54.542  0.00  0.00    -0.219 NA
ATOM     13  C   UNL d   1      53.494  28.781  55.143  0.00  0.00     0.122 C 
ENDBRANCH   9  12
ENDBRANCH   4   5
ENDBRANCH   1   4
BRANCH   2  14
ATOM     14  C   UNL d   1      53.706  33.488  53.568  0.00  0.00     0.085 A 
ATOM     15  C   UNL d   1      54.104  33.803  54.231  0.00  0.00     0.019 A 
ATOM     16  C   UNL d   1      53.857  34.520  54.559  0.00  0.00     0.005 A 
ATOM     17  C   UNL d   1      53.213  34.928  54.230  0.00  0.00     0.039 A 
ATOM     18  C   UNL d   1      52.820  34.616  53.575  0.00  0.00     0.005 A 
ATOM     19  C   UNL d   1      53.068  33.894  53.244  0.00  0.00     0.019 A 
BRANCH  17  20
ATOM     20  C   UNL d   1      52.969  35.641  54.558  0.00  0.00     0.196 C 
ATOM     21  O   UNL d   1      53.426  36.321  54.460  0.00  0.00    -0.287 OA
ATOM     22  C   UNL d   1      52.263  35.676  54.985  0.00  0.00     0.045 C 
ENDBRANCH  17  20
ENDBRANCH   2  14
TORSDOF 5
ENDMDL
MODEL 5
REMARK VINA RESULT:      -6.5      1.355      2.003
REMARK  5 active torsions:
REMARK  status: ('A' for Active; 'I' for Inactive)
REMARK    1  A    between atoms: N_8  and  C_2 
REMARK    2  A    between atoms: C_6  and  C_5 
REMARK    3  A    between atoms: C_7  and  C_6 
REMARK       I    between atoms: N_9  and  C_7 
REMARK    4  A    between atoms: C_18  and  N_9 
REMARK    5  A    between atoms: C_11  and  C_12 
ROOT
ATOM      1  C   UNL d   1      52.119  33.318  52.998  0.00  0.00     0.280 C 
ATOM      2  N   UNL d   1      52.717  32.863  52.640  0.00  0.00    -0.208 NA
ATOM      3  O   UNL d   1      51.729  33.035  53.663  0.00  0.00    -0.265 OA
ENDROOT
BRANCH   1   4
ATOM      4  C   UNL d   1      51.925  34.047  52.680  0.00  0.00     0.074 C 
BRANCH   4   5
ATOM      5  C   UNL d   1      51.136  34.238  52.532  0.00  0.00     0.093 A 
ATOM      6  C   UNL d   1      50.788  34.274  51.785  0.00  0.00     0.272 A 
ATOM      7  N   UNL d   1      49.996  34.483  51.881  0.00  0.00    -0.251 N 
ATOM      8  O   UNL d   1      51.154  34.129  51.060  0.00  0.00    -0.266 OA
ATOM      9  C   UNL d   1      49.853  34.578  52.696  0.00  0.00     0.182 A 
ATOM     10  C   UNL d   1      49.436  34.584  51.286  0.00  0.00     0.104 C 
ATOM     11  S   UNL d   1      50.563  34.424  53.085  0.00  0.00    -0.045 SA
BRANCH   9  12
ATOM     12  N   UNL d   1      49.133  34.787  53.041  0.00  0.00    -0.219 NA
ATOM     13  C   UNL d   1      49.082  35.443  53.535  0.00  0.00     0.122 C 
ENDBRANCH   9  12
ENDBRANCH   4   5
ENDBRANCH   1   4
BRANCH   2  14
ATOM     14  C   UNL d   1      52.914  32.130  52.958  0.00  0.00     0.085 A 
ATOM     15  C   UNL d   1      53.495  32.069  53.555  0.00  0.00     0.019 A 
ATOM     16  C   UNL d   1      53.688  31.331  53.870  0.00  0.00     0.005 A 
ATOM     17  C   UNL d   1      53.306  30.647  53.595  0.00  0.00     0.039 A 
ATOM     18  C   UNL d   1      52.731  30.707  53.006  0.00  0.00     0.005 A 
ATOM     19  C   UNL d   1      52.535  31.451  52.687  0.00  0.00     0.019 A 
BRANCH  17  20
ATOM     20  C   UNL d   1      53.500  29.914  53.910  0.00  0.00     0.196 C 
ATOM     21  O   UNL d   1      54.114  29.471  53.582  0.00  0.00    -0.287 OA
ATOM     22  C   UNL d   1      53.078  29.620  54.556  0.00  0.00     0.045 C 
ENDBRANCH  17  20
ENDBRANCH   2  14
TORSDOF 5
ENDMDL
MODEL 6
REMARK VINA RESULT:      -4.9      9.868     11.513
REMARK  5 active torsions:
REMARK  status: ('A' for Active; 'I' for Inactive)
REMARK    1  A    between atoms: N_8  and  C_2 
REMARK    2  A    between atoms: C_6  and  C_5 
REMARK    3  A    between atoms: C_7  and  C_6 
REMARK       I    between atoms: N_9  and  C_7 
REMARK    4  A    between atoms: C_18  and  N_9 
REMARK    5  A    between atoms: C_11  and  C_12 
ROOT
ATOM      1  C   UNL d   1      44.669  25.642  56.350  0.00  0.00     0.280 C 
ATOM      2  N   UNL d   1      45.063  26.356  56.182  0.00  0.00    -0.208 NA
ATOM      3  O   UNL d   1      44.316  25.530  57.083  0.00  0.00    -0.265 OA
ENDROOT
BRANCH   1   4
ATOM      4  C   UNL d   1      44.639  25.057  55.778  0.00  0.00     0.074 C 
BRANCH   4   5
ATOM      5  C   UNL d   1      44.819  24.276  55.974  0.00  0.00     0.093 A 
ATOM      6  C   UNL d   1      45.150  23.721  55.462  0.00  0.00     0.272 A 
ATOM      7  N   UNL d   1      45.241  23.013  55.875  0.00  0.00    -0.251 N 
ATOM      8  O   UNL d   1      45.360  23.839  54.672  0.00  0.00    -0.266 OA
ATOM      9  C   UNL d   1      44.963  23.131  56.650  0.00  0.00     0.182 A 
ATOM     10  C   UNL d   1      45.550  22.307  55.584  0.00  0.00     0.104 C 
ATOM     11  S   UNL d   1      44.706  23.913  56.699  0.00  0.00    -0.045 SA
BRANCH   9  12
ATOM     12  N   UNL d   1      44.950  22.567  57.253  0.00  0.00    -0.219 NA
ATOM     13  C   UNL d   1      44.432  22.645  57.887  0.00  0.00     0.122 C 
ENDBRANCH   9  12
ENDBRANCH   4   5
ENDBRANCH   1   4
BRANCH   2  14
ATOM     14  C   UNL d   1      45.095  26.946  56.755  0.00  0.00     0.085 A 
ATOM     15  C   UNL d   1      45.666  26.913  57.364  0.00  0.00     0.019 A 
ATOM     16  C   UNL d   1      45.693  27.508  57.937  0.00  0.00     0.005 A 
ATOM     17  C   UNL d   1      45.155  28.139  57.908  0.00  0.00     0.039 A 
ATOM     18  C   UNL d   1      44.591  28.171  57.306  0.00  0.00     0.005 A 
ATOM     19  C   UNL d   1      44.562  27.573  56.729  0.00  0.00     0.019 A 
BRANCH  17  20
ATOM     20  C   UNL d   1      45.184  28.729  58.478  0.00  0.00     0.196 C 
ATOM     21  O   UNL d   1      45.680  29.381  58.376  0.00  0.00    -0.287 OA
ATOM     22  C   UNL d   1      44.716  28.669  59.156  0.00  0.00     0.045 C 
ENDBRANCH  17  20
ENDBRANCH   2  14
TORSDOF 5
ENDMDL
MODEL 7
REMARK VINA RESULT:      -4.8      9.995     10.706
REMARK  5 active torsions:
REMARK  status: ('A' for Active; 'I' for Inactive)
REMARK    1  A    between atoms: N_8  and  C_2 
REMARK    2  A    between atoms: C_6  and  C_5 
REMARK    3  A    between atoms: C_7  and  C_6 
REMARK       I    between atoms: N_9  and  C_7 
REMARK    4  A    between atoms: C_18  and  N_9 
REMARK    5  A    between atoms: C_11  and  C_12 
ROOT
ATOM      1  C   UNL d   1      44.944  30.167  59.387  0.00  0.00     0.280 C 
ATOM      2  N   UNL d   1      44.338  30.199  59.956  0.00  0.00    -0.208 NA
ATOM      3  O   UNL d   1      45.627  29.736  59.537  0.00  0.00    -0.265 OA
ENDROOT
BRANCH   1   4
ATOM      4  C   UNL d   1      44.853  30.571  58.680  0.00  0.00     0.074 C 
BRANCH   4   5
ATOM      5  C   UNL d   1      44.797  30.155  57.970  0.00  0.00     0.093 A 
ATOM      6  C   UNL d   1      44.581  30.480  57.244  0.00  0.00     0.272 A 
ATOM      7  N   UNL d   1      44.594  29.879  56.680  0.00  0.00    -0.251 N 
ATOM      8  O   UNL d   1      44.384  31.268  57.092  0.00  0.00    -0.266 OA
ATOM      9  C   UNL d   1      44.820  29.175  57.060  0.00  0.00     0.182 A 
ATOM     10  C   UNL d   1      44.418  29.949  55.878  0.00  0.00     0.104 C 
ATOM     11  S   UNL d   1      44.942  29.358  57.855  0.00  0.00    -0.045 SA
BRANCH   9  12
ATOM     12  N   UNL d   1      44.905  28.435  56.704  0.00  0.00    -0.219 NA
ATOM     13  C   UNL d   1      45.326  27.836  57.079  0.00  0.00     0.122 C 
ENDBRANCH   9  12
ENDBRANCH   4   5
ENDBRANCH   1   4
BRANCH   2  14
ATOM     14  C   UNL d   1      44.428  29.794  60.667  0.00  0.00     0.085 A 
ATOM     15  C   UNL d   1      44.633  30.205  61.365  0.00  0.00     0.019 A 
ATOM     16  C   UNL d   1      44.722  29.794  62.075  0.00  0.00     0.005 A 
ATOM     17  C   UNL d   1      44.608  28.973  62.099  0.00  0.00     0.039 A 
ATOM     18  C   UNL d   1      44.405  28.566  61.410  0.00  0.00     0.005 A 
ATOM     19  C   UNL d   1      44.315  28.979  60.693  0.00  0.00     0.019 A 
BRANCH  17  20
ATOM     20  C   UNL d   1      44.697  28.566  62.807  0.00  0.00     0.196 C 
ATOM     21  O   UNL d   1      44.458  27.779  62.866  0.00  0.00    -0.287 OA
ATOM     22  C   UNL d   1      45.026  28.948  63.461  0.00  0.00     0.045 C 
ENDBRANCH  17  20
ENDBRANCH   2  14
TORSDOF 5
ENDMDL
