MODEL 1
REMARK VINA RESULT:      -7.2      0.000      0.000
REMARK  5 active torsions:
REMARK  status: ('A' for Active; 'I' for Inactive)
REMARK    1  A    between atoms: C_6  and  N_1 
REMARK    2  A    between atoms: C_5  and  C_6 
REMARK       I    between atoms: N_7  and  C_5 
REMARK    3  A    between atoms: C_8  and  N_7 
REMARK    4  A    between atoms: O_19  and  C_9 
REMARK    5  A    between atoms: O_20  and  C_17 
ROOT
ATOM      1  C   UNL d   1     -48.454  13.054  22.872  0.00  0.00     0.297 C 
ATOM      2  N   UNL d   1     -47.845  12.773  23.353  0.00  0.00    -0.205 NA
ATOM      3  O   UNL d   1     -48.277  13.399  22.143  0.00  0.00    -0.264 OA
ENDROOT
BRANCH   1   4
ATOM      4  C   UNL d   1     -49.235  12.991  23.116  0.00  0.00     0.148 C 
BRANCH   4   5
ATOM      5  N   UNL d   1     -49.836  13.345  22.677  0.00  0.00    -0.235 N 
ATOM      6  C   UNL d   1     -50.128  14.092  22.904  0.00  0.00     0.273 A 
ATOM      7  C   UNL d   1     -50.729  14.447  22.464  0.00  0.00     0.086 A 
ATOM      8  O   UNL d   1     -49.811  14.474  23.569  0.00  0.00    -0.266 OA
ATOM      9  C   UNL d   1     -51.024  15.189  22.683  0.00  0.00     0.012 C 
ATOM     10  S   UNL d   1     -51.040  14.055  21.797  0.00  0.00    -0.077 SA
ATOM     11  C   UNL d   1     -50.748  13.322  21.582  0.00  0.00     0.097 A 
ATOM     12  C   UNL d   1     -50.146  12.967  22.021  0.00  0.00     0.274 A 
ATOM     13  O   UNL d   1     -49.848  12.216  21.800  0.00  0.00    -0.266 OA
ENDBRANCH   4   5
ENDBRANCH   1   4
BRANCH   2  14
ATOM     14  C   UNL d   1     -47.061  12.838  23.105  0.00  0.00     0.107 A 
ATOM     15  C   UNL d   1     -46.544  12.216  23.220  0.00  0.00     0.114 A 
ATOM     16  C   UNL d   1     -45.773  12.271  22.979  0.00  0.00     0.050 A 
ATOM     17  C   UNL d   1     -45.503  12.968  22.611  0.00  0.00     0.096 A 
ATOM     18  C   UNL d   1     -46.020  13.590  22.497  0.00  0.00     0.026 A 
ATOM     19  C   UNL d   1     -46.811  13.520  22.748  0.00  0.00     0.023 A 
BRANCH  15  20
ATOM     20  O   UNL d   1     -46.805  11.508  23.590  0.00  0.00    -0.327 OA
ATOM     21  C   UNL d   1     -46.271  10.882  23.698  0.00  0.00     0.181 C 
ENDBRANCH  15  20
BRANCH  17  22
ATOM     22  O   UNL d   1     -44.706  13.024  22.363  0.00  0.00    -0.328 OA
ATOM     23  C   UNL d   1     -44.520  13.186  21.576  0.00  0.00     0.181 C 
ENDBRANCH  17  22
ENDBRANCH   2  14
TORSDOF 5
ENDMDL
MODEL 2
REMARK VINA RESULT:      -6.8      0.869      1.617
REMARK  5 active torsions:
REMARK  status: ('A' for Active; 'I' for Inactive)
REMARK    1  A    between atoms: C_6  and  N_1 
REMARK    2  A    between atoms: C_5  and  C_6 
REMARK       I    between atoms: N_7  and  C_5 
REMARK    3  A    between atoms: C_8  and  N_7 
REMARK    4  A    between atoms: O_19  and  C_9 
REMARK    5  A    between atoms: O_20  and  C_17 
ROOT
ATOM      1  C   UNL d   1     -47.990  13.479  22.504  0.00  0.00     0.297 C 
ATOM      2  N   UNL d   1     -47.187  13.585  22.660  0.00  0.00    -0.205 NA
ATOM      3  O   UNL d   1     -48.335  12.737  22.609  0.00  0.00    -0.264 OA
ENDROOT
BRANCH   1   4
ATOM      4  C   UNL d   1     -48.446  14.110  22.244  0.00  0.00     0.148 C 
BRANCH   4   5
ATOM      5  N   UNL d   1     -49.270  14.058  22.255  0.00  0.00    -0.235 N 
ATOM      6  C   UNL d   1     -49.696  14.383  22.892  0.00  0.00     0.273 A 
ATOM      7  C   UNL d   1     -50.520  14.331  22.902  0.00  0.00     0.086 A 
ATOM      8  O   UNL d   1     -49.290  14.758  23.511  0.00  0.00    -0.266 OA
ATOM      9  C   UNL d   1     -50.950  14.652  23.532  0.00  0.00     0.012 C 
ATOM     10  S   UNL d   1     -50.917  13.952  22.275  0.00  0.00    -0.077 SA
ATOM     11  C   UNL d   1     -50.491  13.635  21.653  0.00  0.00     0.097 A 
ATOM     12  C   UNL d   1     -49.667  13.688  21.643  0.00  0.00     0.274 A 
ATOM     13  O   UNL d   1     -49.231  13.363  21.005  0.00  0.00    -0.266 OA
ENDBRANCH   4   5
ENDBRANCH   1   4
BRANCH   2  14
ATOM     14  C   UNL d   1     -46.730  12.949  22.920  0.00  0.00     0.107 A 
ATOM     15  C   UNL d   1     -45.957  12.873  22.670  0.00  0.00     0.114 A 
ATOM     16  C   UNL d   1     -45.501  12.252  22.921  0.00  0.00     0.050 A 
ATOM     17  C   UNL d   1     -45.825  11.686  23.439  0.00  0.00     0.096 A 
ATOM     18  C   UNL d   1     -46.598  11.762  23.690  0.00  0.00     0.026 A 
ATOM     19  C   UNL d   1     -47.056  12.405  23.424  0.00  0.00     0.023 A 
BRANCH  15  20
ATOM     20  O   UNL d   1     -45.620  13.438  22.147  0.00  0.00    -0.327 OA
ATOM     21  C   UNL d   1     -44.861  13.310  21.839  0.00  0.00     0.181 C 
ENDBRANCH  15  20
BRANCH  17  22
ATOM     22  O   UNL d   1     -45.354  11.044  23.698  0.00  0.00    -0.328 OA
ATOM     23  C   UNL d   1     -45.513  10.275  23.444  0.00  0.00     0.181 C 
ENDBRANCH  17  22
ENDBRANCH   2  14
TORSDOF 5
ENDMDL
MODEL 3
REMARK VINA RESULT:      -5.4      8.108     10.137
REMARK  5 active torsions:
REMARK  status: ('A' for Active; 'I' for Inactive)
REMARK    1  A    between atoms: C_6  and  N_1 
REMARK    2  A    between atoms: C_5  and  C_6 
REMARK       I    between atoms: N_7  and  C_5 
REMARK    3  A    between atoms: C_8  and  N_7 
REMARK    4  A    between atoms: O_19  and  C_9 
REMARK    5  A    between atoms: O_20  and  C_17 
ROOT
ATOM      1  C   UNL d   1     -39.722  14.498  18.898  0.00  0.00     0.297 C 
ATOM      2  N   UNL d   1     -40.272  14.559  19.510  0.00  0.00    -0.205 NA
ATOM      3  O   UNL d   1     -38.923  14.642  19.047  0.00  0.00    -0.264 OA
ENDROOT
BRANCH   1   4
ATOM      4  C   UNL d   1     -39.968  14.294  18.142  0.00  0.00     0.148 C 
BRANCH   4   5
ATOM      5  N   UNL d   1     -39.443  14.348  17.508  0.00  0.00    -0.235 N 
ATOM      6  C   UNL d   1     -39.006  13.677  17.275  0.00  0.00     0.273 A 
ATOM      7  C   UNL d   1     -38.481  13.731  16.641  0.00  0.00     0.086 A 
ATOM      8  O   UNL d   1     -39.103  12.961  17.683  0.00  0.00    -0.266 OA
ATOM      9  C   UNL d   1     -38.044  13.069  16.404  0.00  0.00     0.012 C 
ATOM     10  S   UNL d   1     -38.392  14.456  16.239  0.00  0.00    -0.077 SA
ATOM     11  C   UNL d   1     -38.824  15.109  16.473  0.00  0.00     0.097 A 
ATOM     12  C   UNL d   1     -39.349  15.055  17.108  0.00  0.00     0.274 A 
ATOM     13  O   UNL d   1     -39.792  15.726  17.347  0.00  0.00    -0.266 OA
ENDBRANCH   4   5
ENDBRANCH   1   4
BRANCH   2  14
ATOM     14  C   UNL d   1     -40.023  14.764  20.270  0.00  0.00     0.107 A 
ATOM     15  C   UNL d   1     -40.450  15.306  20.706  0.00  0.00     0.114 A 
ATOM     16  C   UNL d   1     -40.213  15.513  21.452  0.00  0.00     0.050 A 
ATOM     17  C   UNL d   1     -39.527  15.169  21.778  0.00  0.00     0.096 A 
ATOM     18  C   UNL d   1     -39.101  14.627  21.342  0.00  0.00     0.026 A 
ATOM     19  C   UNL d   1     -39.356  14.423  20.575  0.00  0.00     0.023 A 
BRANCH  15  20
ATOM     20  O   UNL d   1     -41.143  15.659  20.388  0.00  0.00    -0.327 OA
ATOM     21  C   UNL d   1     -41.740  15.922  20.899  0.00  0.00     0.181 C 
ENDBRANCH  15  20
BRANCH  17  22
ATOM     22  O   UNL d   1     -39.282  15.383  22.549  0.00  0.00    -0.328 OA
ATOM     23  C   UNL d   1     -38.506  15.623  22.693  0.00  0.00     0.181 C 
ENDBRANCH  17  22
ENDBRANCH   2  14
TORSDOF 5
ENDMDL
MODEL 4
REMARK VINA RESULT:      -5.4      8.510     10.012
REMARK  5 active torsions:
REMARK  status: ('A' for Active; 'I' for Inactive)
REMARK    1  A    between atoms: C_6  and  N_1 
REMARK    2  A    between atoms: C_5  and  C_6 
REMARK       I    between atoms: N_7  and  C_5 
REMARK    3  A    between atoms: C_8  and  N_7 
REMARK    4  A    between atoms: O_19  and  C_9 
REMARK    5  A    between atoms: O_20  and  C_17 
ROOT
ATOM      1  C   UNL d   1     -39.986  14.462  18.837  0.00  0.00     0.297 C 
ATOM      2  N   UNL d   1     -39.861  13.843  18.307  0.00  0.00    -0.205 NA
ATOM      3  O   UNL d   1     -39.640  15.199  18.698  0.00  0.00    -0.264 OA
ENDROOT
BRANCH   1   4
ATOM      4  C   UNL d   1     -40.452  14.348  19.503  0.00  0.00     0.148 C 
BRANCH   4   5
ATOM      5  N   UNL d   1     -40.306  14.779  20.190  0.00  0.00    -0.235 N 
ATOM      6  C   UNL d   1     -39.765  14.487  20.754  0.00  0.00     0.273 A 
ATOM      7  C   UNL d   1     -39.619  14.918  21.442  0.00  0.00     0.086 A 
ATOM      8  O   UNL d   1     -39.379  13.764  20.619  0.00  0.00    -0.266 OA
ATOM      9  C   UNL d   1     -39.084  14.634  22.006  0.00  0.00     0.012 C 
ATOM     10  S   UNL d   1     -40.012  15.642  21.567  0.00  0.00    -0.077 SA
ATOM     11  C   UNL d   1     -40.541  15.922  21.009  0.00  0.00     0.097 A 
ATOM     12  C   UNL d   1     -40.687  15.491  20.321  0.00  0.00     0.274 A 
ATOM     13  O   UNL d   1     -41.229  15.778  19.750  0.00  0.00    -0.266 OA
ENDBRANCH   4   5
ENDBRANCH   1   4
BRANCH   2  14
ATOM     14  C   UNL d   1     -39.392  13.960  17.638  0.00  0.00     0.107 A 
ATOM     15  C   UNL d   1     -38.898  13.366  17.378  0.00  0.00     0.114 A 
ATOM     16  C   UNL d   1     -38.433  13.472  16.722  0.00  0.00     0.050 A 
ATOM     17  C   UNL d   1     -38.461  14.196  16.310  0.00  0.00     0.096 A 
ATOM     18  C   UNL d   1     -38.955  14.791  16.571  0.00  0.00     0.026 A 
ATOM     19  C   UNL d   1     -39.428  14.668  17.246  0.00  0.00     0.023 A 
BRANCH  15  20
ATOM     20  O   UNL d   1     -38.862  12.631  17.785  0.00  0.00    -0.327 OA
ATOM     21  C   UNL d   1     -38.355  12.035  17.510  0.00  0.00     0.181 C 
ENDBRANCH  15  20
BRANCH  17  22
ATOM     22  O   UNL d   1     -37.981  14.306  15.633  0.00  0.00    -0.328 OA
ATOM     23  C   UNL d   1     -37.953  15.037  15.252  0.00  0.00     0.181 C 
ENDBRANCH  17  22
ENDBRANCH   2  14
TORSDOF 5
ENDMDL
MODEL 5
REMARK VINA RESULT:      -5.3      9.312     10.241
REMARK  5 active torsions:
REMARK  status: ('A' for Active; 'I' for Inactive)
REMARK    1  A    between atoms: C_6  and  N_1 
REMARK    2  A    between atoms: C_5  and  C_6 
REMARK       I    between atoms: N_7  and  C_5 
REMARK    3  A    between atoms: C_8  and  N_7 
REMARK    4  A    between atoms: O_19  and  C_9 
REMARK    5  A    between atoms: O_20  and  C_17 
ROOT
ATOM      1  C   UNL d   1     -39.072  14.941  19.586  0.00  0.00     0.297 C 
ATOM      2  N   UNL d   1     -38.945  15.144  18.797  0.00  0.00    -0.205 NA
ATOM      3  O   UNL d   1     -39.832  14.755  19.847  0.00  0.00    -0.264 OA
ENDROOT
BRANCH   1   4
ATOM      4  C   UNL d   1     -38.442  14.923  20.113  0.00  0.00     0.148 C 
BRANCH   4   5
ATOM      5  N   UNL d   1     -38.543  14.605  20.868  0.00  0.00    -0.235 N 
ATOM      6  C   UNL d   1     -38.745  15.105  21.503  0.00  0.00     0.273 A 
ATOM      7  C   UNL d   1     -38.846  14.787  22.258  0.00  0.00     0.086 A 
ATOM      8  O   UNL d   1     -38.844  15.919  21.372  0.00  0.00    -0.266 OA
ATOM      9  C   UNL d   1     -39.047  15.277  22.894  0.00  0.00     0.012 C 
ATOM     10  S   UNL d   1     -38.745  13.968  22.378  0.00  0.00    -0.077 SA
ATOM     11  C   UNL d   1     -38.547  13.484  21.749  0.00  0.00     0.097 A 
ATOM     12  C   UNL d   1     -38.446  13.802  20.994  0.00  0.00     0.274 A 
ATOM     13  O   UNL d   1     -38.243  13.306  20.351  0.00  0.00    -0.266 OA
ENDBRANCH   4   5
ENDBRANCH   1   4
BRANCH   2  14
ATOM     14  C   UNL d   1     -39.579  15.161  18.269  0.00  0.00     0.107 A 
ATOM     15  C   UNL d   1     -39.486  14.873  17.511  0.00  0.00     0.114 A 
ATOM     16  C   UNL d   1     -40.103  14.886  16.986  0.00  0.00     0.050 A 
ATOM     17  C   UNL d   1     -40.839  15.197  17.223  0.00  0.00     0.096 A 
ATOM     18  C   UNL d   1     -40.932  15.485  17.980  0.00  0.00     0.026 A 
ATOM     19  C   UNL d   1     -40.289  15.466  18.510  0.00  0.00     0.023 A 
BRANCH  15  20
ATOM     20  O   UNL d   1     -38.748  14.557  17.262  0.00  0.00    -0.327 OA
ATOM     21  C   UNL d   1     -38.696  14.164  16.534  0.00  0.00     0.181 C 
ENDBRANCH  15  20
BRANCH  17  22
ATOM     22  O   UNL d   1     -41.476  15.210  16.680  0.00  0.00    -0.328 OA
ATOM     23  C   UNL d   1     -41.739  15.922  16.357  0.00  0.00     0.181 C 
ENDBRANCH  17  22
ENDBRANCH   2  14
TORSDOF 5
ENDMDL
