MODEL 1
REMARK VINA RESULT:       0.6      0.000      0.000
REMARK  5 active torsions:
REMARK  status: ('A' for Active; 'I' for Inactive)
REMARK    1  A    between atoms: C_16  and  N_3 
REMARK    2  A    between atoms: C_11  and  C_6 
REMARK       I    between atoms: N_20  and  C_11 
REMARK    3  A    between atoms: C_21  and  N_20 
REMARK    4  A    between atoms: C_23  and  C_21 
REMARK    5  A    between atoms: C_22  and  C_23 
ROOT
ATOM      1  C   UNL d   1     -41.633-121.749 -53.053  0.00  0.00     0.155 A 
ATOM      2  C   UNL d   1     -41.713-122.571 -53.102  0.00  0.00     0.091 A 
ATOM      3  N   UNL d   1     -41.531-121.387 -52.324  0.00  0.00    -0.275 N 
ATOM      4  N   UNL d   1     -41.657-121.297 -53.740  0.00  0.00    -0.210 NA
ATOM      5  C   UNL d   1     -41.505-121.838 -51.620  0.00  0.00     0.175 A 
ATOM      6  C   UNL d   1     -41.585-122.664 -51.668  0.00  0.00     0.094 A 
ATOM      7  C   UNL d   1     -41.816-122.940 -53.833  0.00  0.00     0.269 A 
ATOM      8  N   UNL d   1     -41.839-122.483 -54.519  0.00  0.00    -0.258 N 
ATOM      9  C   UNL d   1     -41.760-121.657 -54.480  0.00  0.00     0.152 A 
ATOM     10  C   UNL d   1     -41.689-123.037 -52.408  0.00  0.00     0.016 A 
ATOM     11  N   UNL d   1     -41.402-121.472 -50.889  0.00  0.00    -0.128 N 
ATOM     12  C   UNL d   1     -41.943-122.848 -55.258  0.00  0.00     0.084 A 
ATOM     13  O   UNL d   1     -41.895-123.762 -53.881  0.00  0.00    -0.266 OA
ATOM     14  C   UNL d   1     -41.785-121.209 -55.162  0.00  0.00     0.038 A 
ATOM     15  C   UNL d   1     -41.965-122.387 -55.933  0.00  0.00     0.019 A 
ATOM     16  C   UNL d   1     -41.885-121.562 -55.884  0.00  0.00     0.005 A 
ENDROOT
BRANCH   6  17
ATOM     17  C   UNL d   1     -41.561-123.121 -50.982  0.00  0.00     0.282 C 
ATOM     18  O   UNL d   1     -41.123-123.817 -50.959  0.00  0.00    -0.265 OA
ATOM     19  N   UNL d   1     -41.984-122.876 -50.308  0.00  0.00    -0.206 NA
BRANCH  19  20
ATOM     20  C   UNL d   1     -41.960-123.333 -49.621  0.00  0.00     0.102 C 
BRANCH  20  21
ATOM     21  C   UNL d   1     -42.629-123.388 -49.143  0.00  0.00     0.021 C 
BRANCH  21  22
ATOM     22  C   UNL d   1     -42.552-123.416 -48.323  0.00  0.00     0.002 A 
ATOM     23  C   UNL d   1     -41.867-123.129 -47.969  0.00  0.00     0.000 A 
ATOM     24  C   UNL d   1     -41.783-123.153 -47.151  0.00  0.00     0.000 A 
ATOM     25  C   UNL d   1     -42.395-123.468 -46.691  0.00  0.00     0.000 A 
ATOM     26  C   UNL d   1     -43.081-123.754 -47.057  0.00  0.00     0.000 A 
ATOM     27  C   UNL d   1     -43.154-123.725 -47.868  0.00  0.00     0.000 A 
ENDBRANCH  21  22
ENDBRANCH  20  21
ENDBRANCH  19  20
ENDBRANCH   6  17
BRANCH   3  28
ATOM     28  C   UNL d   1     -41.451-120.562 -52.275  0.00  0.00     0.067 C 
ATOM     29  C   UNL d   1     -41.671-120.089 -52.922  0.00  0.00     0.019 C 
ATOM     30  C   UNL d   1     -41.156-120.212 -51.590  0.00  0.00     0.019 C 
ENDBRANCH   3  28
TORSDOF 5
ENDMDL
MODEL 2
REMARK VINA RESULT:       0.8      1.408      5.639
REMARK  5 active torsions:
REMARK  status: ('A' for Active; 'I' for Inactive)
REMARK    1  A    between atoms: C_16  and  N_3 
REMARK    2  A    between atoms: C_11  and  C_6 
REMARK       I    between atoms: N_20  and  C_11 
REMARK    3  A    between atoms: C_21  and  N_20 
REMARK    4  A    between atoms: C_23  and  C_21 
REMARK    5  A    between atoms: C_22  and  C_23 
ROOT
ATOM      1  C   UNL d   1     -43.015-122.570 -49.502  0.00  0.00     0.155 A 
ATOM      2  C   UNL d   1     -42.231-122.831 -49.507  0.00  0.00     0.091 A 
ATOM      3  N   UNL d   1     -43.329-122.195 -50.161  0.00  0.00    -0.275 N 
ATOM      4  N   UNL d   1     -43.480-122.689 -48.833  0.00  0.00    -0.210 NA
ATOM      5  C   UNL d   1     -42.866-122.069 -50.846  0.00  0.00     0.175 A 
ATOM      6  C   UNL d   1     -42.077-122.331 -50.851  0.00  0.00     0.094 A 
ATOM      7  C   UNL d   1     -41.910-123.209 -48.847  0.00  0.00     0.269 A 
ATOM      8  N   UNL d   1     -42.378-123.326 -48.178  0.00  0.00    -0.258 N 
ATOM      9  C   UNL d   1     -43.168-123.067 -48.165  0.00  0.00     0.152 A 
ATOM     10  C   UNL d   1     -41.753-122.713 -50.183  0.00  0.00     0.016 A 
ATOM     11  N   UNL d   1     -43.183-121.693 -51.506  0.00  0.00    -0.128 N 
ATOM     12  C   UNL d   1     -42.062-123.706 -47.510  0.00  0.00     0.084 A 
ATOM     13  O   UNL d   1     -41.125-123.469 -48.852  0.00  0.00    -0.266 OA
ATOM     14  C   UNL d   1     -43.628-123.186 -47.501  0.00  0.00     0.038 A 
ATOM     15  C   UNL d   1     -42.533-123.817 -46.852  0.00  0.00     0.019 A 
ATOM     16  C   UNL d   1     -43.322-123.556 -46.848  0.00  0.00     0.005 A 
ENDROOT
BRANCH   6  17
ATOM     17  C   UNL d   1     -41.608-122.214 -51.520  0.00  0.00     0.282 C 
ATOM     18  O   UNL d   1     -41.127-121.549 -51.581  0.00  0.00    -0.265 OA
ATOM     19  N   UNL d   1     -41.622-122.773 -52.137  0.00  0.00    -0.206 NA
BRANCH  19  20
ATOM     20  C   UNL d   1     -41.154-122.656 -52.806  0.00  0.00     0.102 C 
BRANCH  20  21
ATOM     21  C   UNL d   1     -41.253-123.140 -53.465  0.00  0.00     0.021 C 
BRANCH  21  22
ATOM     22  C   UNL d   1     -41.532-122.825 -54.173  0.00  0.00     0.002 A 
ATOM     23  C   UNL d   1     -42.206-123.142 -54.522  0.00  0.00     0.000 A 
ATOM     24  C   UNL d   1     -42.491-122.832 -55.230  0.00  0.00     0.000 A 
ATOM     25  C   UNL d   1     -42.091-122.200 -55.584  0.00  0.00     0.000 A 
ATOM     26  C   UNL d   1     -41.413-121.887 -55.225  0.00  0.00     0.000 A 
ATOM     27  C   UNL d   1     -41.140-122.201 -54.524  0.00  0.00     0.000 A 
ENDBRANCH  21  22
ENDBRANCH  20  21
ENDBRANCH  19  20
ENDBRANCH   6  17
BRANCH   3  28
ATOM     28  C   UNL d   1     -44.118-121.933 -50.157  0.00  0.00     0.067 C 
ATOM     29  C   UNL d   1     -44.281-121.123 -50.063  0.00  0.00     0.019 C 
ATOM     30  C   UNL d   1     -44.735-122.471 -50.244  0.00  0.00     0.019 C 
ENDBRANCH   3  28
TORSDOF 5
ENDMDL
