MODEL 1
REMARK VINA RESULT:      -3.1      0.000      0.000
REMARK  3 active torsions:
REMARK  status: ('A' for Active; 'I' for Inactive)
REMARK    1  A    between atoms: C_4  and  S_1 
REMARK    2  A    between atoms: N_6  and  S_1 
REMARK    3  A    between atoms: C_2  and  C_8 
ROOT
ATOM      1  C   UNL d   1      31.713  16.966 -24.175  0.00  0.00     0.104 A 
ATOM      2  C   UNL d   1      31.853  17.659 -23.750  0.00  0.00     0.015 A 
ATOM      3  C   UNL d   1      32.620  17.970 -23.716  0.00  0.00     0.025 A 
ATOM      4  C   UNL d   1      32.332  16.584 -24.565  0.00  0.00     0.012 A 
ATOM      5  C   UNL d   1      33.241  17.591 -24.105  0.00  0.00     0.002 A 
ATOM      6  C   UNL d   1      33.092  16.897 -24.529  0.00  0.00     0.001 A 
ATOM      7  C   UNL d   1      32.188  15.893 -24.989  0.00  0.00     0.001 C 
ENDROOT
BRANCH   3   8
ATOM      8  C   UNL d   1      32.765  18.665 -23.290  0.00  0.00     0.111 A 
ATOM      9  N   UNL d   1      32.843  18.716 -22.472  0.00  0.00    -0.239 NA
ATOM     10  C   UNL d   1      32.984  19.510 -22.279  0.00  0.00     0.088 A 
ATOM     11  C   UNL d   1      33.105  19.894 -21.565  0.00  0.00     0.020 A 
ATOM     12  C   UNL d   1      32.991  19.940 -22.985  0.00  0.00     0.049 A 
ATOM     13  C   UNL d   1      33.233  20.701 -21.548  0.00  0.00     0.002 A 
ATOM     14  C   UNL d   1      33.241  21.137 -22.254  0.00  0.00     0.001 A 
ATOM     15  C   UNL d   1      33.119  20.753 -22.974  0.00  0.00     0.008 A 
ATOM     16  S   UNL d   1      32.854  19.410 -23.612  0.00  0.00    -0.066 SA
ENDBRANCH   3   8
BRANCH   1  17
ATOM     17  S   UNL d   1      30.947  16.647 -24.214  0.00  0.00     0.271 S 
ATOM     18  O   UNL d   1      30.819  17.055 -24.927  0.00  0.00    -0.200 OA
ATOM     19  O   UNL d   1      31.094  16.182 -23.398  0.00  0.00    -0.200 OA
BRANCH  17  20
ATOM     20  N   UNL d   1      30.200  16.309 -24.210  0.00  0.00    -0.229 N 
ATOM     21  C   UNL d   1      29.892  15.821 -23.616  0.00  0.00     0.092 A 
ATOM     22  C   UNL d   1      29.127  15.604 -23.832  0.00  0.00     0.021 A 
ATOM     23  C   UNL d   1      28.955  15.958 -24.565  0.00  0.00     0.021 A 
ATOM     24  C   UNL d   1      29.619  16.391 -24.793  0.00  0.00     0.092 A 
ENDBRANCH  17  20
ENDBRANCH   1  17
TORSDOF 3
ENDMDL
MODEL 2
REMARK VINA RESULT:      -3.0      1.412      2.021
REMARK  3 active torsions:
REMARK  status: ('A' for Active; 'I' for Inactive)
REMARK    1  A    between atoms: C_4  and  S_1 
REMARK    2  A    between atoms: N_6  and  S_1 
REMARK    3  A    between atoms: C_2  and  C_8 
ROOT
ATOM      1  C   UNL d   1      32.629  18.359 -23.702  0.00  0.00     0.104 A 
ATOM      2  C   UNL d   1      32.685  18.858 -23.048  0.00  0.00     0.015 A 
ATOM      3  C   UNL d   1      32.992  19.622 -23.141  0.00  0.00     0.025 A 
ATOM      4  C   UNL d   1      32.877  18.617 -24.446  0.00  0.00     0.012 A 
ATOM      5  C   UNL d   1      33.241  19.883 -23.883  0.00  0.00     0.002 A 
ATOM      6  C   UNL d   1      33.181  19.376 -24.534  0.00  0.00     0.001 A 
ATOM      7  C   UNL d   1      32.819  18.116 -25.097  0.00  0.00     0.001 C 
ENDROOT
BRANCH   3   8
ATOM      8  C   UNL d   1      33.050  20.126 -22.487  0.00  0.00     0.111 A 
ATOM      9  N   UNL d   1      33.086  19.885 -21.700  0.00  0.00    -0.239 NA
ATOM     10  C   UNL d   1      33.140  20.564 -21.229  0.00  0.00     0.088 A 
ATOM     11  C   UNL d   1      33.191  20.674 -20.418  0.00  0.00     0.020 A 
ATOM     12  C   UNL d   1      33.138  21.219 -21.734  0.00  0.00     0.049 A 
ATOM     13  C   UNL d   1      33.240  21.428 -20.106  0.00  0.00     0.002 A 
ATOM     14  C   UNL d   1      33.238  22.089 -20.610  0.00  0.00     0.001 A 
ATOM     15  C   UNL d   1      33.187  21.981 -21.426  0.00  0.00     0.008 A 
ATOM     16  S   UNL d   1      33.082  20.941 -22.517  0.00  0.00    -0.066 SA
ENDBRANCH   3   8
BRANCH   1  17
ATOM     17  S   UNL d   1      32.322  17.592 -23.618  0.00  0.00     0.271 S 
ATOM     18  O   UNL d   1      31.589  17.859 -23.905  0.00  0.00    -0.200 OA
ATOM     19  O   UNL d   1      33.160  17.287 -23.290  0.00  0.00    -0.200 OA
BRANCH  17  20
ATOM     20  N   UNL d   1      32.063  16.820 -23.517  0.00  0.00    -0.229 N 
ATOM     21  C   UNL d   1      32.515  16.191 -23.226  0.00  0.00     0.092 A 
ATOM     22  C   UNL d   1      32.043  15.516 -23.216  0.00  0.00     0.021 A 
ATOM     23  C   UNL d   1      31.290  15.725 -23.503  0.00  0.00     0.021 A 
ATOM     24  C   UNL d   1      31.307  16.528 -23.687  0.00  0.00     0.092 A 
ENDBRANCH  17  20
ENDBRANCH   1  17
TORSDOF 3
ENDMDL
MODEL 3
REMARK VINA RESULT:      -1.9      1.532      4.661
REMARK  3 active torsions:
REMARK  status: ('A' for Active; 'I' for Inactive)
REMARK    1  A    between atoms: C_4  and  S_1 
REMARK    2  A    between atoms: N_6  and  S_1 
REMARK    3  A    between atoms: C_2  and  C_8 
ROOT
ATOM      1  C   UNL d   1      31.944  17.016 -23.801  0.00  0.00     0.104 A 
ATOM      2  C   UNL d   1      31.140  16.863 -23.895  0.00  0.00     0.015 A 
ATOM      3  C   UNL d   1      30.823  16.152 -23.610  0.00  0.00     0.025 A 
ATOM      4  C   UNL d   1      32.433  16.467 -23.426  0.00  0.00     0.012 A 
ATOM      5  C   UNL d   1      31.308  15.601 -23.234  0.00  0.00     0.002 A 
ATOM      6  C   UNL d   1      32.114  15.763 -23.144  0.00  0.00     0.001 A 
ATOM      7  C   UNL d   1      33.236  16.624 -23.334  0.00  0.00     0.001 C 
ENDROOT
BRANCH   3   8
ATOM      8  C   UNL d   1      30.016  15.994 -23.702  0.00  0.00     0.111 A 
ATOM      9  N   UNL d   1      29.621  15.932 -24.422  0.00  0.00    -0.239 NA
ATOM     10  C   UNL d   1      28.824  15.770 -24.261  0.00  0.00     0.088 A 
ATOM     11  C   UNL d   1      28.174  15.651 -24.746  0.00  0.00     0.020 A 
ATOM     12  C   UNL d   1      28.738  15.734 -23.440  0.00  0.00     0.049 A 
ATOM     13  C   UNL d   1      27.440  15.498 -24.421  0.00  0.00     0.002 A 
ATOM     14  C   UNL d   1      27.348  15.461 -23.596  0.00  0.00     0.001 A 
ATOM     15  C   UNL d   1      28.001  15.580 -23.106  0.00  0.00     0.008 A 
ATOM     16  S   UNL d   1      29.483  15.874 -23.096  0.00  0.00    -0.066 SA
ENDBRANCH   3   8
BRANCH   1  17
ATOM     17  S   UNL d   1      32.271  17.726 -24.085  0.00  0.00     0.271 S 
ATOM     18  O   UNL d   1      32.503  17.335 -24.781  0.00  0.00    -0.200 OA
ATOM     19  O   UNL d   1      32.005  18.172 -23.288  0.00  0.00    -0.200 OA
BRANCH  17  20
ATOM     20  N   UNL d   1      32.578  18.449 -24.322  0.00  0.00    -0.229 N 
ATOM     21  C   UNL d   1      32.782  18.657 -25.096  0.00  0.00     0.092 A 
ATOM     22  C   UNL d   1      33.068  19.430 -25.088  0.00  0.00     0.021 A 
ATOM     23  C   UNL d   1      33.042  19.706 -24.304  0.00  0.00     0.021 A 
ATOM     24  C   UNL d   1      32.740  19.099 -23.836  0.00  0.00     0.092 A 
ENDBRANCH  17  20
ENDBRANCH   1  17
TORSDOF 3
ENDMDL
MODEL 4
REMARK VINA RESULT:      -0.8      2.091      4.783
REMARK  3 active torsions:
REMARK  status: ('A' for Active; 'I' for Inactive)
REMARK    1  A    between atoms: C_4  and  S_1 
REMARK    2  A    between atoms: N_6  and  S_1 
REMARK    3  A    between atoms: C_2  and  C_8 
ROOT
ATOM      1  C   UNL d   1      32.859  20.353 -22.835  0.00  0.00     0.104 A 
ATOM      2  C   UNL d   1      32.732  19.538 -22.816  0.00  0.00     0.015 A 
ATOM      3  C   UNL d   1      32.851  19.090 -23.503  0.00  0.00     0.025 A 
ATOM      4  C   UNL d   1      33.102  20.721 -23.532  0.00  0.00     0.012 A 
ATOM      5  C   UNL d   1      33.095  19.454 -24.201  0.00  0.00     0.002 A 
ATOM      6  C   UNL d   1      33.220  20.272 -24.212  0.00  0.00     0.001 A 
ATOM      7  C   UNL d   1      33.228  21.535 -23.547  0.00  0.00     0.001 C 
ENDROOT
BRANCH   3   8
ATOM      8  C   UNL d   1      32.725  18.272 -23.488  0.00  0.00     0.111 A 
ATOM      9  N   UNL d   1      33.236  17.716 -23.160  0.00  0.00    -0.239 NA
ATOM     10  C   UNL d   1      32.898  16.967 -23.266  0.00  0.00     0.088 A 
ATOM     11  C   UNL d   1      33.145  16.212 -23.059  0.00  0.00     0.020 A 
ATOM     12  C   UNL d   1      32.179  17.071 -23.660  0.00  0.00     0.049 A 
ATOM     13  C   UNL d   1      32.684  15.563 -23.240  0.00  0.00     0.002 A 
ATOM     14  C   UNL d   1      31.960  15.663 -23.636  0.00  0.00     0.001 A 
ATOM     15  C   UNL d   1      31.709  16.421 -23.845  0.00  0.00     0.008 A 
ATOM     16  S   UNL d   1      32.075  17.885 -23.796  0.00  0.00    -0.066 SA
ENDBRANCH   3   8
BRANCH   1  17
ATOM     17  S   UNL d   1      32.741  20.810 -22.151  0.00  0.00     0.271 S 
ATOM     18  O   UNL d   1      32.367  21.393 -22.612  0.00  0.00    -0.200 OA
ATOM     19  O   UNL d   1      33.169  20.143 -21.626  0.00  0.00    -0.200 OA
BRANCH  17  20
ATOM     20  N   UNL d   1      32.648  21.226 -21.450  0.00  0.00    -0.229 N 
ATOM     21  C   UNL d   1      31.940  21.545 -21.167  0.00  0.00     0.092 A 
ATOM     22  C   UNL d   1      32.094  21.916 -20.447  0.00  0.00     0.021 A 
ATOM     23  C   UNL d   1      32.904  21.828 -20.280  0.00  0.00     0.021 A 
ATOM     24  C   UNL d   1      33.241  21.402 -20.900  0.00  0.00     0.092 A 
ENDBRANCH  17  20
ENDBRANCH   1  17
TORSDOF 3
ENDMDL
