MODEL 1
REMARK VINA RESULT:      31.8      0.000      0.000
REMARK  6 active torsions:
REMARK  status: ('A' for Active; 'I' for Inactive)
REMARK    1  A    between atoms: C_8  and  C_1 
REMARK    2  A    between atoms: C_13  and  N_2 
REMARK    3  A    between atoms: C_7  and  C_4 
REMARK    4  A    between atoms: C_6  and  C_8 
REMARK    5  A    between atoms: C_21  and  C_13 
REMARK    6  A    between atoms: N_22  and  C_21 
ROOT
ATOM      1  C   UNL d   1      46.000 -17.205  43.604  0.00  0.00     0.103 A 
ATOM      2  N   UNL d   1      46.417 -18.041  42.651  0.00  0.00    -0.267 N 
ATOM      3  C   UNL d   1      46.165 -16.760  42.927  0.00  0.00     0.256 A 
ATOM      4  C   UNL d   1      46.156 -17.992  43.431  0.00  0.00     0.096 A 
ATOM      5  C   UNL d   1      46.423 -17.277  42.337  0.00  0.00     0.304 A 
ATOM      6  O   UNL d   1      46.646 -17.060  41.570  0.00  0.00    -0.263 OA
ATOM      7  O   UNL d   1      46.087 -15.938  42.849  0.00  0.00    -0.281 OA
ENDROOT
BRANCH   1   8
ATOM      8  C   UNL d   1      45.728 -16.908  44.320  0.00  0.00     0.223 C 
ATOM      9  O   UNL d   1      45.588 -17.421  44.955  0.00  0.00    -0.284 OA
BRANCH   8  10
ATOM     10  C   UNL d   1      45.591 -16.099  44.419  0.00  0.00     0.139 A 
ATOM     11  O   UNL d   1      46.162 -15.502  44.446  0.00  0.00    -0.304 OA
ATOM     12  C   UNL d   1      45.772 -14.784  44.553  0.00  0.00     0.100 A 
ATOM     13  C   UNL d   1      46.051 -14.017  44.619  0.00  0.00     0.025 A 
ATOM     14  C   UNL d   1      44.968 -14.932  44.592  0.00  0.00     0.025 A 
ATOM     15  C   UNL d   1      45.527 -13.399  44.724  0.00  0.00     0.002 A 
ATOM     16  C   UNL d   1      44.722 -13.546  44.763  0.00  0.00     0.000 A 
ATOM     17  C   UNL d   1      44.438 -14.311  44.698  0.00  0.00     0.002 A 
ATOM     18  C   UNL d   1      44.857 -15.748  44.509  0.00  0.00     0.030 A 
ENDBRANCH   8  10
ENDBRANCH   1   8
BRANCH   4  19
ATOM     19  C   UNL d   1      46.064 -18.633  43.959  0.00  0.00     0.116 A 
ATOM     20  O   UNL d   1      45.457 -19.183  44.043  0.00  0.00    -0.306 OA
ATOM     21  C   UNL d   1      45.656 -19.691  44.652  0.00  0.00     0.100 A 
ATOM     22  C   UNL d   1      45.206 -20.328  44.926  0.00  0.00     0.027 C 
ATOM     23  C   UNL d   1      46.390 -19.465  44.954  0.00  0.00     0.027 A 
ATOM     24  C   UNL d   1      46.645 -18.803  44.521  0.00  0.00     0.028 A 
ENDBRANCH   4  19
BRANCH   2  25
ATOM     25  C   UNL d   1      46.636 -18.727  42.247  0.00  0.00     0.102 C 
BRANCH  25  26
ATOM     26  C   UNL d   1      46.217 -18.961  41.572  0.00  0.00     0.100 C 
BRANCH  26  27
ATOM     27  N   UNL d   1      46.487 -19.593  41.110  0.00  0.00    -0.299 N 
ATOM     28  C   UNL d   1      46.642 -19.476  40.308  0.00  0.00     0.100 C 
ATOM     29  C   UNL d   1      46.598 -20.330  41.456  0.00  0.00     0.100 C 
ENDBRANCH  26  27
ENDBRANCH  25  26
ENDBRANCH   2  25
TORSDOF 6
ENDMDL
