MODEL 1
REMARK VINA RESULT:      64.5      0.000      0.000
REMARK  5 active torsions:
REMARK  status: ('A' for Active; 'I' for Inactive)
REMARK    1  A    between atoms: C_9  and  N_1 
REMARK    2  A    between atoms: C_6  and  C_2 
REMARK    3  A    between atoms: O_10  and  C_6 
REMARK    4  A    between atoms: C_13  and  C_9 
REMARK    5  A    between atoms: C_19  and  O_10 
ROOT
ATOM      1  N   UNL d   1     -58.697 -98.807 -45.450  0.00  0.00    -0.271 N 
ATOM      2  C   UNL d   1     -57.463 -98.885 -44.964  0.00  0.00     0.120 A 
ATOM      3  C   UNL d   1     -57.902 -98.852 -45.662  0.00  0.00     0.177 A 
ATOM      4  C   UNL d   1     -58.748 -98.812 -44.627  0.00  0.00     0.167 A 
ATOM      5  C   UNL d   1     -57.990 -98.859 -44.328  0.00  0.00     0.124 A 
ATOM      6  N   UNL d   1     -59.395 -98.778 -44.117  0.00  0.00    -0.225 NA
ATOM      7  N   UNL d   1     -57.866 -98.874 -43.514  0.00  0.00    -0.241 NA
ATOM      8  C   UNL d   1     -59.280 -98.793 -43.307  0.00  0.00     0.101 A 
ATOM      9  C   UNL d   1     -58.513 -98.841 -43.008  0.00  0.00     0.099 A 
ATOM     10  N   UNL d   1     -57.603 -98.862 -46.434  0.00  0.00    -0.128 N 
ATOM     11  C   UNL d   1     -59.927 -98.759 -42.804  0.00  0.00     0.021 A 
ATOM     12  C   UNL d   1     -58.401 -98.856 -42.185  0.00  0.00     0.021 A 
ATOM     13  C   UNL d   1     -59.807 -98.774 -41.982  0.00  0.00     0.002 A 
ATOM     14  C   UNL d   1     -59.049 -98.822 -41.687  0.00  0.00     0.002 A 
ENDROOT
BRANCH   2  15
ATOM     15  C   UNL d   1     -56.633 -98.934 -44.914  0.00  0.00     0.300 C 
ATOM     16  O   UNL d   1     -56.176 -98.793 -45.571  0.00  0.00    -0.259 OA
BRANCH  15  17
ATOM     17  O   UNL d   1     -56.277 -99.128 -44.187  0.00  0.00    -0.303 OA
BRANCH  17  18
ATOM     18  C   UNL d   1     -55.525 -99.465 -44.185  0.00  0.00     0.102 C 
ATOM     19  C   UNL d   1     -55.636 -99.719 -43.400  0.00  0.00     0.030 C 
ATOM     20  C   UNL d   1     -55.408 -99.216 -44.966  0.00  0.00     0.030 C 
ATOM     21  C   UNL d   1     -54.765 -99.804 -44.188  0.00  0.00     0.030 C 
ENDBRANCH  17  18
ENDBRANCH  15  17
ENDBRANCH   2  15
BRANCH   1  22
ATOM     22  C   UNL d   1     -59.332 -98.764 -45.973  0.00  0.00     0.108 C 
BRANCH  22  23
ATOM     23  C   UNL d   1     -59.373 -99.285 -46.617  0.00  0.00     0.118 A 
ATOM     24  O   UNL d   1     -58.831 -99.884 -46.788  0.00  0.00    -0.304 OA
ATOM     25  C   UNL d   1     -59.089-100.264 -47.479  0.00  0.00     0.123 A 
ATOM     26  C   UNL d   1     -59.780 -99.896 -47.720  0.00  0.00     0.029 A 
ATOM     27  C   UNL d   1     -59.957 -99.295 -47.194  0.00  0.00     0.028 A 
ENDBRANCH  22  23
ENDBRANCH   1  22
TORSDOF 5
ENDMDL
MODEL 2
REMARK VINA RESULT:      65.8      1.007      3.204
REMARK  5 active torsions:
REMARK  status: ('A' for Active; 'I' for Inactive)
REMARK    1  A    between atoms: C_9  and  N_1 
REMARK    2  A    between atoms: C_6  and  C_2 
REMARK    3  A    between atoms: O_10  and  C_6 
REMARK    4  A    between atoms: C_13  and  C_9 
REMARK    5  A    between atoms: C_19  and  O_10 
ROOT
ATOM      1  N   UNL d   1     -58.667 -98.833 -44.323  0.00  0.00    -0.271 N 
ATOM      2  C   UNL d   1     -57.444 -98.967 -44.825  0.00  0.00     0.120 A 
ATOM      3  C   UNL d   1     -57.871 -98.910 -44.122  0.00  0.00     0.177 A 
ATOM      4  C   UNL d   1     -58.730 -98.842 -45.145  0.00  0.00     0.167 A 
ATOM      5  C   UNL d   1     -57.978 -98.925 -45.454  0.00  0.00     0.124 A 
ATOM      6  N   UNL d   1     -59.382 -98.786 -45.647  0.00  0.00    -0.225 NA
ATOM      7  N   UNL d   1     -57.867 -98.953 -46.270  0.00  0.00    -0.241 NA
ATOM      8  C   UNL d   1     -59.279 -98.812 -46.458  0.00  0.00     0.101 A 
ATOM      9  C   UNL d   1     -58.518 -98.896 -46.767  0.00  0.00     0.099 A 
ATOM     10  N   UNL d   1     -57.562 -98.926 -43.354  0.00  0.00    -0.128 N 
ATOM     11  C   UNL d   1     -59.931 -98.755 -46.952  0.00  0.00     0.021 A 
ATOM     12  C   UNL d   1     -58.419 -98.922 -47.591  0.00  0.00     0.021 A 
ATOM     13  C   UNL d   1     -59.823 -98.783 -47.775  0.00  0.00     0.002 A 
ATOM     14  C   UNL d   1     -59.071 -98.865 -48.080  0.00  0.00     0.002 A 
ENDROOT
BRANCH   2  15
ATOM     15  C   UNL d   1     -56.618 -99.053 -44.886  0.00  0.00     0.300 C 
ATOM     16  O   UNL d   1     -56.254 -98.991 -45.611  0.00  0.00    -0.259 OA
BRANCH  15  17
ATOM     17  O   UNL d   1     -56.170 -99.201 -44.201  0.00  0.00    -0.303 OA
BRANCH  17  18
ATOM     18  C   UNL d   1     -55.529 -99.717 -44.245  0.00  0.00     0.102 C 
ATOM     19  C   UNL d   1     -56.046-100.359 -44.354  0.00  0.00     0.030 C 
ATOM     20  C   UNL d   1     -55.007 -99.083 -44.136  0.00  0.00     0.030 C 
ATOM     21  C   UNL d   1     -54.878-100.234 -44.288  0.00  0.00     0.030 C 
ENDBRANCH  17  18
ENDBRANCH  15  17
ENDBRANCH   2  15
BRANCH   1  22
ATOM     22  C   UNL d   1     -59.292 -98.758 -43.792  0.00  0.00     0.108 C 
BRANCH  22  23
ATOM     23  C   UNL d   1     -59.456 -99.371 -43.258  0.00  0.00     0.118 A 
ATOM     24  O   UNL d   1     -59.641-100.150 -43.459  0.00  0.00    -0.304 OA
ATOM     25  C   UNL d   1     -59.762-100.569 -42.753  0.00  0.00     0.123 A 
ATOM     26  C   UNL d   1     -59.650-100.045 -42.134  0.00  0.00     0.029 A 
ATOM     27  C   UNL d   1     -59.462 -99.309 -42.439  0.00  0.00     0.028 A 
ENDBRANCH  22  23
ENDBRANCH   1  22
TORSDOF 5
ENDMDL
