MODEL 1
REMARK VINA RESULT:     -12.2      0.000      0.000
REMARK  6 active torsions:
REMARK  status: ('A' for Active; 'I' for Inactive)
REMARK    1  A    between atoms: C_2  and  C_1 
REMARK       I    between atoms: N_3  and  C_2 
REMARK    2  A    between atoms: C_24  and  N_3 
REMARK    3  A    between atoms: C_4  and  C_10 
REMARK    4  A    between atoms: C_9  and  C_4 
REMARK    5  A    between atoms: C_8  and  C_9 
REMARK    6  A    between atoms: C_10  and  C_15 
ROOT
ATOM      1  C   UNL d   1      51.961  34.280  53.227  0.00  0.00     0.039 A 
ATOM      2  C   UNL d   1      53.198  34.375  54.329  0.00  0.00     0.084 A 
ATOM      3  C   UNL d   1      52.693  34.688  53.023  0.00  0.00     0.005 A 
ATOM      4  C   UNL d   1      51.885  33.945  53.962  0.00  0.00     0.005 A 
ATOM      5  C   UNL d   1      53.286  34.726  53.568  0.00  0.00     0.019 A 
ATOM      6  C   UNL d   1      52.481  33.986  54.504  0.00  0.00     0.019 A 
ENDROOT
BRANCH   2   7
ATOM      7  N   UNL d   1      53.790  34.413  54.874  0.00  0.00    -0.212 NA
ATOM      8  C   UNL d   1      54.346  33.829  54.935  0.00  0.00     0.259 C 
ATOM      9  O   UNL d   1      54.962  33.857  55.495  0.00  0.00    -0.270 OA
BRANCH   8  10
ATOM     10  C   UNL d   1      54.312  33.176  54.430  0.00  0.00     0.092 A 
ATOM     11  C   UNL d   1      54.473  32.851  53.690  0.00  0.00     0.017 A 
ATOM     12  C   UNL d   1      54.268  32.102  53.563  0.00  0.00     0.023 A 
ATOM     13  C   UNL d   1      54.597  32.778  53.283  0.00  0.00    -0.027 A 
ATOM     14  C   UNL d   1      53.903  31.657  54.158  0.00  0.00     0.009 A 
ATOM     15  C   UNL d   1      54.435  33.102  54.024  0.00  0.00    -0.012 A 
ATOM     16  C   UNL d   1      54.641  33.874  54.168  0.00  0.00    -0.018 A 
ATOM     17  C   UNL d   1      54.070  32.637  54.600  0.00  0.00    -0.027 A 
ATOM     18  C   UNL d   1      53.766  31.977  54.827  0.00  0.00     0.023 A 
ATOM     19  C   UNL d   1      53.947  32.711  55.006  0.00  0.00     0.017 A 
ENDBRANCH   8  10
ENDBRANCH   2   7
BRANCH   1  20
ATOM     20  C   UNL d   1      51.356  34.245  52.661  0.00  0.00     0.196 C 
ATOM     21  O   UNL d   1      51.520  33.914  51.946  0.00  0.00    -0.287 OA
BRANCH  20  22
ATOM     22  C   UNL d   1      50.608  34.543  52.833  0.00  0.00     0.044 C 
BRANCH  22  23
ATOM     23  C   UNL d   1      50.013  34.535  52.256  0.00  0.00     0.028 C 
BRANCH  23  24
ATOM     24  C   UNL d   1      49.303  34.935  52.393  0.00  0.00     0.100 A 
ATOM     25  O   UNL d   1      49.071  35.320  53.069  0.00  0.00    -0.305 OA
ATOM     26  C   UNL d   1      48.337  35.635  52.964  0.00  0.00     0.123 A 
ATOM     27  C   UNL d   1      48.089  35.448  52.200  0.00  0.00     0.029 A 
ATOM     28  C   UNL d   1      48.694  35.005  51.831  0.00  0.00     0.027 A 
ENDBRANCH  23  24
ENDBRANCH  22  23
ENDBRANCH  20  22
ENDBRANCH   1  20
TORSDOF 6
ENDMDL
MODEL 2
REMARK VINA RESULT:     -10.7      1.928      4.582
REMARK  6 active torsions:
REMARK  status: ('A' for Active; 'I' for Inactive)
REMARK    1  A    between atoms: C_2  and  C_1 
REMARK       I    between atoms: N_3  and  C_2 
REMARK    2  A    between atoms: C_24  and  N_3 
REMARK    3  A    between atoms: C_4  and  C_10 
REMARK    4  A    between atoms: C_9  and  C_4 
REMARK    5  A    between atoms: C_8  and  C_9 
REMARK    6  A    between atoms: C_10  and  C_15 
ROOT
ATOM      1  C   UNL d   1      53.180  31.977  53.438  0.00  0.00     0.039 A 
ATOM      2  C   UNL d   1      53.210  33.585  53.845  0.00  0.00     0.084 A 
ATOM      3  C   UNL d   1      53.710  32.519  53.026  0.00  0.00     0.005 A 
ATOM      4  C   UNL d   1      52.698  32.262  54.025  0.00  0.00     0.005 A 
ATOM      5  C   UNL d   1      53.714  33.298  53.234  0.00  0.00     0.019 A 
ATOM      6  C   UNL d   1      52.706  33.043  54.229  0.00  0.00     0.019 A 
ENDROOT
BRANCH   2   7
ATOM      7  N   UNL d   1      53.213  34.363  54.053  0.00  0.00    -0.212 NA
ATOM      8  C   UNL d   1      52.704  34.893  53.715  0.00  0.00     0.259 C 
ATOM      9  O   UNL d   1      52.698  35.700  53.922  0.00  0.00    -0.270 OA
BRANCH   8  10
ATOM     10  C   UNL d   1      52.166  34.637  53.143  0.00  0.00     0.092 A 
ATOM     11  C   UNL d   1      52.021  34.419  52.361  0.00  0.00     0.017 A 
ATOM     12  C   UNL d   1      51.289  34.209  52.166  0.00  0.00     0.023 A 
ATOM     13  C   UNL d   1      52.050  34.326  51.941  0.00  0.00    -0.027 A 
ATOM     14  C   UNL d   1      50.684  34.207  52.731  0.00  0.00     0.009 A 
ATOM     15  C   UNL d   1      52.193  34.544  52.723  0.00  0.00    -0.012 A 
ATOM     16  C   UNL d   1      52.944  34.763  52.939  0.00  0.00    -0.018 A 
ATOM     17  C   UNL d   1      51.573  34.534  53.268  0.00  0.00    -0.027 A 
ATOM     18  C   UNL d   1      50.842  34.410  53.440  0.00  0.00     0.023 A 
ATOM     19  C   UNL d   1      51.545  34.627  53.687  0.00  0.00     0.017 A 
ENDBRANCH   8  10
ENDBRANCH   2   7
BRANCH   1  20
ATOM     20  C   UNL d   1      53.182  31.177  53.218  0.00  0.00     0.196 C 
ATOM     21  O   UNL d   1      52.961  30.986  52.469  0.00  0.00    -0.287 OA
BRANCH  20  22
ATOM     22  C   UNL d   1      53.405  30.598  53.759  0.00  0.00     0.044 C 
BRANCH  22  23
ATOM     23  C   UNL d   1      53.222  29.802  53.618  0.00  0.00     0.028 C 
BRANCH  23  24
ATOM     24  C   UNL d   1      53.308  29.246  54.223  0.00  0.00     0.100 A 
ATOM     25  O   UNL d   1      52.904  29.210  54.927  0.00  0.00    -0.305 OA
ATOM     26  C   UNL d   1      53.161  28.580  55.355  0.00  0.00     0.123 A 
ATOM     27  C   UNL d   1      53.746  28.198  54.918  0.00  0.00     0.029 A 
ATOM     28  C   UNL d   1      53.846  28.613  54.199  0.00  0.00     0.027 A 
ENDBRANCH  23  24
ENDBRANCH  22  23
ENDBRANCH  20  22
ENDBRANCH   1  20
TORSDOF 6
ENDMDL
MODEL 3
REMARK VINA RESULT:     -10.7      2.386      4.151
REMARK  6 active torsions:
REMARK  status: ('A' for Active; 'I' for Inactive)
REMARK    1  A    between atoms: C_2  and  C_1 
REMARK       I    between atoms: N_3  and  C_2 
REMARK    2  A    between atoms: C_24  and  N_3 
REMARK    3  A    between atoms: C_4  and  C_10 
REMARK    4  A    between atoms: C_9  and  C_4 
REMARK    5  A    between atoms: C_8  and  C_9 
REMARK    6  A    between atoms: C_10  and  C_15 
ROOT
ATOM      1  C   UNL d   1      52.893  32.018  53.102  0.00  0.00     0.039 A 
ATOM      2  C   UNL d   1      52.996  33.646  53.402  0.00  0.00     0.084 A 
ATOM      3  C   UNL d   1      53.558  32.474  52.795  0.00  0.00     0.005 A 
ATOM      4  C   UNL d   1      52.320  32.393  53.538  0.00  0.00     0.005 A 
ATOM      5  C   UNL d   1      53.595  33.264  52.949  0.00  0.00     0.019 A 
ATOM      6  C   UNL d   1      52.363  33.185  53.688  0.00  0.00     0.019 A 
ENDROOT
BRANCH   2   7
ATOM      7  N   UNL d   1      53.032  34.436  53.556  0.00  0.00    -0.212 NA
ATOM      8  C   UNL d   1      53.450  34.725  54.186  0.00  0.00     0.259 C 
ATOM      9  O   UNL d   1      53.495  35.539  54.354  0.00  0.00    -0.270 OA
BRANCH   8  10
ATOM     10  C   UNL d   1      53.851  34.203  54.686  0.00  0.00     0.092 A 
ATOM     11  C   UNL d   1      53.821  33.665  55.309  0.00  0.00     0.017 A 
ATOM     12  C   UNL d   1      54.493  33.325  55.535  0.00  0.00     0.023 A 
ATOM     13  C   UNL d   1      53.701  33.406  55.633  0.00  0.00    -0.027 A 
ATOM     14  C   UNL d   1      55.207  33.506  55.157  0.00  0.00     0.009 A 
ATOM     15  C   UNL d   1      53.732  33.945  55.009  0.00  0.00    -0.012 A 
ATOM     16  C   UNL d   1      53.046  34.303  54.765  0.00  0.00    -0.018 A 
ATOM     17  C   UNL d   1      54.457  34.108  54.649  0.00  0.00    -0.027 A 
ATOM     18  C   UNL d   1      55.208  34.002  54.590  0.00  0.00     0.023 A 
ATOM     19  C   UNL d   1      54.576  34.366  54.325  0.00  0.00     0.017 A 
ENDBRANCH   8  10
ENDBRANCH   2   7
BRANCH   1  20
ATOM     20  C   UNL d   1      52.862  31.204  52.940  0.00  0.00     0.196 C 
ATOM     21  O   UNL d   1      52.530  30.965  52.248  0.00  0.00    -0.287 OA
BRANCH  20  22
ATOM     22  C   UNL d   1      53.164  30.661  53.480  0.00  0.00     0.044 C 
BRANCH  22  23
ATOM     23  C   UNL d   1      52.953  29.862  53.431  0.00  0.00     0.028 C 
BRANCH  23  24
ATOM     24  C   UNL d   1      53.146  29.346  54.046  0.00  0.00     0.100 A 
ATOM     25  O   UNL d   1      52.722  29.198  54.723  0.00  0.00    -0.305 OA
ATOM     26  C   UNL d   1      53.111  28.658  55.175  0.00  0.00     0.123 A 
ATOM     27  C   UNL d   1      53.805  28.451  54.780  0.00  0.00     0.029 A 
ATOM     28  C   UNL d   1      53.835  28.882  54.064  0.00  0.00     0.027 A 
ENDBRANCH  23  24
ENDBRANCH  22  23
ENDBRANCH  20  22
ENDBRANCH   1  20
TORSDOF 6
ENDMDL
MODEL 4
REMARK VINA RESULT:     -10.2      1.388      2.172
REMARK  6 active torsions:
REMARK  status: ('A' for Active; 'I' for Inactive)
REMARK    1  A    between atoms: C_2  and  C_1 
REMARK       I    between atoms: N_3  and  C_2 
REMARK    2  A    between atoms: C_24  and  N_3 
REMARK    3  A    between atoms: C_4  and  C_10 
REMARK    4  A    between atoms: C_9  and  C_4 
REMARK    5  A    between atoms: C_8  and  C_9 
REMARK    6  A    between atoms: C_10  and  C_15 
ROOT
ATOM      1  C   UNL d   1      50.458  34.148  52.600  0.00  0.00     0.039 A 
ATOM      2  C   UNL d   1      51.862  33.322  52.915  0.00  0.00     0.084 A 
ATOM      3  C   UNL d   1      51.124  34.202  52.055  0.00  0.00     0.005 A 
ATOM      4  C   UNL d   1      50.526  33.690  53.267  0.00  0.00     0.005 A 
ATOM      5  C   UNL d   1      51.800  33.795  52.220  0.00  0.00     0.019 A 
ATOM      6  C   UNL d   1      51.205  33.285  53.427  0.00  0.00     0.019 A 
ENDROOT
BRANCH   2   7
ATOM      7  N   UNL d   1      52.537  32.916  53.081  0.00  0.00    -0.212 NA
ATOM      8  C   UNL d   1      53.153  33.263  53.474  0.00  0.00     0.259 C 
ATOM      9  O   UNL d   1      53.856  32.853  53.652  0.00  0.00    -0.270 OA
BRANCH   8  10
ATOM     10  C   UNL d   1      53.095  34.052  53.713  0.00  0.00     0.092 A 
ATOM     11  C   UNL d   1      53.102  34.850  53.510  0.00  0.00     0.017 A 
ATOM     12  C   UNL d   1      53.001  35.378  54.083  0.00  0.00     0.023 A 
ATOM     13  C   UNL d   1      53.121  35.229  53.304  0.00  0.00    -0.027 A 
ATOM     14  C   UNL d   1      52.891  35.136  54.867  0.00  0.00     0.009 A 
ATOM     15  C   UNL d   1      53.114  34.431  53.509  0.00  0.00    -0.012 A 
ATOM     16  C   UNL d   1      53.217  33.875  52.928  0.00  0.00    -0.018 A 
ATOM     17  C   UNL d   1      53.003  34.215  54.299  0.00  0.00    -0.027 A 
ATOM     18  C   UNL d   1      52.889  34.400  55.028  0.00  0.00     0.023 A 
ATOM     19  C   UNL d   1      52.984  33.836  54.502  0.00  0.00     0.017 A 
ENDBRANCH   8  10
ENDBRANCH   2   7
BRANCH   1  20
ATOM     20  C   UNL d   1      49.765  34.570  52.422  0.00  0.00     0.196 C 
ATOM     21  O   UNL d   1      49.466  34.518  51.678  0.00  0.00    -0.287 OA
BRANCH  20  22
ATOM     22  C   UNL d   1      49.398  35.028  53.000  0.00  0.00     0.044 C 
BRANCH  22  23
ATOM     23  C   UNL d   1      48.747  35.502  52.805  0.00  0.00     0.028 C 
BRANCH  23  24
ATOM     24  C   UNL d   1      48.348  35.915  53.398  0.00  0.00     0.100 A 
ATOM     25  O   UNL d   1      48.661  36.424  53.948  0.00  0.00    -0.305 OA
ATOM     26  C   UNL d   1      48.076  36.706  54.422  0.00  0.00     0.123 A 
ATOM     27  C   UNL d   1      47.365  36.371  54.173  0.00  0.00     0.029 A 
ATOM     28  C   UNL d   1      47.527  35.869  53.525  0.00  0.00     0.027 A 
ENDBRANCH  23  24
ENDBRANCH  22  23
ENDBRANCH  20  22
ENDBRANCH   1  20
TORSDOF 6
ENDMDL
