MODEL 1
REMARK VINA RESULT:      -0.3      0.000      0.000
REMARK  6 active torsions:
REMARK  status: ('A' for Active; 'I' for Inactive)
REMARK    1  A    between atoms: C_6  and  N_1 
REMARK    2  A    between atoms: C_5  and  C_3 
REMARK    3  A    between atoms: C_9  and  C_4 
REMARK    4  A    between atoms: N_12  and  C_6 
REMARK    5  A    between atoms: O_21  and  C_8 
REMARK    6  A    between atoms: O_22  and  C_16 
ROOT
ATOM      1  N   UNL d   1      31.835  18.011 -24.517  0.00  0.00    -0.203 N 
ATOM      2  N   UNL d   1      31.228  17.619 -24.893  0.00  0.00    -0.163 NA
ATOM      3  C   UNL d   1      31.779  17.862 -23.698  0.00  0.00     0.089 A 
ATOM      4  C   UNL d   1      30.787  17.226 -24.350  0.00  0.00     0.103 A 
ATOM      5  C   UNL d   1      31.117  17.367 -23.598  0.00  0.00     0.040 A 
ENDROOT
BRANCH   3   6
ATOM      6  C   UNL d   1      32.266  18.135 -23.091  0.00  0.00     0.042 A 
ATOM      7  C   UNL d   1      32.701  17.593 -22.649  0.00  0.00     0.096 A 
ATOM      8  C   UNL d   1      33.194  17.852 -22.036  0.00  0.00     0.026 A 
ATOM      9  C   UNL d   1      33.239  18.651 -21.880  0.00  0.00     0.026 A 
ATOM     10  C   UNL d   1      32.804  19.196 -22.322  0.00  0.00     0.094 A 
ATOM     11  C   UNL d   1      32.315  18.918 -22.932  0.00  0.00     0.028 A 
BRANCH   7  12
ATOM     12  O   UNL d   1      32.658  16.762 -22.807  0.00  0.00    -0.328 OA
ATOM     13  C   UNL d   1      33.058  16.232 -22.326  0.00  0.00     0.181 C 
ENDBRANCH   7  12
BRANCH  10  14
ATOM     14  O   UNL d   1      32.853  20.038 -22.155  0.00  0.00    -0.328 OA
ATOM     15  C   UNL d   1      33.157  20.302 -21.444  0.00  0.00     0.181 C 
ENDBRANCH  10  14
ENDBRANCH   3   6
BRANCH   1  16
ATOM     16  C   UNL d   1      32.416  18.484 -24.892  0.00  0.00     0.222 C 
ATOM     17  S   UNL d   1      33.164  18.152 -25.056  0.00  0.00    -0.037 SA
BRANCH  16  18
ATOM     18  N   UNL d   1      32.245  19.279 -25.097  0.00  0.00    -0.214 NA
ATOM     19  C   UNL d   1      32.790  19.891 -24.927  0.00  0.00     0.122 C 
ENDBRANCH  16  18
ENDBRANCH   1  16
BRANCH   4  20
ATOM     20  C   UNL d   1      30.132  16.774 -24.535  0.00  0.00     0.019 A 
ATOM     21  C   UNL d   1      30.210  15.992 -24.718  0.00  0.00     0.002 A 
ATOM     22  C   UNL d   1      29.554  15.532 -24.905  0.00  0.00     0.000 A 
ATOM     23  C   UNL d   1      28.798  15.895 -24.900  0.00  0.00     0.000 A 
ATOM     24  C   UNL d   1      28.725  16.695 -24.711  0.00  0.00     0.000 A 
ATOM     25  C   UNL d   1      28.126  15.453 -25.083  0.00  0.00     0.000 C 
ATOM     26  C   UNL d   1      29.386  17.133 -24.530  0.00  0.00     0.002 A 
ENDBRANCH   4  20
TORSDOF 6
ENDMDL
