MODEL 1
REMARK VINA RESULT:      -3.0      0.000      0.000
REMARK  2 active torsions:
REMARK  status: ('A' for Active; 'I' for Inactive)
REMARK    1  A    between atoms: C_4  and  C_1 
REMARK       I    between atoms: N_8  and  C_4 
REMARK    2  A    between atoms: O_12  and  C_11 
ROOT
ATOM      1  C   UNL d   1      29.916  16.476 -24.253  0.00  0.00     0.120 A 
ATOM      2  C   UNL d   1      29.973  17.281 -24.423  0.00  0.00     0.305 A 
ATOM      3  O   UNL d   1      30.702  17.674 -24.330  0.00  0.00    -0.271 OA
ATOM      4  C   UNL d   1      30.583  16.052 -23.987  0.00  0.00     0.012 A 
ATOM      5  C   UNL d   1      31.359  17.263 -24.070  0.00  0.00     0.125 A 
ATOM      6  C   UNL d   1      31.301  16.450 -23.898  0.00  0.00     0.025 A 
ATOM      7  O   UNL d   1      29.317  17.696 -24.684  0.00  0.00    -0.259 OA
ATOM      8  C   UNL d   1      32.087  17.644 -23.974  0.00  0.00     0.117 A 
ATOM      9  C   UNL d   1      31.965  16.034 -23.635  0.00  0.00     0.002 A 
ATOM     10  C   UNL d   1      32.683  16.428 -23.545  0.00  0.00     0.002 A 
ATOM     11  C   UNL d   1      32.743  17.229 -23.713  0.00  0.00     0.026 A 
ENDROOT
BRANCH   1  12
ATOM     12  C   UNL d   1      29.199  16.090 -24.345  0.00  0.00     0.270 C 
ATOM     13  N   UNL d   1      28.776  15.839 -23.691  0.00  0.00    -0.269 N 
ATOM     14  C   UNL d   1      29.075  15.977 -22.939  0.00  0.00     0.102 C 
ATOM     15  C   UNL d   1      28.059  15.453 -23.782  0.00  0.00     0.102 C 
ATOM     16  O   UNL d   1      28.900  15.951 -25.097  0.00  0.00    -0.266 OA
ENDBRANCH   1  12
BRANCH   8  17
ATOM     17  O   UNL d   1      32.148  18.445 -24.143  0.00  0.00    -0.326 OA
ATOM     18  C   UNL d   1      32.868  18.827 -24.065  0.00  0.00     0.181 C 
ENDBRANCH   8  17
TORSDOF 2
ENDMDL
MODEL 2
REMARK VINA RESULT:      -2.6      1.323      1.959
REMARK  2 active torsions:
REMARK  status: ('A' for Active; 'I' for Inactive)
REMARK    1  A    between atoms: C_4  and  C_1 
REMARK       I    between atoms: N_8  and  C_4 
REMARK    2  A    between atoms: O_12  and  C_11 
ROOT
ATOM      1  C   UNL d   1      31.067  16.997 -24.448  0.00  0.00     0.120 A 
ATOM      2  C   UNL d   1      31.336  16.889 -23.676  0.00  0.00     0.305 A 
ATOM      3  O   UNL d   1      31.932  17.385 -23.371  0.00  0.00    -0.271 OA
ATOM      4  C   UNL d   1      31.388  17.600 -24.927  0.00  0.00     0.012 A 
ATOM      5  C   UNL d   1      32.250  17.977 -23.836  0.00  0.00     0.125 A 
ATOM      6  C   UNL d   1      31.978  18.087 -24.616  0.00  0.00     0.025 A 
ATOM      7  O   UNL d   1      31.019  16.296 -23.207  0.00  0.00    -0.259 OA
ATOM      8  C   UNL d   1      32.842  18.475 -23.542  0.00  0.00     0.117 A 
ATOM      9  C   UNL d   1      32.300  18.686 -25.086  0.00  0.00     0.002 A 
ATOM     10  C   UNL d   1      32.889  19.172 -24.779  0.00  0.00     0.002 A 
ATOM     11  C   UNL d   1      33.159  19.067 -24.010  0.00  0.00     0.026 A 
ENDROOT
BRANCH   1  12
ATOM     12  C   UNL d   1      30.481  16.510 -24.748  0.00  0.00     0.270 C 
ATOM     13  N   UNL d   1      29.707  16.772 -24.797  0.00  0.00    -0.269 N 
ATOM     14  C   UNL d   1      29.522  17.531 -24.544  0.00  0.00     0.102 C 
ATOM     15  C   UNL d   1      29.121  16.286 -25.097  0.00  0.00     0.102 C 
ATOM     16  O   UNL d   1      30.666  15.751 -25.002  0.00  0.00    -0.266 OA
ENDBRANCH   1  12
BRANCH   8  17
ATOM     17  O   UNL d   1      33.112  18.370 -22.774  0.00  0.00    -0.326 OA
ATOM     18  C   UNL d   1      33.241  19.020 -22.292  0.00  0.00     0.181 C 
ENDBRANCH   8  17
TORSDOF 2
ENDMDL
MODEL 3
REMARK VINA RESULT:      -2.5      1.512      3.603
REMARK  2 active torsions:
REMARK  status: ('A' for Active; 'I' for Inactive)
REMARK    1  A    between atoms: C_4  and  C_1 
REMARK       I    between atoms: N_8  and  C_4 
REMARK    2  A    between atoms: O_12  and  C_11 
ROOT
ATOM      1  C   UNL d   1      31.591  17.363 -24.349  0.00  0.00     0.120 A 
ATOM      2  C   UNL d   1      31.567  16.703 -23.855  0.00  0.00     0.305 A 
ATOM      3  O   UNL d   1      30.834  16.352 -23.668  0.00  0.00    -0.271 OA
ATOM      4  C   UNL d   1      30.888  17.682 -24.664  0.00  0.00     0.012 A 
ATOM      5  C   UNL d   1      30.142  16.660 -23.974  0.00  0.00     0.125 A 
ATOM      6  C   UNL d   1      30.167  17.327 -24.473  0.00  0.00     0.025 A 
ATOM      7  O   UNL d   1      32.258  16.391 -23.546  0.00  0.00    -0.259 OA
ATOM      8  C   UNL d   1      29.410  16.319 -23.795  0.00  0.00     0.117 A 
ATOM      9  C   UNL d   1      29.468  17.639 -24.783  0.00  0.00     0.002 A 
ATOM     10  C   UNL d   1      28.747  17.288 -24.595  0.00  0.00     0.002 A 
ATOM     11  C   UNL d   1      28.718  16.631 -24.103  0.00  0.00     0.026 A 
ENDROOT
BRANCH   1  12
ATOM     12  C   UNL d   1      32.312  17.708 -24.532  0.00  0.00     0.270 C 
ATOM     13  N   UNL d   1      32.521  18.429 -24.207  0.00  0.00    -0.269 N 
ATOM     14  C   UNL d   1      32.002  18.807 -23.695  0.00  0.00     0.102 C 
ATOM     15  C   UNL d   1      33.241  18.775 -24.390  0.00  0.00     0.102 C 
ATOM     16  O   UNL d   1      32.831  17.331 -25.045  0.00  0.00    -0.266 OA
ENDBRANCH   1  12
BRANCH   8  17
ATOM     17  O   UNL d   1      29.381  15.662 -23.304  0.00  0.00    -0.326 OA
ATOM     18  C   UNL d   1      28.678  15.453 -22.940  0.00  0.00     0.181 C 
ENDBRANCH   8  17
TORSDOF 2
ENDMDL
MODEL 4
REMARK VINA RESULT:      -2.0      2.236      3.510
REMARK  2 active torsions:
REMARK  status: ('A' for Active; 'I' for Inactive)
REMARK    1  A    between atoms: C_4  and  C_1 
REMARK       I    between atoms: N_8  and  C_4 
REMARK    2  A    between atoms: O_12  and  C_11 
ROOT
ATOM      1  C   UNL d   1      32.755  18.213 -23.708  0.00  0.00     0.120 A 
ATOM      2  C   UNL d   1      32.821  18.812 -24.272  0.00  0.00     0.305 A 
ATOM      3  O   UNL d   1      32.960  19.597 -24.028  0.00  0.00    -0.271 OA
ATOM      4  C   UNL d   1      32.827  18.387 -22.896  0.00  0.00     0.012 A 
ATOM      5  C   UNL d   1      33.032  19.772 -23.233  0.00  0.00     0.125 A 
ATOM      6  C   UNL d   1      32.965  19.168 -22.665  0.00  0.00     0.025 A 
ATOM      7  O   UNL d   1      32.750  18.639 -25.069  0.00  0.00    -0.259 OA
ATOM      8  C   UNL d   1      33.170  20.548 -22.982  0.00  0.00     0.117 A 
ATOM      9  C   UNL d   1      33.037  19.345 -21.861  0.00  0.00     0.002 A 
ATOM     10  C   UNL d   1      33.175  20.122 -21.626  0.00  0.00     0.002 A 
ATOM     11  C   UNL d   1      33.241  20.721 -22.184  0.00  0.00     0.026 A 
ENDROOT
BRANCH   1  12
ATOM     12  C   UNL d   1      32.618  17.441 -23.948  0.00  0.00     0.270 C 
ATOM     13  N   UNL d   1      31.865  17.123 -23.912  0.00  0.00    -0.269 N 
ATOM     14  C   UNL d   1      31.245  17.584 -23.634  0.00  0.00     0.102 C 
ATOM     15  C   UNL d   1      31.727  16.352 -24.152  0.00  0.00     0.102 C 
ATOM     16  O   UNL d   1      33.238  16.980 -24.226  0.00  0.00    -0.266 OA
ENDBRANCH   1  12
BRANCH   8  17
ATOM     17  O   UNL d   1      33.236  21.147 -23.540  0.00  0.00    -0.326 OA
ATOM     18  C   UNL d   1      33.215  21.931 -23.304  0.00  0.00     0.181 C 
ENDBRANCH   8  17
TORSDOF 2
ENDMDL
MODEL 5
REMARK VINA RESULT:      -1.5      1.335      3.262
REMARK  2 active torsions:
REMARK  status: ('A' for Active; 'I' for Inactive)
REMARK    1  A    between atoms: C_4  and  C_1 
REMARK       I    between atoms: N_8  and  C_4 
REMARK    2  A    between atoms: O_12  and  C_11 
ROOT
ATOM      1  C   UNL d   1      31.244  17.253 -24.145  0.00  0.00     0.120 A 
ATOM      2  C   UNL d   1      30.606  17.673 -24.456  0.00  0.00     0.305 A 
ATOM      3  O   UNL d   1      29.827  17.429 -24.288  0.00  0.00    -0.271 OA
ATOM      4  C   UNL d   1      31.115  16.585 -23.663  0.00  0.00     0.012 A 
ATOM      5  C   UNL d   1      29.696  16.775 -23.816  0.00  0.00     0.125 A 
ATOM      6  C   UNL d   1      30.340  16.351 -23.502  0.00  0.00     0.025 A 
ATOM      7  O   UNL d   1      30.734  18.330 -24.929  0.00  0.00    -0.259 OA
ATOM      8  C   UNL d   1      28.926  16.525 -23.643  0.00  0.00     0.117 A 
ATOM      9  C   UNL d   1      30.208  15.689 -23.025  0.00  0.00     0.002 A 
ATOM     10  C   UNL d   1      29.435  15.453 -22.863  0.00  0.00     0.002 A 
ATOM     11  C   UNL d   1      28.798  15.869 -23.170  0.00  0.00     0.026 A 
ENDROOT
BRANCH   1  12
ATOM     12  C   UNL d   1      32.010  17.493 -24.310  0.00  0.00     0.270 C 
ATOM     13  N   UNL d   1      32.475  17.828 -23.727  0.00  0.00    -0.269 N 
ATOM     14  C   UNL d   1      32.168  17.923 -22.971  0.00  0.00     0.102 C 
ATOM     15  C   UNL d   1      33.241  18.069 -23.891  0.00  0.00     0.102 C 
ATOM     16  O   UNL d   1      32.317  17.399 -25.066  0.00  0.00    -0.266 OA
ENDBRANCH   1  12
BRANCH   8  17
ATOM     17  O   UNL d   1      28.289  16.941 -23.951  0.00  0.00    -0.326 OA
ATOM     18  C   UNL d   1      27.661  17.147 -23.466  0.00  0.00     0.181 C 
ENDBRANCH   8  17
TORSDOF 2
ENDMDL
MODEL 6
REMARK VINA RESULT:      -1.3      4.310      6.287
REMARK  2 active torsions:
REMARK  status: ('A' for Active; 'I' for Inactive)
REMARK    1  A    between atoms: C_4  and  C_1 
REMARK       I    between atoms: N_8  and  C_4 
REMARK    2  A    between atoms: O_12  and  C_11 
ROOT
ATOM      1  C   UNL d   1      32.868  21.793 -20.910  0.00  0.00     0.120 A 
ATOM      2  C   UNL d   1      32.862  21.003 -20.673  0.00  0.00     0.305 A 
ATOM      3  O   UNL d   1      32.953  20.399 -21.240  0.00  0.00    -0.271 OA
ATOM      4  C   UNL d   1      32.966  21.992 -21.714  0.00  0.00     0.012 A 
ATOM      5  C   UNL d   1      33.048  20.589 -22.029  0.00  0.00     0.125 A 
ATOM      6  C   UNL d   1      33.055  21.387 -22.268  0.00  0.00     0.025 A 
ATOM      7  O   UNL d   1      32.766  20.809 -19.883  0.00  0.00    -0.259 OA
ATOM      8  C   UNL d   1      33.139  19.997 -22.599  0.00  0.00     0.117 A 
ATOM      9  C   UNL d   1      33.152  21.579 -23.066  0.00  0.00     0.002 A 
ATOM     10  C   UNL d   1      33.241  20.978 -23.622  0.00  0.00     0.002 A 
ATOM     11  C   UNL d   1      33.235  20.190 -23.389  0.00  0.00     0.026 A 
ENDROOT
BRANCH   1  12
ATOM     12  C   UNL d   1      32.779  22.387 -20.352  0.00  0.00     0.270 C 
ATOM     13  N   UNL d   1      32.230  22.984 -20.465  0.00  0.00    -0.269 N 
ATOM     14  C   UNL d   1      31.768  22.983 -21.144  0.00  0.00     0.102 C 
ATOM     15  C   UNL d   1      32.140  23.577 -19.908  0.00  0.00     0.102 C 
ATOM     16  O   UNL d   1      33.241  22.387 -19.673  0.00  0.00    -0.266 OA
ENDBRANCH   1  12
BRANCH   8  17
ATOM     17  O   UNL d   1      33.133  19.209 -22.367  0.00  0.00    -0.326 OA
ATOM     18  C   UNL d   1      33.097  18.616 -22.930  0.00  0.00     0.181 C 
ENDBRANCH   8  17
TORSDOF 2
ENDMDL
MODEL 7
REMARK VINA RESULT:      -0.7      1.908      3.589
REMARK  2 active torsions:
REMARK  status: ('A' for Active; 'I' for Inactive)
REMARK    1  A    between atoms: C_4  and  C_1 
REMARK       I    between atoms: N_8  and  C_4 
REMARK    2  A    between atoms: O_12  and  C_11 
ROOT
ATOM      1  C   UNL d   1      32.513  18.560 -24.029  0.00  0.00     0.120 A 
ATOM      2  C   UNL d   1      31.776  18.326 -24.318  0.00  0.00     0.305 A 
ATOM      3  O   UNL d   1      31.526  17.536 -24.226  0.00  0.00    -0.271 OA
ATOM      4  C   UNL d   1      33.009  18.011 -23.644  0.00  0.00     0.012 A 
ATOM      5  C   UNL d   1      32.009  16.995 -23.850  0.00  0.00     0.125 A 
ATOM      6  C   UNL d   1      32.752  17.231 -23.558  0.00  0.00     0.025 A 
ATOM      7  O   UNL d   1      31.290  18.866 -24.696  0.00  0.00    -0.259 OA
ATOM      8  C   UNL d   1      31.770  16.209 -23.754  0.00  0.00     0.117 A 
ATOM      9  C   UNL d   1      33.241  16.684 -23.177  0.00  0.00     0.002 A 
ATOM     10  C   UNL d   1      32.988  15.905 -23.089  0.00  0.00     0.002 A 
ATOM     11  C   UNL d   1      32.256  15.669 -23.376  0.00  0.00     0.026 A 
ENDROOT
BRANCH   1  12
ATOM     12  C   UNL d   1      32.758  19.336 -24.119  0.00  0.00     0.270 C 
ATOM     13  N   UNL d   1      32.993  19.776 -23.470  0.00  0.00    -0.269 N 
ATOM     14  C   UNL d   1      32.980  19.433 -22.725  0.00  0.00     0.102 C 
ATOM     15  C   UNL d   1      33.239  20.552 -23.560  0.00  0.00     0.102 C 
ATOM     16  O   UNL d   1      32.771  19.680 -24.865  0.00  0.00    -0.266 OA
ENDBRANCH   1  12
BRANCH   8  17
ATOM     17  O   UNL d   1      31.038  15.973 -24.041  0.00  0.00    -0.326 OA
ATOM     18  C   UNL d   1      30.514  15.577 -23.551  0.00  0.00     0.181 C 
ENDBRANCH   8  17
TORSDOF 2
ENDMDL
MODEL 8
REMARK VINA RESULT:      -0.6      4.293      6.140
REMARK  2 active torsions:
REMARK  status: ('A' for Active; 'I' for Inactive)
REMARK    1  A    between atoms: C_4  and  C_1 
REMARK       I    between atoms: N_8  and  C_4 
REMARK    2  A    between atoms: O_12  and  C_11 
ROOT
ATOM      1  C   UNL d   1      33.002  20.459 -21.752  0.00  0.00     0.120 A 
ATOM      2  C   UNL d   1      33.091  20.470 -20.932  0.00  0.00     0.305 A 
ATOM      3  O   UNL d   1      33.044  21.193 -20.519  0.00  0.00    -0.271 OA
ATOM      4  C   UNL d   1      32.866  21.167 -22.172  0.00  0.00     0.012 A 
ATOM      5  C   UNL d   1      32.911  21.889 -20.926  0.00  0.00     0.125 A 
ATOM      6  C   UNL d   1      32.821  21.878 -21.754  0.00  0.00     0.025 A 
ATOM      7  O   UNL d   1      33.225  19.774 -20.521  0.00  0.00    -0.259 OA
ATOM      8  C   UNL d   1      32.863  22.611 -20.525  0.00  0.00     0.117 A 
ATOM      9  C   UNL d   1      32.686  22.582 -22.166  0.00  0.00     0.002 A 
ATOM     10  C   UNL d   1      32.641  23.292 -21.752  0.00  0.00     0.002 A 
ATOM     11  C   UNL d   1      32.729  23.307 -20.936  0.00  0.00     0.026 A 
ENDROOT
BRANCH   1  12
ATOM     12  C   UNL d   1      33.048  19.749 -22.158  0.00  0.00     0.270 C 
ATOM     13  N   UNL d   1      33.167  19.740 -22.967  0.00  0.00    -0.269 N 
ATOM     14  C   UNL d   1      33.240  20.450 -23.372  0.00  0.00     0.102 C 
ATOM     15  C   UNL d   1      33.213  19.030 -23.373  0.00  0.00     0.102 C 
ATOM     16  O   UNL d   1      32.975  19.038 -21.753  0.00  0.00    -0.266 OA
ENDBRANCH   1  12
BRANCH   8  17
ATOM     17  O   UNL d   1      32.951  22.626 -19.709  0.00  0.00    -0.326 OA
ATOM     18  C   UNL d   1      32.877  23.332 -19.302  0.00  0.00     0.181 C 
ENDBRANCH   8  17
TORSDOF 2
ENDMDL
MODEL 9
REMARK VINA RESULT:      -0.4      3.481      5.033
REMARK  2 active torsions:
REMARK  status: ('A' for Active; 'I' for Inactive)
REMARK    1  A    between atoms: C_4  and  C_1 
REMARK       I    between atoms: N_8  and  C_4 
REMARK    2  A    between atoms: O_12  and  C_11 
ROOT
ATOM      1  C   UNL d   1      32.954  20.273 -22.079  0.00  0.00     0.120 A 
ATOM      2  C   UNL d   1      33.118  19.600 -21.632  0.00  0.00     0.305 A 
ATOM      3  O   UNL d   1      33.160  18.855 -22.003  0.00  0.00    -0.271 OA
ATOM      4  C   UNL d   1      32.828  20.213 -22.902  0.00  0.00     0.012 A 
ATOM      5  C   UNL d   1      33.038  18.791 -22.809  0.00  0.00     0.125 A 
ATOM      6  C   UNL d   1      32.872  19.471 -23.261  0.00  0.00     0.025 A 
ATOM      7  O   UNL d   1      33.241  19.660 -20.824  0.00  0.00    -0.259 OA
ATOM      8  C   UNL d   1      33.077  18.056 -23.187  0.00  0.00     0.117 A 
ATOM      9  C   UNL d   1      32.748  19.407 -24.075  0.00  0.00     0.002 A 
ATOM     10  C   UNL d   1      32.791  18.668 -24.436  0.00  0.00     0.002 A 
ATOM     11  C   UNL d   1      32.955  17.996 -23.994  0.00  0.00     0.026 A 
ENDROOT
BRANCH   1  12
ATOM     12  C   UNL d   1      32.913  21.005 -21.714  0.00  0.00     0.270 C 
ATOM     13  N   UNL d   1      33.055  21.690 -22.139  0.00  0.00    -0.269 N 
ATOM     14  C   UNL d   1      33.240  21.638 -22.937  0.00  0.00     0.102 C 
ATOM     15  C   UNL d   1      33.014  22.422 -21.775  0.00  0.00     0.102 C 
ATOM     16  O   UNL d   1      32.728  21.057 -20.916  0.00  0.00    -0.266 OA
ENDBRANCH   1  12
BRANCH   8  17
ATOM     17  O   UNL d   1      33.241  17.384 -22.744  0.00  0.00    -0.326 OA
ATOM     18  C   UNL d   1      33.183  16.643 -23.088  0.00  0.00     0.181 C 
ENDBRANCH   8  17
TORSDOF 2
ENDMDL
