MODEL 1
REMARK VINA RESULT:      -9.4      0.000      0.000
REMARK  3 active torsions:
REMARK  status: ('A' for Active; 'I' for Inactive)
REMARK    1  A    between atoms: C_12  and  C_3 
REMARK       I    between atoms: C_6  and  N_9 
REMARK    2  A    between atoms: C_7  and  C_6 
REMARK    3  A    between atoms: N_9  and  C_22 
ROOT
ATOM      1  C   UNL d   1      51.802  33.825  53.179  0.00  0.00     0.019 A 
ATOM      2  C   UNL d   1      51.766  34.327  52.525  0.00  0.00     0.003 A 
ATOM      3  C   UNL d   1      51.105  33.546  53.523  0.00  0.00     0.003 A 
ATOM      4  C   UNL d   1      50.339  34.269  52.559  0.00  0.00     0.085 A 
ATOM      5  C   UNL d   1      50.374  33.768  53.213  0.00  0.00     0.019 A 
ATOM      6  C   UNL d   1      51.035  34.549  52.214  0.00  0.00     0.019 A 
ENDROOT
BRANCH   4   7
ATOM      7  N   UNL d   1      49.611  34.491  52.250  0.00  0.00    -0.208 NA
ATOM      8  C   UNL d   1      49.187  35.100  52.592  0.00  0.00     0.279 C 
ATOM      9  O   UNL d   1      49.492  35.500  53.256  0.00  0.00    -0.265 OA
BRANCH   8  10
ATOM     10  C   UNL d   1      48.456  35.323  52.281  0.00  0.00     0.060 A 
ATOM     11  C   UNL d   1      47.943  35.787  52.724  0.00  0.00     0.031 A 
ATOM     12  C   UNL d   1      47.211  36.009  52.414  0.00  0.00     0.119 A 
ATOM     13  O   UNL d   1      46.596  36.465  52.729  0.00  0.00    -0.300 OA
ATOM     14  C   UNL d   1      46.993  35.767  51.661  0.00  0.00     0.119 A 
ATOM     15  C   UNL d   1      45.994  36.505  52.167  0.00  0.00     0.304 A 
ATOM     16  O   UNL d   1      46.238  36.072  51.503  0.00  0.00    -0.300 OA
ATOM     17  C   UNL d   1      47.506  35.300  51.212  0.00  0.00     0.026 A 
ATOM     18  C   UNL d   1      48.237  35.078  51.523  0.00  0.00     0.007 A 
ENDBRANCH   8  10
ENDBRANCH   4   7
BRANCH   1  19
ATOM     19  C   UNL d   1      52.533  33.603  53.490  0.00  0.00     0.101 A 
ATOM     20  N   UNL d   1      53.040  33.019  53.230  0.00  0.00    -0.221 NA
ATOM     21  C   UNL d   1      53.705  33.015  53.731  0.00  0.00     0.179 A 
ATOM     22  N   UNL d   1      53.610  33.587  54.291  0.00  0.00    -0.282 N 
ATOM     23  S   UNL d   1      54.424  32.639  53.862  0.00  0.00    -0.048 SA
ATOM     24  C   UNL d   1      52.884  33.960  54.151  0.00  0.00     0.101 A 
ATOM     25  C   UNL d   1      54.273  33.571  54.778  0.00  0.00     0.089 A 
ATOM     26  C   UNL d   1      54.767  32.998  54.519  0.00  0.00     0.057 A 
ENDBRANCH   1  19
TORSDOF 3
ENDMDL
MODEL 2
REMARK VINA RESULT:      -9.3      2.582      6.086
REMARK  3 active torsions:
REMARK  status: ('A' for Active; 'I' for Inactive)
REMARK    1  A    between atoms: C_12  and  C_3 
REMARK       I    between atoms: C_6  and  N_9 
REMARK    2  A    between atoms: C_7  and  C_6 
REMARK    3  A    between atoms: N_9  and  C_22 
ROOT
ATOM      1  C   UNL d   1      48.936  34.983  52.211  0.00  0.00     0.019 A 
ATOM      2  C   UNL d   1      49.366  34.552  51.653  0.00  0.00     0.003 A 
ATOM      3  C   UNL d   1      49.265  35.145  52.951  0.00  0.00     0.003 A 
ATOM      4  C   UNL d   1      50.453  34.446  52.575  0.00  0.00     0.085 A 
ATOM      5  C   UNL d   1      50.024  34.877  53.132  0.00  0.00     0.019 A 
ATOM      6  C   UNL d   1      50.125  34.284  51.835  0.00  0.00     0.019 A 
ENDROOT
BRANCH   4   7
ATOM      7  N   UNL d   1      51.208  34.179  52.755  0.00  0.00    -0.208 NA
ATOM      8  C   UNL d   1      51.310  33.491  53.186  0.00  0.00     0.279 C 
ATOM      9  O   UNL d   1      50.647  33.058  53.443  0.00  0.00    -0.265 OA
BRANCH   8  10
ATOM     10  C   UNL d   1      52.069  33.223  53.368  0.00  0.00     0.060 A 
ATOM     11  C   UNL d   1      52.499  33.579  53.970  0.00  0.00     0.031 A 
ATOM     12  C   UNL d   1      53.258  33.310  54.151  0.00  0.00     0.119 A 
ATOM     13  O   UNL d   1      53.808  33.558  54.718  0.00  0.00    -0.300 OA
ATOM     14  C   UNL d   1      53.586  32.686  53.731  0.00  0.00     0.119 A 
ATOM     15  C   UNL d   1      54.480  33.085  54.647  0.00  0.00     0.304 A 
ATOM     16  O   UNL d   1      54.344  32.542  54.035  0.00  0.00    -0.300 OA
ATOM     17  C   UNL d   1      53.155  32.326  53.125  0.00  0.00     0.026 A 
ATOM     18  C   UNL d   1      52.397  32.594  52.943  0.00  0.00     0.007 A 
ENDBRANCH   8  10
ENDBRANCH   4   7
BRANCH   1  19
ATOM     19  C   UNL d   1      48.177  35.252  52.029  0.00  0.00     0.101 A 
ATOM     20  N   UNL d   1      47.704  35.049  51.397  0.00  0.00    -0.221 NA
ATOM     21  C   UNL d   1      46.990  35.472  51.466  0.00  0.00     0.179 A 
ATOM     22  N   UNL d   1      47.023  35.929  52.130  0.00  0.00    -0.282 N 
ATOM     23  S   UNL d   1      46.263  35.594  51.101  0.00  0.00    -0.048 SA
ATOM     24  C   UNL d   1      47.758  35.800  52.489  0.00  0.00     0.101 A 
ATOM     25  C   UNL d   1      46.313  36.340  52.183  0.00  0.00     0.089 A 
ATOM     26  C   UNL d   1      45.852  36.139  51.562  0.00  0.00     0.057 A 
ENDBRANCH   1  19
TORSDOF 3
ENDMDL
MODEL 3
REMARK VINA RESULT:      -6.8     10.275     11.074
REMARK  3 active torsions:
REMARK  status: ('A' for Active; 'I' for Inactive)
REMARK    1  A    between atoms: C_12  and  C_3 
REMARK       I    between atoms: C_6  and  N_9 
REMARK    2  A    between atoms: C_7  and  C_6 
REMARK    3  A    between atoms: N_9  and  C_22 
ROOT
ATOM      1  C   UNL d   1      44.570  25.983  56.585  0.00  0.00     0.019 A 
ATOM      2  C   UNL d   1      44.598  26.716  56.205  0.00  0.00     0.003 A 
ATOM      3  C   UNL d   1      44.482  25.947  57.406  0.00  0.00     0.003 A 
ATOM      4  C   UNL d   1      44.451  27.375  57.464  0.00  0.00     0.085 A 
ATOM      5  C   UNL d   1      44.423  26.643  57.845  0.00  0.00     0.019 A 
ATOM      6  C   UNL d   1      44.539  27.411  56.644  0.00  0.00     0.019 A 
ENDROOT
BRANCH   4   7
ATOM      7  N   UNL d   1      44.392  28.067  57.901  0.00  0.00    -0.208 NA
ATOM      8  C   UNL d   1      45.060  28.405  58.230  0.00  0.00     0.279 C 
ATOM      9  O   UNL d   1      45.805  28.048  58.122  0.00  0.00    -0.265 OA
BRANCH   8  10
ATOM     10  C   UNL d   1      45.000  29.101  58.669  0.00  0.00     0.060 A 
ATOM     11  C   UNL d   1      44.878  29.068  59.481  0.00  0.00     0.031 A 
ATOM     12  C   UNL d   1      44.818  29.763  59.920  0.00  0.00     0.119 A 
ATOM     13  O   UNL d   1      44.698  29.895  60.729  0.00  0.00    -0.300 OA
ATOM     14  C   UNL d   1      44.881  30.492  59.548  0.00  0.00     0.119 A 
ATOM     15  C   UNL d   1      44.687  30.710  60.856  0.00  0.00     0.304 A 
ATOM     16  O   UNL d   1      44.800  31.083  60.125  0.00  0.00    -0.300 OA
ATOM     17  C   UNL d   1      45.004  30.530  58.732  0.00  0.00     0.026 A 
ATOM     18  C   UNL d   1      45.064  29.834  58.293  0.00  0.00     0.007 A 
ENDBRANCH   8  10
ENDBRANCH   4   7
BRANCH   1  19
ATOM     19  C   UNL d   1      44.629  25.287  56.146  0.00  0.00     0.101 A 
ATOM     20  N   UNL d   1      44.984  24.583  56.354  0.00  0.00    -0.221 NA
ATOM     21  C   UNL d   1      44.893  24.053  55.718  0.00  0.00     0.179 A 
ATOM     22  N   UNL d   1      44.489  24.425  55.127  0.00  0.00    -0.282 N 
ATOM     23  S   UNL d   1      45.066  23.287  55.474  0.00  0.00    -0.048 SA
ATOM     24  C   UNL d   1      44.320  25.194  55.382  0.00  0.00     0.101 A 
ATOM     25  C   UNL d   1      44.408  23.890  54.508  0.00  0.00     0.089 A 
ATOM     26  C   UNL d   1      44.757  23.201  54.716  0.00  0.00     0.057 A 
ENDBRANCH   1  19
TORSDOF 3
ENDMDL
MODEL 4
REMARK VINA RESULT:      -6.7     10.583     11.248
REMARK  3 active torsions:
REMARK  status: ('A' for Active; 'I' for Inactive)
REMARK    1  A    between atoms: C_12  and  C_3 
REMARK       I    between atoms: C_6  and  N_9 
REMARK    2  A    between atoms: C_7  and  C_6 
REMARK    3  A    between atoms: N_9  and  C_22 
ROOT
ATOM      1  C   UNL d   1      44.523  25.503  58.174  0.00  0.00     0.019 A 
ATOM      2  C   UNL d   1      44.400  25.917  57.471  0.00  0.00     0.003 A 
ATOM      3  C   UNL d   1      44.604  25.913  58.886  0.00  0.00     0.003 A 
ATOM      4  C   UNL d   1      44.440  27.150  58.192  0.00  0.00     0.085 A 
ATOM      5  C   UNL d   1      44.563  26.737  58.895  0.00  0.00     0.019 A 
ATOM      6  C   UNL d   1      44.358  26.741  57.480  0.00  0.00     0.019 A 
ENDROOT
BRANCH   4   7
ATOM      7  N   UNL d   1      44.398  27.970  58.200  0.00  0.00    -0.208 NA
ATOM      8  C   UNL d   1      45.074  28.418  58.091  0.00  0.00     0.279 C 
ATOM      9  O   UNL d   1      45.808  28.044  57.971  0.00  0.00    -0.265 OA
BRANCH   8  10
ATOM     10  C   UNL d   1      45.032  29.242  58.100  0.00  0.00     0.060 A 
ATOM     11  C   UNL d   1      44.832  29.653  57.417  0.00  0.00     0.031 A 
ATOM     12  C   UNL d   1      44.790  30.476  57.426  0.00  0.00     0.119 A 
ATOM     13  O   UNL d   1      44.606  31.024  56.833  0.00  0.00    -0.300 OA
ATOM     14  C   UNL d   1      44.949  30.890  58.117  0.00  0.00     0.119 A 
ATOM     15  C   UNL d   1      44.651  31.780  57.160  0.00  0.00     0.304 A 
ATOM     16  O   UNL d   1      44.864  31.699  57.958  0.00  0.00    -0.300 OA
ATOM     17  C   UNL d   1      45.151  30.480  58.806  0.00  0.00     0.026 A 
ATOM     18  C   UNL d   1      45.192  29.656  58.797  0.00  0.00     0.007 A 
ENDBRANCH   8  10
ENDBRANCH   4   7
BRANCH   1  19
ATOM     19  C   UNL d   1      44.564  24.679  58.165  0.00  0.00     0.101 A 
ATOM     20  N   UNL d   1      44.790  24.174  58.765  0.00  0.00    -0.221 NA
ATOM     21  C   UNL d   1      44.737  23.394  58.477  0.00  0.00     0.179 A 
ATOM     22  N   UNL d   1      44.482  23.418  57.713  0.00  0.00    -0.282 N 
ATOM     23  S   UNL d   1      44.850  22.609  58.691  0.00  0.00    -0.048 SA
ATOM     24  C   UNL d   1      44.371  24.212  57.507  0.00  0.00     0.101 A 
ATOM     25  C   UNL d   1      44.435  22.642  57.443  0.00  0.00     0.089 A 
ATOM     26  C   UNL d   1      44.657  22.151  58.034  0.00  0.00     0.057 A 
ENDBRANCH   1  19
TORSDOF 3
ENDMDL
