MODEL 1
REMARK VINA RESULT:      43.7      0.000      0.000
REMARK  5 active torsions:
REMARK  status: ('A' for Active; 'I' for Inactive)
REMARK    1  A    between atoms: N_3  and  S_1 
REMARK    2  A    between atoms: C_5  and  S_1 
REMARK    3  A    between atoms: C_2  and  C_6 
REMARK       I    between atoms: N_4  and  C_2 
REMARK    4  A    between atoms: C_11  and  N_3 
REMARK    5  A    between atoms: O_18  and  C_14 
ROOT
ATOM      1  C   UNL d   1     -55.125-101.075 -44.395  0.00  0.00     0.058 A 
ATOM      2  C   UNL d   1     -55.481-100.371 -44.167  0.00  0.00     0.025 A 
ATOM      3  C   UNL d   1     -55.461 -99.709 -44.659  0.00  0.00     0.094 A 
ATOM      4  C   UNL d   1     -54.738-101.122 -45.134  0.00  0.00     0.005 A 
ATOM      5  C   UNL d   1     -54.718-100.460 -45.626  0.00  0.00     0.002 A 
ATOM      6  C   UNL d   1     -55.076 -99.753 -45.395  0.00  0.00     0.020 A 
ENDROOT
BRANCH   3   7
ATOM      7  N   UNL d   1     -55.817 -99.005 -44.431  0.00  0.00    -0.158 NA
BRANCH   7   8
ATOM      8  S   UNL d   1     -56.635 -98.944 -44.389  0.00  0.00     0.285 S 
ATOM      9  O   UNL d   1     -56.661 -98.761 -45.193  0.00  0.00    -0.198 OA
ATOM     10  O   UNL d   1     -56.619 -99.124 -43.592  0.00  0.00    -0.198 OA
BRANCH   8  11
ATOM     11  C   UNL d   1     -57.456 -98.881 -44.352  0.00  0.00     0.107 A 
ATOM     12  C   UNL d   1     -57.839 -98.855 -43.615  0.00  0.00     0.037 A 
ATOM     13  C   UNL d   1     -58.654 -98.793 -43.585  0.00  0.00     0.095 A 
ATOM     14  C   UNL d   1     -59.092 -98.755 -44.281  0.00  0.00     0.024 A 
ATOM     15  C   UNL d   1     -58.722 -98.780 -45.008  0.00  0.00     0.003 A 
ATOM     16  C   UNL d   1     -57.901 -98.843 -45.045  0.00  0.00     0.013 A 
BRANCH  13  17
ATOM     17  O   UNL d   1     -59.042 -98.767 -42.846  0.00  0.00    -0.328 OA
ATOM     18  C   UNL d   1     -59.880 -98.808 -42.807  0.00  0.00     0.181 C 
ENDBRANCH  13  17
ENDBRANCH   8  11
ENDBRANCH   7   8
ENDBRANCH   3   7
BRANCH   1  19
ATOM     19  C   UNL d   1     -55.150-101.730 -43.899  0.00  0.00     0.265 C 
ATOM     20  N   UNL d   1     -55.011-101.636 -43.087  0.00  0.00    -0.268 N 
ATOM     21  C   UNL d   1     -55.036-102.294 -42.587  0.00  0.00     0.110 A 
ATOM     22  C   UNL d   1     -54.850-100.891 -42.783  0.00  0.00     0.110 A 
ATOM     23  C   UNL d   1     -54.898-102.197 -41.781  0.00  0.00     0.142 A 
ATOM     24  O   UNL d   1     -54.737-101.451 -41.478  0.00  0.00    -0.300 OA
ATOM     25  C   UNL d   1     -54.711-100.794 -41.969  0.00  0.00     0.142 A 
ATOM     26  O   UNL d   1     -55.311-102.476 -44.203  0.00  0.00    -0.267 OA
ENDBRANCH   1  19
TORSDOF 5
ENDMDL
