MODEL 1
REMARK VINA RESULT:     147.2      0.000      0.000
REMARK  3 active torsions:
REMARK  status: ('A' for Active; 'I' for Inactive)
REMARK    1  A    between atoms: N_7  and  N_1 
REMARK    2  A    between atoms: N_2  and  N_8 
REMARK       I    between atoms: C_3  and  N_7 
REMARK    3  A    between atoms: C_4  and  C_3 
REMARK       I    between atoms: N_8  and  C_4 
ROOT
ATOM      1  C   UNL d   1      57.021  36.799  55.545  0.00  0.00     0.355 C 
ATOM      2  N   UNL d   1      56.484  37.402  55.511  0.00  0.00    -0.115 NA
ATOM      3  O   UNL d   1      56.829  36.100  55.914  0.00  0.00    -0.258 OA
ENDROOT
BRANCH   1   4
ATOM      4  C   UNL d   1      57.765  36.896  55.204  0.00  0.00     0.355 C 
ATOM      5  N   UNL d   1      58.009  37.659  55.015  0.00  0.00    -0.115 NA
ATOM      6  O   UNL d   1      58.089  36.449  55.108  0.00  0.00    -0.258 OA
BRANCH   5   7
ATOM      7  N   UNL d   1      58.762  37.796  54.666  0.00  0.00    -0.175 N 
ATOM      8  C   UNL d   1      58.994  37.343  54.061  0.00  0.00     0.170 A 
ATOM      9  S   UNL d   1      59.789  37.629  53.835  0.00  0.00    -0.051 SA
ATOM     10  S   UNL d   1      58.531  36.714  53.727  0.00  0.00    -0.050 SA
ATOM     11  C   UNL d   1      59.960  38.257  54.356  0.00  0.00     0.100 A 
ATOM     12  C   UNL d   1      59.312  38.345  54.864  0.00  0.00     0.288 A 
ATOM     13  O   UNL d   1      59.235  38.911  55.482  0.00  0.00    -0.265 OA
ENDBRANCH   5   7
ENDBRANCH   1   4
BRANCH   2  14
ATOM     14  N   UNL d   1      56.623  38.157  55.140  0.00  0.00    -0.175 N 
ATOM     15  C   UNL d   1      56.897  38.851  55.467  0.00  0.00     0.170 A 
ATOM     16  S   UNL d   1      56.918  39.381  54.858  0.00  0.00    -0.051 SA
ATOM     17  S   UNL d   1      57.112  38.978  56.279  0.00  0.00    -0.050 SA
ATOM     18  C   UNL d   1      56.676  39.061  54.179  0.00  0.00     0.100 A 
ATOM     19  C   UNL d   1      56.482  38.296  54.314  0.00  0.00     0.288 A 
ATOM     20  O   UNL d   1      56.319  37.961  54.017  0.00  0.00    -0.265 OA
ENDBRANCH   2  14
TORSDOF 3
ENDMDL
