MODEL 1
REMARK VINA RESULT:      86.1      0.000      0.000
REMARK  5 active torsions:
REMARK  status: ('A' for Active; 'I' for Inactive)
REMARK    1  A    between atoms: C_3  and  C_1 
REMARK    2  A    between atoms: C_7  and  C_3 
REMARK       I    between atoms: C_6  and  N_5 
REMARK    3  A    between atoms: O_18  and  C_6 
REMARK    4  A    between atoms: N_10  and  C_7 
REMARK    5  A    between atoms: C_21  and  O_18 
ROOT
ATOM      1  C   UNL d   1      61.498  46.519  49.903  0.00  0.00     0.110 C 
ATOM      2  C   UNL d   1      62.224  46.476  49.502  0.00  0.00     0.105 C 
ATOM      3  N   UNL d   1      62.941  46.436  49.107  0.00  0.00    -0.191 NA
ENDROOT
BRANCH   1   4
ATOM      4  C   UNL d   1      61.277  47.221  50.276  0.00  0.00     0.122 A 
ATOM      5  N   UNL d   1      61.150  47.947  49.912  0.00  0.00    -0.238 NA
ATOM      6  C   UNL d   1      60.939  48.492  50.494  0.00  0.00     0.088 A 
ATOM      7  C   UNL d   1      60.749  49.296  50.455  0.00  0.00     0.020 A 
ATOM      8  C   UNL d   1      60.934  48.104  51.222  0.00  0.00     0.049 A 
ATOM      9  C   UNL d   1      60.556  49.708  51.140  0.00  0.00     0.002 A 
ATOM     10  C   UNL d   1      60.551  49.317  51.872  0.00  0.00     0.001 A 
ATOM     11  C   UNL d   1      60.739  48.517  51.914  0.00  0.00     0.008 A 
ATOM     12  S   UNL d   1      61.142  47.318  51.092  0.00  0.00    -0.066 SA
ENDBRANCH   1   4
BRANCH   1  13
ATOM     13  C   UNL d   1      61.000  45.864  49.928  0.00  0.00     0.093 C 
BRANCH  13  14
ATOM     14  N   UNL d   1      61.270  45.152  50.247  0.00  0.00    -0.299 N 
ATOM     15  C   UNL d   1      61.911  44.756  49.890  0.00  0.00     0.100 A 
ATOM     16  C   UNL d   1      62.177  44.051  50.205  0.00  0.00     0.104 A 
ATOM     17  N   UNL d   1      61.816  43.729  50.877  0.00  0.00    -0.249 N 
ATOM     18  C   UNL d   1      61.182  44.124  51.228  0.00  0.00     0.104 A 
ATOM     19  C   UNL d   1      62.086  43.016  51.196  0.00  0.00     0.378 C 
ATOM     20  C   UNL d   1      60.904  44.843  50.912  0.00  0.00     0.100 A 
ATOM     21  O   UNL d   1      61.724  42.697  51.865  0.00  0.00    -0.237 OA
BRANCH  19  22
ATOM     22  O   UNL d   1      62.715  42.628  50.844  0.00  0.00    -0.257 OA
BRANCH  22  23
ATOM     23  C   UNL d   1      63.116  42.033  51.248  0.00  0.00     0.128 C 
ATOM     24  C   UNL d   1      63.158  41.268  50.928  0.00  0.00     0.029 C 
ENDBRANCH  22  23
ENDBRANCH  19  22
ENDBRANCH  13  14
ENDBRANCH   1  13
TORSDOF 5
ENDMDL
