MODEL 1
REMARK VINA RESULT:      27.0      0.000      0.000
REMARK  4 active torsions:
REMARK  status: ('A' for Active; 'I' for Inactive)
REMARK    1  A    between atoms: N_6  and  C_1 
REMARK       I    between atoms: C_9  and  N_6 
REMARK    2  A    between atoms: C_12  and  C_9 
REMARK    3  A    between atoms: O_11  and  C_12 
REMARK    4  A    between atoms: C_15  and  O_11 
ROOT
ATOM      1  C   UNL d   1      14.497  13.309  -0.123  0.00  0.00     0.124 A 
ATOM      2  C   UNL d   1      15.321  13.210  -0.144  0.00  0.00     0.093 A 
ATOM      3  S   UNL d   1      14.337  14.117  -0.207  0.00  0.00    -0.067 SA
ATOM      4  C   UNL d   1      15.660  13.959  -0.241  0.00  0.00     0.018 A 
ATOM      5  C   UNL d   1      15.056  14.504  -0.279  0.00  0.00     0.032 A 
ATOM      6  C   UNL d   1      15.723  12.485  -0.078  0.00  0.00     0.103 C 
ATOM      7  N   UNL d   1      16.122  11.780  -0.015  0.00  0.00    -0.191 NA
ATOM      8  C   UNL d   1      16.471  14.115  -0.290  0.00  0.00     0.001 C 
ATOM      9  C   UNL d   1      15.152  15.324  -0.374  0.00  0.00     0.007 C 
ENDROOT
BRANCH   1  10
ATOM     10  N   UNL d   1      13.943  12.713  -0.035  0.00  0.00    -0.199 NA
ATOM     11  C   UNL d   1      13.594  12.383  -0.700  0.00  0.00     0.305 C 
ATOM     12  O   UNL d   1      13.034  11.781  -0.611  0.00  0.00    -0.263 OA
BRANCH  11  13
ATOM     13  C   UNL d   1      13.789  12.637  -1.444  0.00  0.00     0.185 C 
BRANCH  13  14
ATOM     14  O   UNL d   1      13.716  12.149  -2.090  0.00  0.00    -0.300 OA
BRANCH  14  15
ATOM     15  C   UNL d   1      13.584  12.458  -2.846  0.00  0.00     0.100 A 
ATOM     16  C   UNL d   1      13.507  11.935  -3.482  0.00  0.00     0.025 A 
ATOM     17  C   UNL d   1      13.377  12.241  -4.226  0.00  0.00     0.002 A 
ATOM     18  C   UNL d   1      13.324  13.057  -4.338  0.00  0.00     0.000 A 
ATOM     19  C   UNL d   1      13.402  13.568  -3.704  0.00  0.00     0.002 A 
ATOM     20  C   UNL d   1      13.533  13.261  -2.955  0.00  0.00     0.025 A 
ENDBRANCH  14  15
ENDBRANCH  13  14
ENDBRANCH  11  13
ENDBRANCH   1  10
TORSDOF 4
ENDMDL
