MODEL 1
REMARK VINA RESULT:      -1.7      0.000      0.000
REMARK  3 active torsions:
REMARK  status: ('A' for Active; 'I' for Inactive)
REMARK    1  A    between atoms: C_9  and  S_1 
REMARK    2  A    between atoms: S_2  and  C_8 
REMARK    3  A    between atoms: N_14  and  C_5 
ROOT
ATOM      1  C   UNL d   1      30.673  17.557 -24.531  0.00  0.00     0.021 A 
ATOM      2  C   UNL d   1      29.530  16.888 -24.248  0.00  0.00     0.021 A 
ATOM      3  C   UNL d   1      29.877  17.551 -24.634  0.00  0.00     0.111 A 
ATOM      4  C   UNL d   1      30.158  16.489 -23.903  0.00  0.00     0.002 A 
ATOM      5  C   UNL d   1      30.873  16.869 -24.055  0.00  0.00     0.002 A 
ATOM      6  C   UNL d   1      28.583  15.944 -23.758  0.00  0.00     0.107 A 
ATOM      7  C   UNL d   1      32.061  17.883 -24.558  0.00  0.00     0.107 A 
ATOM      8  C   UNL d   1      28.763  16.635 -24.185  0.00  0.00     0.015 A 
ATOM      9  C   UNL d   1      31.258  18.060 -24.782  0.00  0.00     0.015 A 
ATOM     10  C   UNL d   1      31.643  16.717 -23.853  0.00  0.00     0.001 A 
ATOM     11  C   UNL d   1      29.964  15.778 -23.465  0.00  0.00     0.001 A 
ATOM     12  C   UNL d   1      32.242  17.217 -24.099  0.00  0.00     0.013 A 
ATOM     13  C   UNL d   1      29.202  15.529 -23.405  0.00  0.00     0.013 A 
ENDROOT
BRANCH   6  14
ATOM     14  S   UNL d   1      27.774  15.699 -23.707  0.00  0.00     0.302 S 
ATOM     15  O   UNL d   1      27.769  15.932 -22.909  0.00  0.00    -0.197 OA
ATOM     16  O   UNL d   1      27.767  15.455 -24.526  0.00  0.00    -0.197 OA
ATOM     17  N   UNL d   1      26.960  15.453 -23.652  0.00  0.00    -0.043 N 
ENDBRANCH   6  14
BRANCH   3  18
ATOM     18  N   UNL d   1      29.502  18.181 -25.096  0.00  0.00    -0.096 NA
ATOM     19  O   UNL d   1      28.918  18.665 -24.754  0.00  0.00    -0.061 OA
ENDBRANCH   3  18
BRANCH   7  20
ATOM     20  S   UNL d   1      32.668  18.438 -24.839  0.00  0.00     0.302 S 
ATOM     21  O   UNL d   1      32.107  19.061 -24.659  0.00  0.00    -0.197 OA
ATOM     22  O   UNL d   1      33.189  17.786 -25.002  0.00  0.00    -0.197 OA
ATOM     23  N   UNL d   1      33.218  18.975 -25.096  0.00  0.00    -0.043 N 
ENDBRANCH   7  20
TORSDOF 3
ENDMDL
MODEL 2
REMARK VINA RESULT:      -1.5      2.950      4.799
REMARK  3 active torsions:
REMARK  status: ('A' for Active; 'I' for Inactive)
REMARK    1  A    between atoms: C_9  and  S_1 
REMARK    2  A    between atoms: S_2  and  C_8 
REMARK    3  A    between atoms: N_14  and  C_5 
ROOT
ATOM      1  C   UNL d   1      32.529  18.292 -23.663  0.00  0.00     0.021 A 
ATOM      2  C   UNL d   1      32.669  19.473 -23.014  0.00  0.00     0.021 A 
ATOM      3  C   UNL d   1      32.418  19.086 -23.717  0.00  0.00     0.111 A 
ATOM      4  C   UNL d   1      32.941  18.873 -22.525  0.00  0.00     0.002 A 
ATOM      5  C   UNL d   1      32.871  18.137 -22.888  0.00  0.00     0.002 A 
ATOM      6  C   UNL d   1      32.963  20.476 -22.045  0.00  0.00     0.107 A 
ATOM      7  C   UNL d   1      32.581  16.890 -23.915  0.00  0.00     0.107 A 
ATOM      8  C   UNL d   1      32.674  20.253 -22.793  0.00  0.00     0.015 A 
ATOM      9  C   UNL d   1      32.385  17.679 -24.172  0.00  0.00     0.015 A 
ATOM     10  C   UNL d   1      33.051  17.380 -22.661  0.00  0.00     0.001 A 
ATOM     11  C   UNL d   1      33.237  19.111 -21.756  0.00  0.00     0.001 A 
ATOM     12  C   UNL d   1      32.910  16.753 -23.166  0.00  0.00     0.013 A 
ATOM     13  C   UNL d   1      33.241  19.886 -21.540  0.00  0.00     0.013 A 
ENDROOT
BRANCH   6  14
ATOM     14  S   UNL d   1      32.958  21.296 -21.838  0.00  0.00     0.302 S 
ATOM     15  O   UNL d   1      33.241  21.476 -22.598  0.00  0.00    -0.197 OA
ATOM     16  O   UNL d   1      32.667  21.124 -21.053  0.00  0.00    -0.197 OA
ATOM     17  N   UNL d   1      32.954  22.123 -21.631  0.00  0.00    -0.043 N 
ENDBRANCH   6  14
BRANCH   3  18
ATOM     18  N   UNL d   1      32.077  19.419 -24.441  0.00  0.00    -0.096 NA
ATOM     19  O   UNL d   1      32.570  19.710 -25.045  0.00  0.00    -0.061 OA
ENDBRANCH   3  18
BRANCH   7  20
ATOM     20  S   UNL d   1      32.416  16.251 -24.480  0.00  0.00     0.302 S 
ATOM     21  O   UNL d   1      33.241  16.308 -24.706  0.00  0.00    -0.197 OA
ATOM     22  O   UNL d   1      31.606  16.232 -24.222  0.00  0.00    -0.197 OA
ATOM     23  N   UNL d   1      32.286  15.655 -25.014  0.00  0.00    -0.043 N 
ENDBRANCH   7  20
TORSDOF 3
ENDMDL
MODEL 3
REMARK VINA RESULT:      -0.9      3.914      5.482
REMARK  3 active torsions:
REMARK  status: ('A' for Active; 'I' for Inactive)
REMARK    1  A    between atoms: C_9  and  S_1 
REMARK    2  A    between atoms: S_2  and  C_8 
REMARK    3  A    between atoms: N_14  and  C_5 
ROOT
ATOM      1  C   UNL d   1      32.999  21.205 -22.235  0.00  0.00     0.021 A 
ATOM      2  C   UNL d   1      33.070  20.140 -23.069  0.00  0.00     0.021 A 
ATOM      3  C   UNL d   1      33.108  20.978 -22.998  0.00  0.00     0.111 A 
ATOM      4  C   UNL d   1      32.932  19.867 -22.309  0.00  0.00     0.002 A 
ATOM      5  C   UNL d   1      32.883  20.490 -21.772  0.00  0.00     0.002 A 
ATOM      6  C   UNL d   1      33.077  18.821 -23.606  0.00  0.00     0.107 A 
ATOM      7  C   UNL d   1      32.851  21.954 -21.031  0.00  0.00     0.107 A 
ATOM      8  C   UNL d   1      33.142  19.644 -23.706  0.00  0.00     0.015 A 
ATOM      9  C   UNL d   1      32.984  21.930 -21.873  0.00  0.00     0.015 A 
ATOM     10  C   UNL d   1      32.757  20.532 -20.973  0.00  0.00     0.001 A 
ATOM     11  C   UNL d   1      32.866  19.017 -22.214  0.00  0.00     0.001 A 
ATOM     12  C   UNL d   1      32.740  21.258 -20.595  0.00  0.00     0.013 A 
ATOM     13  C   UNL d   1      32.939  18.527 -22.848  0.00  0.00     0.013 A 
ENDROOT
BRANCH   6  14
ATOM     14  S   UNL d   1      33.157  18.323 -24.286  0.00  0.00     0.302 S 
ATOM     15  O   UNL d   1      33.122  17.659 -23.787  0.00  0.00    -0.197 OA
ATOM     16  O   UNL d   1      33.194  18.997 -24.810  0.00  0.00    -0.197 OA
ATOM     17  N   UNL d   1      33.237  17.819 -24.969  0.00  0.00    -0.043 N 
ENDBRANCH   6  14
BRANCH   3  18
ATOM     18  N   UNL d   1      33.241  21.580 -23.607  0.00  0.00    -0.096 NA
ATOM     19  O   UNL d   1      32.617  21.828 -24.099  0.00  0.00    -0.061 OA
ENDBRANCH   3  18
BRANCH   7  20
ATOM     20  S   UNL d   1      32.839  22.743 -20.668  0.00  0.00     0.302 S 
ATOM     21  O   UNL d   1      33.228  22.381 -19.994  0.00  0.00    -0.197 OA
ATOM     22  O   UNL d   1      32.453  23.055 -21.358  0.00  0.00    -0.197 OA
ATOM     23  N   UNL d   1      32.840  23.469 -20.307  0.00  0.00    -0.043 N 
ENDBRANCH   7  20
TORSDOF 3
ENDMDL
MODEL 4
REMARK VINA RESULT:      -0.9      4.927      6.309
REMARK  3 active torsions:
REMARK  status: ('A' for Active; 'I' for Inactive)
REMARK    1  A    between atoms: C_9  and  S_1 
REMARK    2  A    between atoms: S_2  and  C_8 
REMARK    3  A    between atoms: N_14  and  C_5 
ROOT
ATOM      1  C   UNL d   1      32.897  21.744 -21.027  0.00  0.00     0.021 A 
ATOM      2  C   UNL d   1      32.907  20.814 -22.011  0.00  0.00     0.021 A 
ATOM      3  C   UNL d   1      32.792  21.624 -21.814  0.00  0.00     0.111 A 
ATOM      4  C   UNL d   1      33.089  20.445 -21.302  0.00  0.00     0.002 A 
ATOM      5  C   UNL d   1      33.092  20.983 -20.678  0.00  0.00     0.002 A 
ATOM      6  C   UNL d   1      33.010  19.595 -22.741  0.00  0.00     0.107 A 
ATOM      7  C   UNL d   1      33.004  22.316 -19.726  0.00  0.00     0.107 A 
ATOM      8  C   UNL d   1      32.866  20.414 -22.715  0.00  0.00     0.015 A 
ATOM      9  C   UNL d   1      32.853  22.405 -20.560  0.00  0.00     0.015 A 
ATOM     10  C   UNL d   1      33.233  20.918 -19.883  0.00  0.00     0.001 A 
ATOM     11  C   UNL d   1      33.236  19.601 -21.337  0.00  0.00     0.001 A 
ATOM     12  C   UNL d   1      33.191  21.577 -19.400  0.00  0.00     0.013 A 
ATOM     13  C   UNL d   1      33.195  19.206 -22.037  0.00  0.00     0.013 A 
ENDROOT
BRANCH   6  14
ATOM     14  S   UNL d   1      32.961  19.198 -23.487  0.00  0.00     0.302 S 
ATOM     15  O   UNL d   1      33.152  19.914 -23.864  0.00  0.00    -0.197 OA
ATOM     16  O   UNL d   1      32.765  18.456 -23.111  0.00  0.00    -0.197 OA
ATOM     17  N   UNL d   1      32.913  18.802 -24.240  0.00  0.00    -0.043 N 
ENDBRANCH   6  14
BRANCH   3  18
ATOM     18  N   UNL d   1      32.587  22.294 -22.325  0.00  0.00    -0.096 NA
ATOM     19  O   UNL d   1      33.154  22.623 -22.837  0.00  0.00    -0.061 OA
ENDBRANCH   3  18
BRANCH   7  20
ATOM     20  S   UNL d   1      32.950  23.040 -19.248  0.00  0.00     0.302 S 
ATOM     21  O   UNL d   1      32.848  22.523 -18.571  0.00  0.00    -0.197 OA
ATOM     22  O   UNL d   1      33.055  23.510 -19.948  0.00  0.00    -0.197 OA
ATOM     23  N   UNL d   1      32.897  23.700 -18.780  0.00  0.00    -0.043 N 
ENDBRANCH   7  20
TORSDOF 3
ENDMDL
MODEL 5
REMARK VINA RESULT:      -0.8      4.193      6.045
REMARK  3 active torsions:
REMARK  status: ('A' for Active; 'I' for Inactive)
REMARK    1  A    between atoms: C_9  and  S_1 
REMARK    2  A    between atoms: S_2  and  C_8 
REMARK    3  A    between atoms: N_14  and  C_5 
ROOT
ATOM      1  C   UNL d   1      32.894  20.296 -22.735  0.00  0.00     0.021 A 
ATOM      2  C   UNL d   1      32.942  21.317 -21.846  0.00  0.00     0.021 A 
ATOM      3  C   UNL d   1      32.821  21.091 -22.647  0.00  0.00     0.111 A 
ATOM      4  C   UNL d   1      33.094  20.617 -21.447  0.00  0.00     0.002 A 
ATOM      5  C   UNL d   1      33.073  19.971 -21.958  0.00  0.00     0.002 A 
ATOM      6  C   UNL d   1      33.072  22.091 -20.657  0.00  0.00     0.107 A 
ATOM      7  C   UNL d   1      32.949  18.969 -23.252  0.00  0.00     0.107 A 
ATOM      8  C   UNL d   1      32.929  22.037 -21.475  0.00  0.00     0.015 A 
ATOM      9  C   UNL d   1      32.832  19.804 -23.376  0.00  0.00     0.015 A 
ATOM     10  C   UNL d   1      33.181  19.174 -21.860  0.00  0.00     0.001 A 
ATOM     11  C   UNL d   1      33.241  20.681 -20.605  0.00  0.00     0.001 A 
ATOM     12  C   UNL d   1      33.121  18.667 -22.499  0.00  0.00     0.013 A 
ATOM     13  C   UNL d   1      33.227  21.397 -20.240  0.00  0.00     0.013 A 
ENDROOT
BRANCH   6  14
ATOM     14  S   UNL d   1      33.053  22.855 -20.293  0.00  0.00     0.302 S 
ATOM     15  O   UNL d   1      33.079  23.201 -21.048  0.00  0.00    -0.197 OA
ATOM     16  O   UNL d   1      33.026  22.511 -19.511  0.00  0.00    -0.197 OA
ATOM     17  N   UNL d   1      33.034  23.625 -19.928  0.00  0.00    -0.043 N 
ENDBRANCH   6  14
BRANCH   3  18
ATOM     18  N   UNL d   1      32.639  21.581 -23.339  0.00  0.00    -0.096 NA
ATOM     19  O   UNL d   1      33.241  22.006 -23.726  0.00  0.00    -0.061 OA
ENDBRANCH   3  18
BRANCH   7  20
ATOM     20  S   UNL d   1      32.877  18.463 -23.955  0.00  0.00     0.302 S 
ATOM     21  O   UNL d   1      32.531  17.877 -23.434  0.00  0.00    -0.197 OA
ATOM     22  O   UNL d   1      33.226  19.075 -24.431  0.00  0.00    -0.197 OA
ATOM     23  N   UNL d   1      32.800  17.973 -24.596  0.00  0.00    -0.043 N 
ENDBRANCH   7  20
TORSDOF 3
ENDMDL
MODEL 6
REMARK VINA RESULT:       0.4      5.284      6.901
REMARK  3 active torsions:
REMARK  status: ('A' for Active; 'I' for Inactive)
REMARK    1  A    between atoms: C_9  and  S_1 
REMARK    2  A    between atoms: S_2  and  C_8 
REMARK    3  A    between atoms: N_14  and  C_5 
ROOT
ATOM      1  C   UNL d   1      32.998  21.261 -22.092  0.00  0.00     0.021 A 
ATOM      2  C   UNL d   1      32.911  21.874 -20.887  0.00  0.00     0.021 A 
ATOM      3  C   UNL d   1      32.893  21.143 -21.304  0.00  0.00     0.111 A 
ATOM      4  C   UNL d   1      33.034  22.446 -21.462  0.00  0.00     0.002 A 
ATOM      5  C   UNL d   1      33.091  22.108 -22.211  0.00  0.00     0.002 A 
ATOM      6  C   UNL d   1      32.877  22.845 -19.845  0.00  0.00     0.107 A 
ATOM      7  C   UNL d   1      33.151  21.092 -23.499  0.00  0.00     0.107 A 
ATOM      8  C   UNL d   1      32.834  22.054 -20.100  0.00  0.00     0.015 A 
ATOM      9  C   UNL d   1      33.027  20.757 -22.725  0.00  0.00     0.015 A 
ATOM     10  C   UNL d   1      33.208  22.409 -22.954  0.00  0.00     0.001 A 
ATOM     11  C   UNL d   1      33.077  23.258 -21.190  0.00  0.00     0.001 A 
ATOM     12  C   UNL d   1      33.239  21.911 -23.602  0.00  0.00     0.013 A 
ATOM     13  C   UNL d   1      33.000  23.433 -20.409  0.00  0.00     0.013 A 
ENDROOT
BRANCH   6  14
ATOM     14  S   UNL d   1      32.794  23.008 -19.018  0.00  0.00     0.302 S 
ATOM     15  O   UNL d   1      33.238  23.702 -19.125  0.00  0.00    -0.197 OA
ATOM     16  O   UNL d   1      32.336  22.297 -18.896  0.00  0.00    -0.197 OA
ATOM     17  N   UNL d   1      32.711  23.175 -18.187  0.00  0.00    -0.043 N 
ENDBRANCH   6  14
BRANCH   3  18
ATOM     18  N   UNL d   1      32.782  20.337 -21.005  0.00  0.00    -0.096 NA
ATOM     19  O   UNL d   1      33.159  20.091 -20.305  0.00  0.00    -0.061 OA
ENDBRANCH   3  18
BRANCH   7  20
ATOM     20  S   UNL d   1      33.177  20.530 -24.161  0.00  0.00     0.302 S 
ATOM     21  O   UNL d   1      33.114  21.213 -24.676  0.00  0.00    -0.197 OA
ATOM     22  O   UNL d   1      33.238  19.885 -23.611  0.00  0.00    -0.197 OA
ATOM     23  N   UNL d   1      33.200  20.026 -24.795  0.00  0.00    -0.043 N 
ENDBRANCH   7  20
TORSDOF 3
ENDMDL
MODEL 7
REMARK VINA RESULT:       0.7      0.399      4.151
REMARK  3 active torsions:
REMARK  status: ('A' for Active; 'I' for Inactive)
REMARK    1  A    between atoms: C_9  and  S_1 
REMARK    2  A    between atoms: S_2  and  C_8 
REMARK    3  A    between atoms: N_14  and  C_5 
ROOT
ATOM      1  C   UNL d   1      29.358  16.695 -24.118  0.00  0.00     0.021 A 
ATOM      2  C   UNL d   1      30.574  17.235 -24.372  0.00  0.00     0.021 A 
ATOM      3  C   UNL d   1      29.751  17.249 -24.547  0.00  0.00     0.111 A 
ATOM      4  C   UNL d   1      30.664  16.643 -23.812  0.00  0.00     0.002 A 
ATOM      5  C   UNL d   1      29.941  16.290 -23.632  0.00  0.00     0.002 A 
ATOM      6  C   UNL d   1      31.967  17.532 -24.368  0.00  0.00     0.107 A 
ATOM      7  C   UNL d   1      28.362  15.852 -23.543  0.00  0.00     0.107 A 
ATOM      8  C   UNL d   1      31.197  17.673 -24.650  0.00  0.00     0.015 A 
ATOM      9  C   UNL d   1      28.577  16.481 -24.077  0.00  0.00     0.015 A 
ATOM     10  C   UNL d   1      29.718  15.695 -23.131  0.00  0.00     0.001 A 
ATOM     11  C   UNL d   1      31.460  16.504 -23.527  0.00  0.00     0.001 A 
ATOM     12  C   UNL d   1      28.933  15.469 -23.080  0.00  0.00     0.013 A 
ATOM     13  C   UNL d   1      32.077  16.940 -23.805  0.00  0.00     0.013 A 
ENDROOT
BRANCH   6  14
ATOM     14  S   UNL d   1      32.602  18.002 -24.673  0.00  0.00     0.302 S 
ATOM     15  O   UNL d   1      32.264  18.669 -24.310  0.00  0.00    -0.197 OA
ATOM     16  O   UNL d   1      32.959  17.324 -25.051  0.00  0.00    -0.197 OA
ATOM     17  N   UNL d   1      33.239  18.478 -24.979  0.00  0.00    -0.043 N 
ENDBRANCH   6  14
BRANCH   3  18
ATOM     18  N   UNL d   1      29.310  17.754 -25.097  0.00  0.00    -0.096 NA
ATOM     19  O   UNL d   1      29.182  18.557 -24.922  0.00  0.00    -0.061 OA
ENDBRANCH   3  18
BRANCH   7  20
ATOM     20  S   UNL d   1      27.519  15.643 -23.518  0.00  0.00     0.302 S 
ATOM     21  O   UNL d   1      27.548  15.844 -22.685  0.00  0.00    -0.197 OA
ATOM     22  O   UNL d   1      27.541  15.455 -24.347  0.00  0.00    -0.197 OA
ATOM     23  N   UNL d   1      26.733  15.453 -23.469  0.00  0.00    -0.043 N 
ENDBRANCH   7  20
TORSDOF 3
ENDMDL
