MODEL 1
REMARK VINA RESULT:     128.8      0.000      0.000
REMARK  3 active torsions:
REMARK  status: ('A' for Active; 'I' for Inactive)
REMARK    1  A    between atoms: C_24  and  N_10 
REMARK    2  A    between atoms: C_12  and  N_15 
REMARK       I    between atoms: N_15  and  C_16 
REMARK    3  A    between atoms: C_16  and  C_24 
ROOT
ATOM      1  N   UNL d   1      60.872  47.937  50.368  0.00  0.00    -0.188 NA
ATOM      2  C   UNL d   1      61.244  48.640  50.144  0.00  0.00     0.298 C 
ATOM      3  O   UNL d   1      61.987  48.606  49.770  0.00  0.00    -0.263 OA
ENDROOT
BRANCH   1   4
ATOM      4  C   UNL d   1      61.237  47.208  50.221  0.00  0.00     0.166 A 
ATOM      5  N   UNL d   1      61.063  46.554  50.697  0.00  0.00    -0.226 NA
ATOM      6  C   UNL d   1      61.424  45.827  50.554  0.00  0.00     0.090 A 
ATOM      7  C   UNL d   1      61.254  45.171  51.026  0.00  0.00     0.041 A 
ATOM      8  C   UNL d   1      61.965  45.747  49.931  0.00  0.00     0.081 A 
ATOM      9  C   UNL d   1      61.619  44.441  50.879  0.00  0.00     0.105 A 
ATOM     10  C   UNL d   1      60.715  45.246  51.649  0.00  0.00     0.004 A 
ATOM     11  C   UNL d   1      61.443  43.791  51.356  0.00  0.00     0.025 A 
ATOM     12  O   UNL d   1      62.154  44.368  50.260  0.00  0.00    -0.273 OA
ATOM     13  C   UNL d   1      60.906  43.863  51.977  0.00  0.00     0.002 A 
ATOM     14  C   UNL d   1      60.539  44.596  52.125  0.00  0.00     0.000 A 
ATOM     15  C   UNL d   1      62.330  45.018  49.785  0.00  0.00     0.301 A 
ATOM     16  O   UNL d   1      62.871  44.944  49.159  0.00  0.00    -0.259 OA
ATOM     17  C   UNL d   1      62.139  46.401  49.455  0.00  0.00     0.010 A 
ATOM     18  C   UNL d   1      61.780  47.125  49.598  0.00  0.00     0.039 A 
ATOM     19  C   UNL d   1      62.682  46.318  48.831  0.00  0.00     0.000 C 
ENDBRANCH   1   4
BRANCH   2  20
ATOM     20  C   UNL d   1      60.886  49.374  50.287  0.00  0.00     0.143 C 
BRANCH  20  21
ATOM     21  N   UNL d   1      60.066  49.435  50.318  0.00  0.00    -0.306 N 
ATOM     22  C   UNL d   1      59.746  49.490  49.603  0.00  0.00     0.059 A 
ATOM     23  C   UNL d   1      59.003  49.559  49.327  0.00  0.00     0.080 A 
ATOM     24  C   UNL d   1      58.300  49.598  49.653  0.00  0.00     0.061 A 
ATOM     25  C   UNL d   1      59.332  49.489  50.369  0.00  0.00     0.024 A 
ATOM     26  N   UNL d   1      58.015  49.588  50.388  0.00  0.00    -0.280 N 
ATOM     27  C   UNL d   1      58.341  49.532  51.113  0.00  0.00     0.049 A 
ATOM     28  C   UNL d   1      57.226  49.651  50.316  0.00  0.00     0.264 A 
ATOM     29  C   UNL d   1      59.066  49.465  51.382  0.00  0.00     0.079 A 
ATOM     30  C   UNL d   1      57.870  49.540  51.752  0.00  0.00     0.014 A 
ATOM     31  C   UNL d   1      59.783  49.425  51.057  0.00  0.00     0.059 A 
ATOM     32  C   UNL d   1      57.090  49.602  51.680  0.00  0.00     0.006 A 
ATOM     33  C   UNL d   1      56.763  49.659  50.955  0.00  0.00     0.061 A 
ATOM     34  O   UNL d   1      56.905  49.707  49.587  0.00  0.00    -0.267 OA
ENDBRANCH  20  21
ENDBRANCH   2  20
TORSDOF 3
ENDMDL
