MODEL 1
REMARK VINA RESULT:      -3.3      0.000      0.000
REMARK  2 active torsions:
REMARK  status: ('A' for Active; 'I' for Inactive)
REMARK       I    between atoms: C_6  and  N_1 
REMARK    1  A    between atoms: C_7  and  C_3 
REMARK    2  A    between atoms: C_8  and  C_4 
ROOT
ATOM      1  N   UNL d   1     -41.478-121.788 -51.688  0.00  0.00    -0.195 N 
ATOM      2  N   UNL d   1     -41.450-121.687 -52.493  0.00  0.00    -0.163 NA
ATOM      3  C   UNL d   1     -41.641-122.414 -52.836  0.00  0.00     0.106 A 
ATOM      4  C   UNL d   1     -41.685-122.570 -51.529  0.00  0.00     0.088 A 
ATOM      5  C   UNL d   1     -41.783-122.950 -52.242  0.00  0.00     0.040 A 
ATOM      6  C   UNL d   1     -41.323-121.192 -51.096  0.00  0.00     0.281 C 
ATOM      7  O   UNL d   1     -41.370-121.367 -50.317  0.00  0.00    -0.265 OA
ATOM      8  C   UNL d   1     -41.123-120.433 -51.351  0.00  0.00     0.068 C 
ENDROOT
BRANCH   3   9
ATOM      9  C   UNL d   1     -41.680-122.569 -53.645  0.00  0.00     0.058 A 
ATOM     10  C   UNL d   1     -42.276-122.228 -54.103  0.00  0.00     0.197 A 
ATOM     11  O   UNL d   1     -42.812-121.744 -53.735  0.00  0.00    -0.286 OA
ATOM     12  C   UNL d   1     -42.293-122.395 -54.895  0.00  0.00     0.042 A 
ATOM     13  C   UNL d   1     -41.767-122.867 -55.242  0.00  0.00     0.003 A 
ATOM     14  C   UNL d   1     -41.171-123.208 -54.785  0.00  0.00     0.000 A 
ATOM     15  C   UNL d   1     -41.123-123.065 -53.997  0.00  0.00     0.005 A 
ENDBRANCH   3   9
BRANCH   4  16
ATOM     16  C   UNL d   1     -41.773-122.902 -50.774  0.00  0.00     0.018 A 
ATOM     17  C   UNL d   1     -42.508-122.973 -50.419  0.00  0.00     0.002 A 
ATOM     18  C   UNL d   1     -43.161-122.700 -50.846  0.00  0.00     0.000 C 
ATOM     19  C   UNL d   1     -42.603-123.293 -49.691  0.00  0.00     0.000 A 
ATOM     20  C   UNL d   1     -41.949-123.566 -49.266  0.00  0.00     0.000 A 
ATOM     21  C   UNL d   1     -41.187-123.512 -49.591  0.00  0.00     0.000 A 
ATOM     22  C   UNL d   1     -41.123-123.177 -50.344  0.00  0.00     0.002 A 
ENDBRANCH   4  16
TORSDOF 2
ENDMDL
MODEL 2
REMARK VINA RESULT:      -2.7      0.781      3.701
REMARK  2 active torsions:
REMARK  status: ('A' for Active; 'I' for Inactive)
REMARK       I    between atoms: C_6  and  N_1 
REMARK    1  A    between atoms: C_7  and  C_3 
REMARK    2  A    between atoms: C_8  and  C_4 
ROOT
ATOM      1  N   UNL d   1     -41.525-121.653 -52.078  0.00  0.00    -0.195 N 
ATOM      2  N   UNL d   1     -41.536-121.781 -51.276  0.00  0.00    -0.163 NA
ATOM      3  C   UNL d   1     -41.760-122.567 -51.158  0.00  0.00     0.106 A 
ATOM      4  C   UNL d   1     -41.741-122.353 -52.457  0.00  0.00     0.088 A 
ATOM      5  C   UNL d   1     -41.884-122.911 -51.884  0.00  0.00     0.040 A 
ATOM      6  C   UNL d   1     -41.327-120.923 -52.474  0.00  0.00     0.281 C 
ATOM      7  O   UNL d   1     -41.339-120.873 -53.272  0.00  0.00    -0.265 OA
ATOM      8  C   UNL d   1     -41.123-120.272 -52.009  0.00  0.00     0.068 C 
ENDROOT
BRANCH   3   9
ATOM      9  C   UNL d   1     -41.843-122.938 -50.426  0.00  0.00     0.058 A 
ATOM     10  C   UNL d   1     -42.530-122.829 -49.983  0.00  0.00     0.197 A 
ATOM     11  O   UNL d   1     -43.110-122.353 -50.288  0.00  0.00    -0.286 OA
ATOM     12  C   UNL d   1     -42.588-123.205 -49.268  0.00  0.00     0.042 A 
ATOM     13  C   UNL d   1     -42.018-123.666 -48.982  0.00  0.00     0.003 A 
ATOM     14  C   UNL d   1     -41.330-123.775 -49.425  0.00  0.00     0.000 A 
ATOM     15  C   UNL d   1     -41.238-123.419 -50.138  0.00  0.00     0.005 A 
ENDBRANCH   3   9
BRANCH   4  16
ATOM     16  C   UNL d   1     -41.800-122.459 -53.278  0.00  0.00     0.018 A 
ATOM     17  C   UNL d   1     -41.494-123.122 -53.649  0.00  0.00     0.002 A 
ATOM     18  C   UNL d   1     -41.123-123.685 -53.170  0.00  0.00     0.000 C 
ATOM     19  C   UNL d   1     -41.546-123.233 -54.440  0.00  0.00     0.000 A 
ATOM     20  C   UNL d   1     -41.917-122.670 -54.917  0.00  0.00     0.000 A 
ATOM     21  C   UNL d   1     -42.240-121.983 -54.580  0.00  0.00     0.000 A 
ATOM     22  C   UNL d   1     -42.170-121.899 -53.761  0.00  0.00     0.002 A 
ENDBRANCH   4  16
TORSDOF 2
ENDMDL
MODEL 3
REMARK VINA RESULT:      -1.6      1.697      4.486
REMARK  2 active torsions:
REMARK  status: ('A' for Active; 'I' for Inactive)
REMARK       I    between atoms: C_6  and  N_1 
REMARK    1  A    between atoms: C_7  and  C_3 
REMARK    2  A    between atoms: C_8  and  C_4 
ROOT
ATOM      1  N   UNL d   1     -42.925-122.429 -50.129  0.00  0.00    -0.195 N 
ATOM      2  N   UNL d   1     -43.022-122.620 -49.346  0.00  0.00    -0.163 NA
ATOM      3  C   UNL d   1     -42.290-122.880 -49.066  0.00  0.00     0.106 A 
ATOM      4  C   UNL d   1     -42.139-122.567 -50.336  0.00  0.00     0.088 A 
ATOM      5  C   UNL d   1     -41.754-122.845 -49.676  0.00  0.00     0.040 A 
ATOM      6  C   UNL d   1     -43.527-122.133 -50.658  0.00  0.00     0.281 C 
ATOM      7  O   UNL d   1     -43.355-121.966 -51.420  0.00  0.00    -0.265 OA
ATOM      8  C   UNL d   1     -44.289-122.026 -50.359  0.00  0.00     0.068 C 
ENDROOT
BRANCH   3   9
ATOM      9  C   UNL d   1     -42.130-123.132 -48.297  0.00  0.00     0.058 A 
ATOM     10  C   UNL d   1     -42.686-123.582 -47.886  0.00  0.00     0.197 A 
ATOM     11  O   UNL d   1     -43.382-123.764 -48.258  0.00  0.00    -0.286 OA
ATOM     12  C   UNL d   1     -42.506-123.817 -47.132  0.00  0.00     0.042 A 
ATOM     13  C   UNL d   1     -41.826-123.633 -46.780  0.00  0.00     0.003 A 
ATOM     14  C   UNL d   1     -41.270-123.183 -47.191  0.00  0.00     0.000 A 
ATOM     15  C   UNL d   1     -41.414-122.933 -47.939  0.00  0.00     0.005 A 
ENDBRANCH   3   9
BRANCH   4  16
ATOM     16  C   UNL d   1     -41.809-122.442 -51.087  0.00  0.00     0.018 A 
ATOM     17  C   UNL d   1     -41.509-123.060 -51.533  0.00  0.00     0.002 A 
ATOM     18  C   UNL d   1     -41.548-123.817 -51.203  0.00  0.00     0.000 C 
ATOM     19  C   UNL d   1     -41.188-122.949 -52.258  0.00  0.00     0.000 A 
ATOM     20  C   UNL d   1     -41.150-122.192 -52.587  0.00  0.00     0.000 A 
ATOM     21  C   UNL d   1     -41.444-121.538 -52.167  0.00  0.00     0.000 A 
ATOM     22  C   UNL d   1     -41.768-121.687 -51.421  0.00  0.00     0.002 A 
ENDBRANCH   4  16
TORSDOF 2
ENDMDL
MODEL 4
REMARK VINA RESULT:      -0.6      1.380      2.305
REMARK  2 active torsions:
REMARK  status: ('A' for Active; 'I' for Inactive)
REMARK       I    between atoms: C_6  and  N_1 
REMARK    1  A    between atoms: C_7  and  C_3 
REMARK    2  A    between atoms: C_8  and  C_4 
ROOT
ATOM      1  N   UNL d   1     -42.935-122.530 -50.093  0.00  0.00    -0.195 N 
ATOM      2  N   UNL d   1     -42.826-122.487 -50.897  0.00  0.00    -0.163 NA
ATOM      3  C   UNL d   1     -42.112-122.867 -51.066  0.00  0.00     0.106 A 
ATOM      4  C   UNL d   1     -42.296-122.933 -49.763  0.00  0.00     0.088 A 
ATOM      5  C   UNL d   1     -41.793-123.138 -50.369  0.00  0.00     0.040 A 
ATOM      6  C   UNL d   1     -43.596-122.215 -49.653  0.00  0.00     0.281 C 
ATOM      7  O   UNL d   1     -43.635-122.296 -48.859  0.00  0.00    -0.265 OA
ATOM      8  C   UNL d   1     -44.191-121.825 -50.072  0.00  0.00     0.068 C 
ENDROOT
BRANCH   3   9
ATOM      9  C   UNL d   1     -41.780-122.957 -51.816  0.00  0.00     0.058 A 
ATOM     10  C   UNL d   1     -41.502-122.297 -52.225  0.00  0.00     0.197 A 
ATOM     11  O   UNL d   1     -41.564-121.571 -51.871  0.00  0.00    -0.286 OA
ATOM     12  C   UNL d   1     -41.180-122.411 -52.960  0.00  0.00     0.042 A 
ATOM     13  C   UNL d   1     -41.124-123.121 -53.295  0.00  0.00     0.003 A 
ATOM     14  C   UNL d   1     -41.403-123.781 -52.885  0.00  0.00     0.000 A 
ATOM     15  C   UNL d   1     -41.728-123.707 -52.155  0.00  0.00     0.005 A 
ENDBRANCH   3   9
BRANCH   4  16
ATOM     16  C   UNL d   1     -42.193-123.096 -48.956  0.00  0.00     0.018 A 
ATOM     17  C   UNL d   1     -41.609-122.731 -48.515  0.00  0.00     0.002 A 
ATOM     18  C   UNL d   1     -41.123-122.188 -48.907  0.00  0.00     0.000 C 
ATOM     19  C   UNL d   1     -41.501-122.882 -47.736  0.00  0.00     0.000 A 
ATOM     20  C   UNL d   1     -41.988-123.424 -47.345  0.00  0.00     0.000 A 
ATOM     21  C   UNL d   1     -42.592-123.817 -47.758  0.00  0.00     0.000 A 
ATOM     22  C   UNL d   1     -42.676-123.638 -48.561  0.00  0.00     0.002 A 
ENDBRANCH   4  16
TORSDOF 2
ENDMDL
