MODEL 1
REMARK VINA RESULT:      -3.5      0.000      0.000
REMARK  6 active torsions:
REMARK  status: ('A' for Active; 'I' for Inactive)
REMARK    1  A    between atoms: C_3  and  N_1 
REMARK       I    between atoms: C_2  and  N_10 
REMARK    2  A    between atoms: C_9  and  C_2 
REMARK    3  A    between atoms: C_15  and  N_4 
REMARK    4  A    between atoms: O_14  and  C_8 
REMARK    5  A    between atoms: N_10  and  C_13 
REMARK    6  A    between atoms: C_13  and  C_15 
ROOT
ATOM      1  N   UNL d   1      32.730  17.939 -23.711  0.00  0.00    -0.300 N 
ATOM      2  N   UNL d   1      33.070  19.383 -22.990  0.00  0.00    -0.299 N 
ATOM      3  C   UNL d   1      32.810  17.982 -22.895  0.00  0.00     0.100 A 
ATOM      4  C   UNL d   1      32.820  18.622 -24.172  0.00  0.00     0.100 A 
ATOM      5  C   UNL d   1      32.980  18.702 -22.536  0.00  0.00     0.100 A 
ATOM      6  C   UNL d   1      32.989  19.339 -23.815  0.00  0.00     0.100 A 
ENDROOT
BRANCH   2   7
ATOM      7  C   UNL d   1      33.240  20.102 -22.631  0.00  0.00     0.101 C 
BRANCH   7   8
ATOM      8  C   UNL d   1      32.775  20.381 -22.008  0.00  0.00     0.121 C 
BRANCH   8   9
ATOM      9  N   UNL d   1      32.902  21.121 -21.695  0.00  0.00    -0.205 NA
ATOM     10  C   UNL d   1      32.366  21.441 -21.163  0.00  0.00     0.279 C 
ATOM     11  O   UNL d   1      31.702  21.019 -20.944  0.00  0.00    -0.265 OA
BRANCH  10  12
ATOM     12  C   UNL d   1      32.496  22.201 -20.843  0.00  0.00     0.058 A 
ATOM     13  C   UNL d   1      32.304  22.848 -21.260  0.00  0.00     0.005 A 
ATOM     14  C   UNL d   1      32.434  23.608 -20.939  0.00  0.00     0.000 A 
ATOM     15  C   UNL d   1      32.762  23.687 -20.190  0.00  0.00     0.000 A 
ATOM     16  C   UNL d   1      32.961  22.996 -19.758  0.00  0.00     0.000 A 
ATOM     17  C   UNL d   1      32.831  22.263 -20.077  0.00  0.00     0.005 A 
ENDBRANCH  10  12
ENDBRANCH   8   9
ENDBRANCH   7   8
ENDBRANCH   2   7
BRANCH   1  18
ATOM     18  C   UNL d   1      32.560  17.219 -24.071  0.00  0.00     0.086 A 
ATOM     19  C   UNL d   1      31.779  17.003 -24.230  0.00  0.00     0.110 A 
ATOM     20  C   UNL d   1      31.608  16.279 -24.590  0.00  0.00     0.026 A 
ATOM     21  C   UNL d   1      32.220  15.779 -24.789  0.00  0.00     0.002 A 
ATOM     22  C   UNL d   1      33.006  15.986 -24.635  0.00  0.00     0.002 A 
ATOM     23  C   UNL d   1      33.174  16.698 -24.279  0.00  0.00     0.019 A 
BRANCH  19  24
ATOM     24  O   UNL d   1      31.160  17.524 -24.021  0.00  0.00    -0.327 OA
ATOM     25  C   UNL d   1      30.386  17.340 -24.249  0.00  0.00     0.181 C 
ENDBRANCH  19  24
ENDBRANCH   1  18
TORSDOF 6
ENDMDL
MODEL 2
REMARK VINA RESULT:      -2.0      0.878      5.961
REMARK  6 active torsions:
REMARK  status: ('A' for Active; 'I' for Inactive)
REMARK    1  A    between atoms: C_3  and  N_1 
REMARK       I    between atoms: C_2  and  N_10 
REMARK    2  A    between atoms: C_9  and  C_2 
REMARK    3  A    between atoms: C_15  and  N_4 
REMARK    4  A    between atoms: O_14  and  C_8 
REMARK    5  A    between atoms: N_10  and  C_13 
REMARK    6  A    between atoms: C_13  and  C_15 
ROOT
ATOM      1  N   UNL d   1      32.775  21.591 -21.225  0.00  0.00    -0.300 N 
ATOM      2  N   UNL d   1      32.928  20.180 -22.064  0.00  0.00    -0.299 N 
ATOM      3  C   UNL d   1      32.465  20.895 -20.919  0.00  0.00     0.100 A 
ATOM      4  C   UNL d   1      33.165  21.584 -21.957  0.00  0.00     0.100 A 
ATOM      5  C   UNL d   1      32.541  20.191 -21.337  0.00  0.00     0.100 A 
ATOM      6  C   UNL d   1      33.241  20.884 -22.373  0.00  0.00     0.100 A 
ENDROOT
BRANCH   2   7
ATOM      7  C   UNL d   1      33.005  19.477 -22.483  0.00  0.00     0.101 C 
BRANCH   7   8
ATOM      8  C   UNL d   1      32.529  19.325 -23.141  0.00  0.00     0.121 C 
BRANCH   8   9
ATOM      9  N   UNL d   1      32.315  18.563 -23.331  0.00  0.00    -0.205 NA
ATOM     10  C   UNL d   1      32.262  18.335 -24.117  0.00  0.00     0.279 C 
ATOM     11  O   UNL d   1      32.423  18.869 -24.713  0.00  0.00    -0.265 OA
BRANCH  10  12
ATOM     12  C   UNL d   1      32.043  17.553 -24.312  0.00  0.00     0.058 A 
ATOM     13  C   UNL d   1      32.555  16.957 -24.203  0.00  0.00     0.005 A 
ATOM     14  C   UNL d   1      32.336  16.175 -24.398  0.00  0.00     0.000 A 
ATOM     15  C   UNL d   1      31.589  16.021 -24.704  0.00  0.00     0.000 A 
ATOM     16  C   UNL d   1      31.057  16.660 -24.816  0.00  0.00     0.000 A 
ATOM     17  C   UNL d   1      31.278  17.415 -24.624  0.00  0.00     0.005 A 
ENDBRANCH  10  12
ENDBRANCH   8   9
ENDBRANCH   7   8
ENDBRANCH   2   7
BRANCH   1  18
ATOM     18  C   UNL d   1      32.698  22.295 -20.806  0.00  0.00     0.086 A 
ATOM     19  C   UNL d   1      32.348  22.956 -21.155  0.00  0.00     0.110 A 
ATOM     20  C   UNL d   1      32.271  23.663 -20.735  0.00  0.00     0.026 A 
ATOM     21  C   UNL d   1      32.545  23.702 -19.968  0.00  0.00     0.002 A 
ATOM     22  C   UNL d   1      32.898  23.046 -19.608  0.00  0.00     0.002 A 
ATOM     23  C   UNL d   1      32.974  22.350 -20.023  0.00  0.00     0.019 A 
BRANCH  19  24
ATOM     24  O   UNL d   1      32.070  22.903 -21.942  0.00  0.00    -0.327 OA
ATOM     25  C   UNL d   1      31.740  23.573 -22.297  0.00  0.00     0.181 C 
ENDBRANCH  19  24
ENDBRANCH   1  18
TORSDOF 6
ENDMDL
MODEL 3
REMARK VINA RESULT:      -1.9      1.012      1.610
REMARK  6 active torsions:
REMARK  status: ('A' for Active; 'I' for Inactive)
REMARK    1  A    between atoms: C_3  and  N_1 
REMARK       I    between atoms: C_2  and  N_10 
REMARK    2  A    between atoms: C_9  and  C_2 
REMARK    3  A    between atoms: C_15  and  N_4 
REMARK    4  A    between atoms: O_14  and  C_8 
REMARK    5  A    between atoms: N_10  and  C_13 
REMARK    6  A    between atoms: C_13  and  C_15 
ROOT
ATOM      1  N   UNL d   1      31.492  17.327 -24.191  0.00  0.00    -0.300 N 
ATOM      2  N   UNL d   1      32.505  18.483 -23.593  0.00  0.00    -0.299 N 
ATOM      3  C   UNL d   1      31.908  17.189 -23.497  0.00  0.00     0.100 A 
ATOM      4  C   UNL d   1      31.582  18.048 -24.592  0.00  0.00     0.100 A 
ATOM      5  C   UNL d   1      32.413  17.766 -23.198  0.00  0.00     0.100 A 
ATOM      6  C   UNL d   1      32.084  18.621 -24.295  0.00  0.00     0.100 A 
ENDROOT
BRANCH   2   7
ATOM      7  C   UNL d   1      33.010  19.059 -23.295  0.00  0.00     0.101 C 
BRANCH   7   8
ATOM      8  C   UNL d   1      32.935  19.320 -22.515  0.00  0.00     0.121 C 
BRANCH   8   9
ATOM      9  N   UNL d   1      32.988  20.113 -22.337  0.00  0.00    -0.205 NA
ATOM     10  C   UNL d   1      32.929  20.364 -21.559  0.00  0.00     0.279 C 
ATOM     11  O   UNL d   1      32.816  19.823 -20.958  0.00  0.00    -0.265 OA
BRANCH  10  12
ATOM     12  C   UNL d   1      32.984  21.177 -21.376  0.00  0.00     0.058 A 
ATOM     13  C   UNL d   1      33.186  21.409 -20.644  0.00  0.00     0.005 A 
ATOM     14  C   UNL d   1      33.241  22.222 -20.462  0.00  0.00     0.000 A 
ATOM     15  C   UNL d   1      33.086  22.784 -21.040  0.00  0.00     0.000 A 
ATOM     16  C   UNL d   1      32.874  22.528 -21.810  0.00  0.00     0.000 A 
ATOM     17  C   UNL d   1      32.823  21.737 -21.978  0.00  0.00     0.005 A 
ENDBRANCH  10  12
ENDBRANCH   8   9
ENDBRANCH   7   8
ENDBRANCH   2   7
BRANCH   1  18
ATOM     18  C   UNL d   1      30.987  16.750 -24.490  0.00  0.00     0.086 A 
ATOM     19  C   UNL d   1      30.173  16.884 -24.528  0.00  0.00     0.110 A 
ATOM     20  C   UNL d   1      29.665  16.305 -24.827  0.00  0.00     0.026 A 
ATOM     21  C   UNL d   1      29.977  15.597 -25.086  0.00  0.00     0.002 A 
ATOM     22  C   UNL d   1      30.790  15.453 -25.053  0.00  0.00     0.002 A 
ATOM     23  C   UNL d   1      31.290  16.023 -24.758  0.00  0.00     0.019 A 
BRANCH  19  24
ATOM     24  O   UNL d   1      29.865  17.613 -24.259  0.00  0.00    -0.327 OA
ATOM     25  C   UNL d   1      29.065  17.780 -24.381  0.00  0.00     0.181 C 
ENDBRANCH  19  24
ENDBRANCH   1  18
TORSDOF 6
ENDMDL
