MODEL 1
REMARK VINA RESULT:      -6.9      0.000      0.000
REMARK  4 active torsions:
REMARK  status: ('A' for Active; 'I' for Inactive)
REMARK    1  A    between atoms: C_2  and  S_1 
REMARK    2  A    between atoms: C_4  and  S_1 
REMARK    3  A    between atoms: C_3  and  C_2 
REMARK    4  A    between atoms: C_8  and  C_3 
ROOT
ATOM      1  S   UNL d   1     -47.540  14.031  22.998  0.00  0.00     0.214 S 
ATOM      2  O   UNL d   1     -47.215  14.735  22.718  0.00  0.00    -0.217 OA
ATOM      3  O   UNL d   1     -47.864  13.344  23.274  0.00  0.00    -0.217 OA
ENDROOT
BRANCH   1   4
ATOM      4  C   UNL d   1     -48.225  14.437  23.169  0.00  0.00     0.141 C 
BRANCH   4   5
ATOM      5  C   UNL d   1     -48.815  14.489  22.610  0.00  0.00     0.207 C 
ATOM      6  O   UNL d   1     -48.639  14.226  21.874  0.00  0.00    -0.286 OA
BRANCH   5   7
ATOM      7  C   UNL d   1     -49.556  14.800  22.799  0.00  0.00     0.040 A 
ATOM      8  C   UNL d   1     -50.232  14.470  22.459  0.00  0.00     0.003 A 
ATOM      9  C   UNL d   1     -50.973  14.779  22.647  0.00  0.00     0.000 A 
ATOM     10  C   UNL d   1     -51.064  15.402  23.159  0.00  0.00     0.000 A 
ATOM     11  C   UNL d   1     -50.391  15.728  23.496  0.00  0.00     0.000 A 
ATOM     12  C   UNL d   1     -49.649  15.418  23.308  0.00  0.00     0.003 A 
ENDBRANCH   5   7
ENDBRANCH   4   5
ENDBRANCH   1   4
BRANCH   1  13
ATOM     13  C   UNL d   1     -46.853  13.643  22.822  0.00  0.00     0.088 A 
ATOM     14  C   UNL d   1     -46.772  12.851  23.021  0.00  0.00     0.011 A 
ATOM     15  C   UNL d   1     -46.081  12.425  22.855  0.00  0.00     0.001 A 
ATOM     16  C   UNL d   1     -45.454  12.842  22.468  0.00  0.00     0.000 A 
ATOM     17  C   UNL d   1     -45.542  13.615  22.278  0.00  0.00     0.001 A 
ATOM     18  C   UNL d   1     -44.734  12.450  22.280  0.00  0.00     0.000 C 
ATOM     19  C   UNL d   1     -46.238  14.026  22.451  0.00  0.00     0.011 A 
ENDBRANCH   1  13
TORSDOF 4
ENDMDL
MODEL 2
REMARK VINA RESULT:      -6.9      1.058      1.529
REMARK  4 active torsions:
REMARK  status: ('A' for Active; 'I' for Inactive)
REMARK    1  A    between atoms: C_2  and  S_1 
REMARK    2  A    between atoms: C_4  and  S_1 
REMARK    3  A    between atoms: C_3  and  C_2 
REMARK    4  A    between atoms: C_8  and  C_3 
ROOT
ATOM      1  S   UNL d   1     -47.864  13.013  23.131  0.00  0.00     0.214 S 
ATOM      2  O   UNL d   1     -47.276  13.519  22.851  0.00  0.00    -0.217 OA
ATOM      3  O   UNL d   1     -48.444  12.522  23.404  0.00  0.00    -0.217 OA
ENDROOT
BRANCH   1   4
ATOM      4  C   UNL d   1     -48.411  13.599  22.987  0.00  0.00     0.141 C 
BRANCH   4   5
ATOM      5  C   UNL d   1     -48.853  13.581  22.304  0.00  0.00     0.207 C 
ATOM      6  O   UNL d   1     -48.546  13.173  21.686  0.00  0.00    -0.286 OA
BRANCH   5   7
ATOM      7  C   UNL d   1     -49.582  13.966  22.256  0.00  0.00     0.040 A 
ATOM      8  C   UNL d   1     -50.200  13.613  21.838  0.00  0.00     0.003 A 
ATOM      9  C   UNL d   1     -50.928  13.996  21.790  0.00  0.00     0.000 A 
ATOM     10  C   UNL d   1     -51.063  14.715  22.142  0.00  0.00     0.000 A 
ATOM     11  C   UNL d   1     -50.447  15.064  22.556  0.00  0.00     0.000 A 
ATOM     12  C   UNL d   1     -49.718  14.680  22.604  0.00  0.00     0.003 A 
ENDBRANCH   5   7
ENDBRANCH   4   5
ENDBRANCH   1   4
BRANCH   1  13
ATOM     13  C   UNL d   1     -47.308  12.443  23.268  0.00  0.00     0.088 A 
ATOM     14  C   UNL d   1     -46.517  12.601  23.113  0.00  0.00     0.011 A 
ATOM     15  C   UNL d   1     -45.924  12.038  23.243  0.00  0.00     0.001 A 
ATOM     16  C   UNL d   1     -46.165  11.284  23.545  0.00  0.00     0.000 A 
ATOM     17  C   UNL d   1     -46.938  11.139  23.693  0.00  0.00     0.001 A 
ATOM     18  C   UNL d   1     -45.596  10.683  23.692  0.00  0.00     0.000 C 
ATOM     19  C   UNL d   1     -47.519  11.712  23.558  0.00  0.00     0.011 A 
ENDBRANCH   1  13
TORSDOF 4
ENDMDL
MODEL 3
REMARK VINA RESULT:      -6.7      0.628      4.242
REMARK  4 active torsions:
REMARK  status: ('A' for Active; 'I' for Inactive)
REMARK    1  A    between atoms: C_2  and  S_1 
REMARK    2  A    between atoms: C_4  and  S_1 
REMARK    3  A    between atoms: C_3  and  C_2 
REMARK    4  A    between atoms: C_8  and  C_3 
ROOT
ATOM      1  S   UNL d   1     -48.385  13.957  22.775  0.00  0.00     0.214 S 
ATOM      2  O   UNL d   1     -48.387  14.306  22.028  0.00  0.00    -0.217 OA
ATOM      3  O   UNL d   1     -48.377  13.611  23.505  0.00  0.00    -0.217 OA
ENDROOT
BRANCH   1   4
ATOM      4  C   UNL d   1     -47.723  13.535  22.555  0.00  0.00     0.141 C 
BRANCH   4   5
ATOM      5  C   UNL d   1     -46.989  13.770  22.816  0.00  0.00     0.207 C 
ATOM      6  O   UNL d   1     -46.948  14.477  23.191  0.00  0.00    -0.286 OA
BRANCH   5   7
ATOM      7  C   UNL d   1     -46.322  13.297  22.697  0.00  0.00     0.040 A 
ATOM      8  C   UNL d   1     -45.728  13.557  22.186  0.00  0.00     0.003 A 
ATOM      9  C   UNL d   1     -45.062  13.086  22.066  0.00  0.00     0.000 A 
ATOM     10  C   UNL d   1     -44.967  12.369  22.434  0.00  0.00     0.000 A 
ATOM     11  C   UNL d   1     -45.559  12.113  22.942  0.00  0.00     0.000 A 
ATOM     12  C   UNL d   1     -46.226  12.585  23.062  0.00  0.00     0.003 A 
ENDBRANCH   5   7
ENDBRANCH   4   5
ENDBRANCH   1   4
BRANCH   1  13
ATOM     13  C   UNL d   1     -49.041  14.383  22.976  0.00  0.00     0.088 A 
ATOM     14  C   UNL d   1     -49.660  14.012  23.368  0.00  0.00     0.011 A 
ATOM     15  C   UNL d   1     -50.347  14.421  23.588  0.00  0.00     0.001 A 
ATOM     16  C   UNL d   1     -50.387  15.244  23.393  0.00  0.00     0.000 A 
ATOM     17  C   UNL d   1     -49.777  15.596  23.011  0.00  0.00     0.001 A 
ATOM     18  C   UNL d   1     -51.064  15.698  23.598  0.00  0.00     0.000 C 
ATOM     19  C   UNL d   1     -49.099  15.174  22.798  0.00  0.00     0.011 A 
ENDBRANCH   1  13
TORSDOF 4
ENDMDL
MODEL 4
REMARK VINA RESULT:      -6.6      1.491      1.709
REMARK  4 active torsions:
REMARK  status: ('A' for Active; 'I' for Inactive)
REMARK    1  A    between atoms: C_2  and  S_1 
REMARK    2  A    between atoms: C_4  and  S_1 
REMARK    3  A    between atoms: C_3  and  C_2 
REMARK    4  A    between atoms: C_8  and  C_3 
ROOT
ATOM      1  S   UNL d   1     -47.332  12.975  23.114  0.00  0.00     0.214 S 
ATOM      2  O   UNL d   1     -47.491  13.630  22.639  0.00  0.00    -0.217 OA
ATOM      3  O   UNL d   1     -47.184  12.333  23.582  0.00  0.00    -0.217 OA
ENDROOT
BRANCH   1   4
ATOM      4  C   UNL d   1     -48.105  13.000  23.373  0.00  0.00     0.141 C 
BRANCH   4   5
ATOM      5  C   UNL d   1     -48.693  12.658  22.927  0.00  0.00     0.207 C 
ATOM      6  O   UNL d   1     -48.471  12.320  22.235  0.00  0.00    -0.286 OA
BRANCH   5   7
ATOM      7  C   UNL d   1     -49.478  12.662  23.181  0.00  0.00     0.040 A 
ATOM      8  C   UNL d   1     -49.856  11.946  23.342  0.00  0.00     0.003 A 
ATOM      9  C   UNL d   1     -50.640  11.949  23.596  0.00  0.00     0.000 A 
ATOM     10  C   UNL d   1     -51.061  12.636  23.694  0.00  0.00     0.000 A 
ATOM     11  C   UNL d   1     -50.684  13.346  23.533  0.00  0.00     0.000 A 
ATOM     12  C   UNL d   1     -49.898  13.343  23.279  0.00  0.00     0.003 A 
ENDBRANCH   5   7
ENDBRANCH   4   5
ENDBRANCH   1   4
BRANCH   1  13
ATOM     13  C   UNL d   1     -46.570  12.964  22.847  0.00  0.00     0.088 A 
ATOM     14  C   UNL d   1     -46.099  12.307  22.990  0.00  0.00     0.011 A 
ATOM     15  C   UNL d   1     -45.314  12.264  22.730  0.00  0.00     0.001 A 
ATOM     16  C   UNL d   1     -45.011  12.931  22.305  0.00  0.00     0.000 A 
ATOM     17  C   UNL d   1     -45.478  13.567  22.170  0.00  0.00     0.001 A 
ATOM     18  C   UNL d   1     -44.219  12.932  22.022  0.00  0.00     0.000 C 
ATOM     19  C   UNL d   1     -46.260  13.594  22.437  0.00  0.00     0.011 A 
ENDBRANCH   1  13
TORSDOF 4
ENDMDL
MODEL 5
REMARK VINA RESULT:      -5.7      7.840      9.759
REMARK  4 active torsions:
REMARK  status: ('A' for Active; 'I' for Inactive)
REMARK    1  A    between atoms: C_2  and  S_1 
REMARK    2  A    between atoms: C_4  and  S_1 
REMARK    3  A    between atoms: C_3  and  C_2 
REMARK    4  A    between atoms: C_8  and  C_3 
ROOT
ATOM      1  S   UNL d   1     -39.248  14.778  17.889  0.00  0.00     0.214 S 
ATOM      2  O   UNL d   1     -39.757  15.260  17.454  0.00  0.00    -0.217 OA
ATOM      3  O   UNL d   1     -38.753  14.309  18.321  0.00  0.00    -0.217 OA
ENDROOT
BRANCH   1   4
ATOM      4  C   UNL d   1     -39.582  15.074  18.571  0.00  0.00     0.141 C 
BRANCH   4   5
ATOM      5  C   UNL d   1     -40.282  14.763  18.846  0.00  0.00     0.207 C 
ATOM      6  O   UNL d   1     -40.651  14.231  18.374  0.00  0.00    -0.286 OA
BRANCH   5   7
ATOM      7  C   UNL d   1     -40.590  14.989  19.578  0.00  0.00     0.040 A 
ATOM      8  C   UNL d   1     -40.522  14.477  20.222  0.00  0.00     0.003 A 
ATOM      9  C   UNL d   1     -40.830  14.701  20.954  0.00  0.00     0.000 A 
ATOM     10  C   UNL d   1     -41.201  15.413  21.066  0.00  0.00     0.000 A 
ATOM     11  C   UNL d   1     -41.268  15.920  20.425  0.00  0.00     0.000 A 
ATOM     12  C   UNL d   1     -40.960  15.696  19.693  0.00  0.00     0.003 A 
ENDBRANCH   5   7
ENDBRANCH   4   5
ENDBRANCH   1   4
BRANCH   1  13
ATOM     13  C   UNL d   1     -38.928  14.496  17.203  0.00  0.00     0.088 A 
ATOM     14  C   UNL d   1     -38.767  15.014  16.587  0.00  0.00     0.011 A 
ATOM     15  C   UNL d   1     -38.439  14.755  15.871  0.00  0.00     0.001 A 
ATOM     16  C   UNL d   1     -38.274  13.928  15.798  0.00  0.00     0.000 A 
ATOM     17  C   UNL d   1     -38.434  13.431  16.404  0.00  0.00     0.001 A 
ATOM     18  C   UNL d   1     -37.940  13.622  15.089  0.00  0.00     0.000 C 
ATOM     19  C   UNL d   1     -38.762  13.705  17.112  0.00  0.00     0.011 A 
ENDBRANCH   1  13
TORSDOF 4
ENDMDL
MODEL 6
REMARK VINA RESULT:      -5.7      8.484      9.089
REMARK  4 active torsions:
REMARK  status: ('A' for Active; 'I' for Inactive)
REMARK    1  A    between atoms: C_2  and  S_1 
REMARK    2  A    between atoms: C_4  and  S_1 
REMARK    3  A    between atoms: C_3  and  C_2 
REMARK    4  A    between atoms: C_8  and  C_3 
ROOT
ATOM      1  S   UNL d   1     -39.754  14.688  20.018  0.00  0.00     0.214 S 
ATOM      2  O   UNL d   1     -39.027  15.018  19.813  0.00  0.00    -0.217 OA
ATOM      3  O   UNL d   1     -40.469  14.367  20.214  0.00  0.00    -0.217 OA
ENDROOT
BRANCH   1   4
ATOM      4  C   UNL d   1     -40.085  15.064  19.376  0.00  0.00     0.141 C 
BRANCH   4   5
ATOM      5  C   UNL d   1     -40.339  14.629  18.738  0.00  0.00     0.207 C 
ATOM      6  O   UNL d   1     -40.388  13.835  18.839  0.00  0.00    -0.286 OA
BRANCH   5   7
ATOM      7  C   UNL d   1     -40.536  14.993  18.024  0.00  0.00     0.040 A 
ATOM      8  C   UNL d   1     -40.137  14.775  17.335  0.00  0.00     0.003 A 
ATOM      9  C   UNL d   1     -40.333  15.138  16.620  0.00  0.00     0.000 A 
ATOM     10  C   UNL d   1     -40.910  15.707  16.568  0.00  0.00     0.000 A 
ATOM     11  C   UNL d   1     -41.305  15.921  17.255  0.00  0.00     0.000 A 
ATOM     12  C   UNL d   1     -41.108  15.558  17.969  0.00  0.00     0.003 A 
ENDBRANCH   5   7
ENDBRANCH   4   5
ENDBRANCH   1   4
BRANCH   1  13
ATOM     13  C   UNL d   1     -39.409  14.321  20.650  0.00  0.00     0.088 A 
ATOM     14  C   UNL d   1     -39.806  14.292  21.368  0.00  0.00     0.011 A 
ATOM     15  C   UNL d   1     -39.480  13.923  22.035  0.00  0.00     0.001 A 
ATOM     16  C   UNL d   1     -38.714  13.574  21.948  0.00  0.00     0.000 A 
ATOM     17  C   UNL d   1     -38.334  13.608  21.244  0.00  0.00     0.001 A 
ATOM     18  C   UNL d   1     -38.345  13.190  22.599  0.00  0.00     0.000 C 
ATOM     19  C   UNL d   1     -38.674  13.979  20.588  0.00  0.00     0.011 A 
ENDBRANCH   1  13
TORSDOF 4
ENDMDL
