MODEL 1
REMARK VINA RESULT:      -9.6      0.000      0.000
REMARK  6 active torsions:
REMARK  status: ('A' for Active; 'I' for Inactive)
REMARK    1  A    between atoms: C_10  and  N_4 
REMARK    2  A    between atoms: C_12  and  C_9 
REMARK    3  A    between atoms: C_15  and  C_10 
REMARK    4  A    between atoms: C_17  and  N_11 
REMARK    5  A    between atoms: N_13  and  C_12 
REMARK    6  A    between atoms: O_30  and  C_27 
ROOT
ATOM      1  C   UNL d   1      53.211  31.447  53.375  0.00  0.00     0.157 A 
ATOM      2  C   UNL d   1      52.399  31.321  53.323  0.00  0.00     0.174 A 
ATOM      3  N   UNL d   1      52.105  30.546  53.327  0.00  0.00    -0.240 N 
ATOM      4  N   UNL d   1      53.347  32.260  53.359  0.00  0.00    -0.283 N 
ATOM      5  N   UNL d   1      53.434  30.042  53.434  0.00  0.00    -0.223 N 
ATOM      6  C   UNL d   1      52.619  29.911  53.383  0.00  0.00     0.343 A 
ATOM      7  C   UNL d   1      53.742  30.811  53.431  0.00  0.00     0.287 A 
ATOM      8  N   UNL d   1      52.030  32.055  53.275  0.00  0.00    -0.207 NA
ATOM      9  C   UNL d   1      52.617  32.636  53.297  0.00  0.00     0.167 A 
ATOM     10  O   UNL d   1      52.323  29.136  53.387  0.00  0.00    -0.245 OA
ATOM     11  O   UNL d   1      54.548  30.941  53.482  0.00  0.00    -0.265 OA
ATOM     12  C   UNL d   1      51.290  30.415  53.276  0.00  0.00     0.105 C 
ATOM     13  C   UNL d   1      53.953  29.399  53.490  0.00  0.00     0.107 C 
ENDROOT
BRANCH   9  14
ATOM     14  C   UNL d   1      52.491  33.453  53.262  0.00  0.00     0.118 C 
BRANCH  14  15
ATOM     15  N   UNL d   1      51.779  33.746  52.988  0.00  0.00    -0.297 N 
ATOM     16  C   UNL d   1      51.140  33.848  53.501  0.00  0.00     0.100 A 
ATOM     17  C   UNL d   1      50.417  34.144  53.231  0.00  0.00     0.100 A 
ATOM     18  N   UNL d   1      50.330  34.344  52.429  0.00  0.00    -0.301 N 
ATOM     19  C   UNL d   1      50.969  34.244  51.908  0.00  0.00     0.100 A 
ATOM     20  C   UNL d   1      51.689  33.946  52.190  0.00  0.00     0.100 A 
BRANCH  18  21
ATOM     21  C   UNL d   1      49.610  34.640  52.156  0.00  0.00     0.064 A 
ATOM     22  C   UNL d   1      49.173  35.141  52.631  0.00  0.00     0.020 A 
ATOM     23  C   UNL d   1      48.447  35.442  52.359  0.00  0.00     0.026 A 
ATOM     24  C   UNL d   1      48.170  35.231  51.608  0.00  0.00     0.094 A 
ATOM     25  C   UNL d   1      48.622  34.722  51.134  0.00  0.00     0.026 A 
ATOM     26  C   UNL d   1      49.342  34.426  51.408  0.00  0.00     0.020 A 
BRANCH  24  27
ATOM     27  O   UNL d   1      47.455  35.520  51.326  0.00  0.00    -0.328 OA
ATOM     28  C   UNL d   1      46.938  35.894  51.850  0.00  0.00     0.181 C 
ENDBRANCH  24  27
ENDBRANCH  18  21
ENDBRANCH  14  15
ENDBRANCH   9  14
BRANCH   4  29
ATOM     29  C   UNL d   1      54.086  32.632  53.397  0.00  0.00     0.082 C 
BRANCH  29  30
ATOM     30  C   UNL d   1      54.337  32.952  54.103  0.00  0.00     0.018 A 
ATOM     31  C   UNL d   1      55.001  33.428  54.107  0.00  0.00     0.001 A 
ATOM     32  C   UNL d   1      55.418  33.588  53.416  0.00  0.00     0.000 C 
ATOM     33  C   UNL d   1      55.262  33.758  54.827  0.00  0.00     0.000 A 
ATOM     34  C   UNL d   1      54.854  33.605  55.527  0.00  0.00     0.000 A 
ATOM     35  C   UNL d   1      54.188  33.127  55.517  0.00  0.00     0.000 A 
ATOM     36  C   UNL d   1      53.927  32.800  54.807  0.00  0.00     0.002 A 
ENDBRANCH  29  30
ENDBRANCH   4  29
TORSDOF 6
ENDMDL
MODEL 2
REMARK VINA RESULT:      -8.1      1.247      2.786
REMARK  6 active torsions:
REMARK  status: ('A' for Active; 'I' for Inactive)
REMARK    1  A    between atoms: C_10  and  N_4 
REMARK    2  A    between atoms: C_12  and  C_9 
REMARK    3  A    between atoms: C_15  and  C_10 
REMARK    4  A    between atoms: C_17  and  N_11 
REMARK    5  A    between atoms: N_13  and  C_12 
REMARK    6  A    between atoms: O_30  and  C_27 
ROOT
ATOM      1  C   UNL d   1      53.729  33.169  53.976  0.00  0.00     0.157 A 
ATOM      2  C   UNL d   1      53.277  33.791  54.270  0.00  0.00     0.174 A 
ATOM      3  N   UNL d   1      53.628  34.354  54.765  0.00  0.00    -0.240 N 
ATOM      4  N   UNL d   1      53.245  32.697  53.504  0.00  0.00    -0.283 N 
ATOM      5  N   UNL d   1      54.872  33.666  54.665  0.00  0.00    -0.223 N 
ATOM      6  C   UNL d   1      54.421  34.292  54.961  0.00  0.00     0.343 A 
ATOM      7  C   UNL d   1      54.534  33.095  54.169  0.00  0.00     0.287 A 
ATOM      8  N   UNL d   1      52.510  33.706  53.980  0.00  0.00    -0.207 NA
ATOM      9  C   UNL d   1      52.491  33.029  53.507  0.00  0.00     0.167 A 
ATOM     10  O   UNL d   1      54.771  34.857  55.457  0.00  0.00    -0.245 OA
ATOM     11  O   UNL d   1      54.981  32.476  53.875  0.00  0.00    -0.265 OA
ATOM     12  C   UNL d   1      53.176  34.981  55.062  0.00  0.00     0.105 C 
ATOM     13  C   UNL d   1      55.674  33.604  54.864  0.00  0.00     0.107 C 
ENDROOT
BRANCH   9  14
ATOM     14  C   UNL d   1      51.830  32.737  53.106  0.00  0.00     0.118 C 
BRANCH  14  15
ATOM     15  N   UNL d   1      51.207  33.236  52.925  0.00  0.00    -0.297 N 
ATOM     16  C   UNL d   1      50.536  33.263  53.406  0.00  0.00     0.100 A 
ATOM     17  C   UNL d   1      49.903  33.765  53.230  0.00  0.00     0.100 A 
ATOM     18  N   UNL d   1      49.941  34.251  52.557  0.00  0.00    -0.301 N 
ATOM     19  C   UNL d   1      50.612  34.229  52.070  0.00  0.00     0.100 A 
ATOM     20  C   UNL d   1      51.242  33.722  52.256  0.00  0.00     0.100 A 
BRANCH  18  21
ATOM     21  C   UNL d   1      49.312  34.753  52.378  0.00  0.00     0.064 A 
ATOM     22  C   UNL d   1      48.949  34.702  51.647  0.00  0.00     0.020 A 
ATOM     23  C   UNL d   1      48.314  35.207  51.463  0.00  0.00     0.026 A 
ATOM     24  C   UNL d   1      48.052  35.757  52.021  0.00  0.00     0.094 A 
ATOM     25  C   UNL d   1      48.427  35.800  52.760  0.00  0.00     0.026 A 
ATOM     26  C   UNL d   1      49.056  35.299  52.939  0.00  0.00     0.020 A 
BRANCH  24  27
ATOM     27  O   UNL d   1      47.426  36.262  51.853  0.00  0.00    -0.328 OA
ATOM     28  C   UNL d   1      46.655  35.966  51.873  0.00  0.00     0.181 C 
ENDBRANCH  24  27
ENDBRANCH  18  21
ENDBRANCH  14  15
ENDBRANCH   9  14
BRANCH   4  29
ATOM     29  C   UNL d   1      53.475  32.012  53.100  0.00  0.00     0.082 C 
BRANCH  29  30
ATOM     30  C   UNL d   1      53.301  31.281  53.418  0.00  0.00     0.018 A 
ATOM     31  C   UNL d   1      53.215  30.643  52.915  0.00  0.00     0.001 A 
ATOM     32  C   UNL d   1      53.299  30.725  52.101  0.00  0.00     0.000 C 
ATOM     33  C   UNL d   1      53.037  29.894  53.235  0.00  0.00     0.000 A 
ATOM     34  C   UNL d   1      52.950  29.799  54.049  0.00  0.00     0.000 A 
ATOM     35  C   UNL d   1      53.038  30.444  54.549  0.00  0.00     0.000 A 
ATOM     36  C   UNL d   1      53.213  31.185  54.236  0.00  0.00     0.002 A 
ENDBRANCH  29  30
ENDBRANCH   4  29
TORSDOF 6
ENDMDL
