MODEL 1
REMARK VINA RESULT:      -3.5      0.000      0.000
REMARK  3 active torsions:
REMARK  status: ('A' for Active; 'I' for Inactive)
REMARK       I    between atoms: N_2  and  C_1 
REMARK    1  A    between atoms: C_8  and  C_1 
REMARK    2  A    between atoms: C_6  and  N_2 
REMARK    3  A    between atoms: N_4  and  C_8 
ROOT
ATOM      1  N   UNL d   1      28.798  18.051 -25.055  0.00  0.00    -0.191 NA
ATOM      2  C   UNL d   1      28.870  17.417 -24.577  0.00  0.00     0.102 C 
ATOM      3  C   UNL d   1      29.694  16.441 -23.942  0.00  0.00     0.094 A 
ATOM      4  C   UNL d   1      28.940  16.767 -24.086  0.00  0.00     0.086 A 
ATOM      5  C   UNL d   1      28.274  16.424 -23.727  0.00  0.00     0.012 A 
ATOM      6  C   UNL d   1      29.768  15.792 -23.452  0.00  0.00     0.020 A 
ATOM      7  C   UNL d   1      28.357  15.765 -23.231  0.00  0.00     0.001 A 
ATOM      8  C   UNL d   1      29.101  15.453 -23.096  0.00  0.00     0.002 A 
ENDROOT
BRANCH   3   9
ATOM      9  N   UNL d   1      30.356  16.778 -24.295  0.00  0.00    -0.206 NA
ATOM     10  C   UNL d   1      31.080  16.648 -23.947  0.00  0.00     0.297 C 
ATOM     11  O   UNL d   1      31.138  16.190 -23.258  0.00  0.00    -0.264 OA
BRANCH  10  12
ATOM     12  C   UNL d   1      31.781  16.968 -24.268  0.00  0.00     0.144 C 
BRANCH  12  13
ATOM     13  N   UNL d   1      32.141  17.623 -23.949  0.00  0.00    -0.299 N 
ATOM     14  C   UNL d   1      32.441  17.608 -23.194  0.00  0.00     0.080 A 
ATOM     15  C   UNL d   1      32.805  18.275 -22.875  0.00  0.00     0.019 A 
ATOM     16  C   UNL d   1      32.863  18.954 -23.320  0.00  0.00     0.003 A 
ATOM     17  C   UNL d   1      32.559  18.963 -24.079  0.00  0.00     0.019 A 
ATOM     18  C   UNL d   1      33.241  19.670 -23.010  0.00  0.00     0.000 C 
ATOM     19  C   UNL d   1      32.195  18.292 -24.396  0.00  0.00     0.080 A 
ENDBRANCH  12  13
ENDBRANCH  10  12
ENDBRANCH   3   9
TORSDOF 3
ENDMDL
MODEL 2
REMARK VINA RESULT:      -2.6      2.150      4.820
REMARK  3 active torsions:
REMARK  status: ('A' for Active; 'I' for Inactive)
REMARK       I    between atoms: N_2  and  C_1 
REMARK    1  A    between atoms: C_8  and  C_1 
REMARK    2  A    between atoms: C_6  and  N_2 
REMARK    3  A    between atoms: N_4  and  C_8 
ROOT
ATOM      1  N   UNL d   1      33.241  22.209 -23.617  0.00  0.00    -0.191 NA
ATOM      2  C   UNL d   1      33.213  21.806 -22.930  0.00  0.00     0.102 C 
ATOM      3  C   UNL d   1      33.154  20.562 -22.235  0.00  0.00     0.094 A 
ATOM      4  C   UNL d   1      33.184  21.395 -22.223  0.00  0.00     0.086 A 
ATOM      5  C   UNL d   1      33.184  21.792 -21.494  0.00  0.00     0.012 A 
ATOM      6  C   UNL d   1      33.125  20.147 -21.531  0.00  0.00     0.020 A 
ATOM      7  C   UNL d   1      33.155  21.365 -20.784  0.00  0.00     0.001 A 
ATOM      8  C   UNL d   1      33.126  20.547 -20.805  0.00  0.00     0.002 A 
ENDROOT
BRANCH   3   9
ATOM      9  N   UNL d   1      33.154  20.165 -22.955  0.00  0.00    -0.206 NA
ATOM     10  C   UNL d   1      33.197  19.353 -22.941  0.00  0.00     0.297 C 
ATOM     11  O   UNL d   1      33.241  18.946 -22.219  0.00  0.00    -0.264 OA
BRANCH  10  12
ATOM     12  C   UNL d   1      33.200  18.905 -23.646  0.00  0.00     0.144 C 
BRANCH  12  13
ATOM     13  N   UNL d   1      32.735  18.245 -23.739  0.00  0.00    -0.299 N 
ATOM     14  C   UNL d   1      31.927  18.309 -23.792  0.00  0.00     0.080 A 
ATOM     15  C   UNL d   1      31.459  17.637 -23.886  0.00  0.00     0.019 A 
ATOM     16  C   UNL d   1      31.811  16.903 -23.926  0.00  0.00     0.003 A 
ATOM     17  C   UNL d   1      32.625  16.846 -23.872  0.00  0.00     0.019 A 
ATOM     18  C   UNL d   1      31.345  16.180 -24.025  0.00  0.00     0.000 C 
ATOM     19  C   UNL d   1      33.091  17.522 -23.778  0.00  0.00     0.080 A 
ENDBRANCH  12  13
ENDBRANCH  10  12
ENDBRANCH   3   9
TORSDOF 3
ENDMDL
MODEL 3
REMARK VINA RESULT:      -2.3      1.068      3.897
REMARK  3 active torsions:
REMARK  status: ('A' for Active; 'I' for Inactive)
REMARK       I    between atoms: N_2  and  C_1 
REMARK    1  A    between atoms: C_8  and  C_1 
REMARK    2  A    between atoms: C_6  and  N_2 
REMARK    3  A    between atoms: N_4  and  C_8 
ROOT
ATOM      1  N   UNL d   1      31.138  18.654 -25.051  0.00  0.00    -0.191 NA
ATOM      2  C   UNL d   1      31.647  18.342 -24.522  0.00  0.00     0.102 C 
ATOM      3  C   UNL d   1      32.154  17.206 -23.825  0.00  0.00     0.094 A 
ATOM      4  C   UNL d   1      32.170  18.025 -23.979  0.00  0.00     0.086 A 
ATOM      5  C   UNL d   1      32.716  18.504 -23.577  0.00  0.00     0.012 A 
ATOM      6  C   UNL d   1      32.675  16.885 -23.284  0.00  0.00     0.020 A 
ATOM      7  C   UNL d   1      33.241  18.172 -23.028  0.00  0.00     0.001 A 
ATOM      8  C   UNL d   1      33.219  17.367 -22.884  0.00  0.00     0.002 A 
ENDROOT
BRANCH   3   9
ATOM      9  N   UNL d   1      31.614  16.728 -24.222  0.00  0.00    -0.206 NA
ATOM     10  C   UNL d   1      31.365  16.049 -23.851  0.00  0.00     0.297 C 
ATOM     11  O   UNL d   1      31.651  15.852 -23.097  0.00  0.00    -0.264 OA
BRANCH  10  12
ATOM     12  C   UNL d   1      30.819  15.531 -24.212  0.00  0.00     0.144 C 
BRANCH  12  13
ATOM     13  N   UNL d   1      30.036  15.512 -23.995  0.00  0.00    -0.299 N 
ATOM     14  C   UNL d   1      29.821  15.472 -23.212  0.00  0.00     0.080 A 
ATOM     15  C   UNL d   1      29.025  15.453 -22.998  0.00  0.00     0.019 A 
ATOM     16  C   UNL d   1      28.451  15.474 -23.576  0.00  0.00     0.003 A 
ATOM     17  C   UNL d   1      28.674  15.514 -24.361  0.00  0.00     0.019 A 
ATOM     18  C   UNL d   1      27.608  15.455 -23.378  0.00  0.00     0.000 C 
ATOM     19  C   UNL d   1      29.473  15.533 -24.573  0.00  0.00     0.080 A 
ENDBRANCH  12  13
ENDBRANCH  10  12
ENDBRANCH   3   9
TORSDOF 3
ENDMDL
MODEL 4
REMARK VINA RESULT:      -2.2      1.389      4.310
REMARK  3 active torsions:
REMARK  status: ('A' for Active; 'I' for Inactive)
REMARK       I    between atoms: N_2  and  C_1 
REMARK    1  A    between atoms: C_8  and  C_1 
REMARK    2  A    between atoms: C_6  and  N_2 
REMARK    3  A    between atoms: N_4  and  C_8 
ROOT
ATOM      1  N   UNL d   1      33.031  19.205 -21.878  0.00  0.00    -0.191 NA
ATOM      2  C   UNL d   1      33.062  19.351 -22.661  0.00  0.00     0.102 C 
ATOM      3  C   UNL d   1      33.014  18.876 -24.005  0.00  0.00     0.094 A 
ATOM      4  C   UNL d   1      33.096  19.505 -23.464  0.00  0.00     0.086 A 
ATOM      5  C   UNL d   1      33.208  20.276 -23.750  0.00  0.00     0.012 A 
ATOM      6  C   UNL d   1      33.047  19.025 -24.807  0.00  0.00     0.020 A 
ATOM      7  C   UNL d   1      33.240  20.420 -24.566  0.00  0.00     0.001 A 
ATOM      8  C   UNL d   1      33.160  19.796 -25.090  0.00  0.00     0.002 A 
ENDROOT
BRANCH   3   9
ATOM      9  N   UNL d   1      32.902  18.110 -23.724  0.00  0.00    -0.206 NA
ATOM     10  C   UNL d   1      32.564  17.568 -24.228  0.00  0.00     0.297 C 
ATOM     11  O   UNL d   1      32.342  17.788 -24.996  0.00  0.00    -0.264 OA
BRANCH  10  12
ATOM     12  C   UNL d   1      32.430  16.779 -23.990  0.00  0.00     0.144 C 
BRANCH  12  13
ATOM     13  N   UNL d   1      31.681  16.480 -23.893  0.00  0.00    -0.299 N 
ATOM     14  C   UNL d   1      31.110  16.594 -24.460  0.00  0.00     0.080 A 
ATOM     15  C   UNL d   1      30.351  16.288 -24.358  0.00  0.00     0.019 A 
ATOM     16  C   UNL d   1      30.173  15.869 -23.682  0.00  0.00     0.003 A 
ATOM     17  C   UNL d   1      30.752  15.757 -23.116  0.00  0.00     0.019 A 
ATOM     18  C   UNL d   1      29.385  15.536 -23.548  0.00  0.00     0.000 C 
ATOM     19  C   UNL d   1      31.512  16.065 -23.222  0.00  0.00     0.080 A 
ENDBRANCH  12  13
ENDBRANCH  10  12
ENDBRANCH   3   9
TORSDOF 3
ENDMDL
MODEL 5
REMARK VINA RESULT:      -1.8      1.886      2.960
REMARK  3 active torsions:
REMARK  status: ('A' for Active; 'I' for Inactive)
REMARK       I    between atoms: N_2  and  C_1 
REMARK    1  A    between atoms: C_8  and  C_1 
REMARK    2  A    between atoms: C_6  and  N_2 
REMARK    3  A    between atoms: N_4  and  C_8 
ROOT
ATOM      1  N   UNL d   1      30.720  18.095 -24.780  0.00  0.00    -0.191 NA
ATOM      2  C   UNL d   1      31.233  17.611 -24.409  0.00  0.00     0.102 C 
ATOM      3  C   UNL d   1      32.481  17.413 -23.748  0.00  0.00     0.094 A 
ATOM      4  C   UNL d   1      31.757  17.111 -24.028  0.00  0.00     0.086 A 
ATOM      5  C   UNL d   1      31.581  16.307 -23.916  0.00  0.00     0.012 A 
ATOM      6  C   UNL d   1      33.007  16.918 -23.367  0.00  0.00     0.020 A 
ATOM      7  C   UNL d   1      32.119  15.810 -23.529  0.00  0.00     0.001 A 
ATOM      8  C   UNL d   1      32.828  16.116 -23.257  0.00  0.00     0.002 A 
ENDROOT
BRANCH   3   9
ATOM      9  N   UNL d   1      32.659  18.209 -23.857  0.00  0.00    -0.206 NA
ATOM     10  C   UNL d   1      33.039  18.599 -23.253  0.00  0.00     0.297 C 
ATOM     11  O   UNL d   1      33.237  18.201 -22.553  0.00  0.00    -0.264 OA
BRANCH  10  12
ATOM     12  C   UNL d   1      33.241  19.407 -23.316  0.00  0.00     0.144 C 
BRANCH  12  13
ATOM     13  N   UNL d   1      33.227  19.906 -22.675  0.00  0.00    -0.299 N 
ATOM     14  C   UNL d   1      33.199  19.612 -21.918  0.00  0.00     0.080 A 
ATOM     15  C   UNL d   1      33.184  20.122 -21.271  0.00  0.00     0.019 A 
ATOM     16  C   UNL d   1      33.199  20.928 -21.392  0.00  0.00     0.003 A 
ATOM     17  C   UNL d   1      33.227  21.217 -22.156  0.00  0.00     0.019 A 
ATOM     18  C   UNL d   1      33.184  21.487 -20.731  0.00  0.00     0.000 C 
ATOM     19  C   UNL d   1      33.241  20.702 -22.803  0.00  0.00     0.080 A 
ENDBRANCH  12  13
ENDBRANCH  10  12
ENDBRANCH   3   9
TORSDOF 3
ENDMDL
MODEL 6
REMARK VINA RESULT:      -1.1      3.782      6.080
REMARK  3 active torsions:
REMARK  status: ('A' for Active; 'I' for Inactive)
REMARK       I    between atoms: N_2  and  C_1 
REMARK    1  A    between atoms: C_8  and  C_1 
REMARK    2  A    between atoms: C_6  and  N_2 
REMARK    3  A    between atoms: N_4  and  C_8 
ROOT
ATOM      1  N   UNL d   1      31.375  23.700 -21.642  0.00  0.00    -0.191 NA
ATOM      2  C   UNL d   1      31.788  23.387 -21.036  0.00  0.00     0.102 C 
ATOM      3  C   UNL d   1      32.804  22.504 -20.566  0.00  0.00     0.094 A 
ATOM      4  C   UNL d   1      32.210  23.068 -20.412  0.00  0.00     0.086 A 
ATOM      5  C   UNL d   1      32.058  23.296 -19.629  0.00  0.00     0.012 A 
ATOM      6  C   UNL d   1      33.229  22.183 -19.946  0.00  0.00     0.020 A 
ATOM      7  C   UNL d   1      32.492  22.966 -19.004  0.00  0.00     0.001 A 
ATOM      8  C   UNL d   1      33.074  22.412 -19.165  0.00  0.00     0.002 A 
ENDROOT
BRANCH   3   9
ATOM      9  N   UNL d   1      32.958  22.277 -21.342  0.00  0.00    -0.206 NA
ATOM     10  C   UNL d   1      33.079  21.486 -21.488  0.00  0.00     0.297 C 
ATOM     11  O   UNL d   1      33.046  20.934 -20.870  0.00  0.00    -0.264 OA
BRANCH  10  12
ATOM     12  C   UNL d   1      33.238  21.205 -22.258  0.00  0.00     0.144 C 
BRANCH  12  13
ATOM     13  N   UNL d   1      33.094  20.436 -22.475  0.00  0.00    -0.299 N 
ATOM     14  C   UNL d   1      33.177  19.829 -21.940  0.00  0.00     0.080 A 
ATOM     15  C   UNL d   1      33.029  19.050 -22.165  0.00  0.00     0.019 A 
ATOM     16  C   UNL d   1      32.799  18.888 -22.929  0.00  0.00     0.003 A 
ATOM     17  C   UNL d   1      32.717  19.502 -23.462  0.00  0.00     0.019 A 
ATOM     18  C   UNL d   1      32.637  18.079 -23.193  0.00  0.00     0.000 C 
ATOM     19  C   UNL d   1      32.866  20.283 -23.234  0.00  0.00     0.080 A 
ENDBRANCH  12  13
ENDBRANCH  10  12
ENDBRANCH   3   9
TORSDOF 3
ENDMDL
