MODEL 1
REMARK VINA RESULT:      -2.2      0.000      0.000
REMARK  4 active torsions:
REMARK  status: ('A' for Active; 'I' for Inactive)
REMARK    1  A    between atoms: C_2  and  C_1 
REMARK    2  A    between atoms: N_12  and  C_6 
REMARK    3  A    between atoms: C_16  and  N_12 
REMARK    4  A    between atoms: O_25  and  C_17 
ROOT
ATOM      1  C   UNL d   1     -41.661-122.508 -52.155  0.00  0.00     0.082 A 
ATOM      2  C   UNL d   1     -41.392-121.727 -52.133  0.00  0.00     0.302 A 
ATOM      3  C   UNL d   1     -41.903-122.848 -52.881  0.00  0.00     0.009 A 
ATOM      4  O   UNL d   1     -41.359-121.273 -52.826  0.00  0.00    -0.273 OA
ATOM      5  C   UNL d   1     -41.868-122.392 -53.570  0.00  0.00     0.025 A 
ATOM      6  C   UNL d   1     -41.596-121.603 -53.547  0.00  0.00     0.103 A 
ATOM      7  O   UNL d   1     -41.153-121.395 -51.412  0.00  0.00    -0.259 OA
ATOM      8  C   UNL d   1     -42.106-122.725 -54.286  0.00  0.00     0.026 A 
ATOM      9  C   UNL d   1     -41.567-121.161 -54.241  0.00  0.00     0.027 A 
ATOM     10  C   UNL d   1     -42.072-122.272 -54.976  0.00  0.00     0.094 A 
ATOM     11  C   UNL d   1     -41.804-121.494 -54.953  0.00  0.00     0.026 A 
ENDROOT
BRANCH   1  12
ATOM     12  C   UNL d   1     -41.692-122.953 -51.465  0.00  0.00     0.095 A 
ATOM     13  N   UNL d   1     -42.286-122.935 -50.905  0.00  0.00    -0.221 NA
ATOM     14  C   UNL d   1     -42.094-123.466 -50.309  0.00  0.00     0.194 A 
ATOM     15  S   UNL d   1     -41.376-123.814 -50.502  0.00  0.00    -0.046 SA
ATOM     16  C   UNL d   1     -41.123-123.496 -51.224  0.00  0.00     0.058 A 
BRANCH  14  17
ATOM     17  N   UNL d   1     -42.544-123.619 -49.637  0.00  0.00    -0.221 NA
BRANCH  17  18
ATOM     18  C   UNL d   1     -42.238-123.429 -48.893  0.00  0.00     0.084 A 
ATOM     19  C   UNL d   1     -41.440-123.581 -48.733  0.00  0.00     0.022 A 
ATOM     20  C   UNL d   1     -41.128-123.396 -48.000  0.00  0.00     0.044 A 
ATOM     21  C   UNL d   1     -41.618-123.058 -47.424  0.00  0.00     0.196 A 
ATOM     22  C   UNL d   1     -42.415-122.909 -47.589  0.00  0.00     0.044 A 
ATOM     23  O   UNL d   1     -41.304-122.871 -46.683  0.00  0.00    -0.287 OA
ATOM     24  C   UNL d   1     -42.718-123.097 -48.327  0.00  0.00     0.022 A 
ENDBRANCH  17  18
ENDBRANCH  14  17
ENDBRANCH   1  12
BRANCH  10  25
ATOM     25  O   UNL d   1     -42.309-122.605 -55.688  0.00  0.00    -0.328 OA
ATOM     26  C   UNL d   1     -42.455-122.123 -56.339  0.00  0.00     0.181 C 
ENDBRANCH  10  25
TORSDOF 4
ENDMDL
MODEL 2
REMARK VINA RESULT:      -0.9      1.432      5.542
REMARK  4 active torsions:
REMARK  status: ('A' for Active; 'I' for Inactive)
REMARK    1  A    between atoms: C_2  and  C_1 
REMARK    2  A    between atoms: N_12  and  C_6 
REMARK    3  A    between atoms: C_16  and  N_12 
REMARK    4  A    between atoms: O_25  and  C_17 
ROOT
ATOM      1  C   UNL d   1     -41.486-122.738 -51.851  0.00  0.00     0.082 A 
ATOM      2  C   UNL d   1     -41.259-121.950 -51.743  0.00  0.00     0.302 A 
ATOM      3  C   UNL d   1     -41.625-123.229 -51.188  0.00  0.00     0.009 A 
ATOM      4  O   UNL d   1     -41.166-121.640 -50.979  0.00  0.00    -0.273 OA
ATOM      5  C   UNL d   1     -41.531-122.915 -50.429  0.00  0.00     0.025 A 
ATOM      6  C   UNL d   1     -41.301-122.120 -50.320  0.00  0.00     0.103 A 
ATOM      7  O   UNL d   1     -41.123-121.468 -52.402  0.00  0.00    -0.259 OA
ATOM      8  C   UNL d   1     -41.667-123.398 -49.773  0.00  0.00     0.026 A 
ATOM      9  C   UNL d   1     -41.211-121.822 -49.558  0.00  0.00     0.027 A 
ATOM     10  C   UNL d   1     -41.574-123.088 -49.014  0.00  0.00     0.094 A 
ATOM     11  C   UNL d   1     -41.347-122.304 -48.906  0.00  0.00     0.026 A 
ENDROOT
BRANCH   1  12
ATOM     12  C   UNL d   1     -41.577-123.040 -52.609  0.00  0.00     0.095 A 
ATOM     13  N   UNL d   1     -42.128-122.799 -53.162  0.00  0.00    -0.221 NA
ATOM     14  C   UNL d   1     -42.023-123.248 -53.843  0.00  0.00     0.194 A 
ATOM     15  S   UNL d   1     -41.403-123.769 -53.708  0.00  0.00    -0.046 SA
ATOM     16  C   UNL d   1     -41.123-123.642 -52.938  0.00  0.00     0.058 A 
BRANCH  14  17
ATOM     17  N   UNL d   1     -42.463-123.183 -54.534  0.00  0.00    -0.221 NA
BRANCH  17  18
ATOM     18  C   UNL d   1     -42.263-122.602 -55.088  0.00  0.00     0.084 A 
ATOM     19  C   UNL d   1     -42.785-121.972 -55.220  0.00  0.00     0.022 A 
ATOM     20  C   UNL d   1     -42.596-121.393 -55.766  0.00  0.00     0.044 A 
ATOM     21  C   UNL d   1     -41.880-121.444 -56.180  0.00  0.00     0.196 A 
ATOM     22  C   UNL d   1     -41.363-122.075 -56.044  0.00  0.00     0.044 A 
ATOM     23  O   UNL d   1     -41.688-120.859 -56.732  0.00  0.00    -0.287 OA
ATOM     24  C   UNL d   1     -41.562-122.651 -55.496  0.00  0.00     0.022 A 
ENDBRANCH  17  18
ENDBRANCH  14  17
ENDBRANCH   1  12
BRANCH  10  25
ATOM     25  O   UNL d   1     -41.709-123.570 -48.362  0.00  0.00    -0.328 OA
ATOM     26  C   UNL d   1     -41.759-123.240 -47.610  0.00  0.00     0.181 C 
ENDBRANCH  10  25
TORSDOF 4
ENDMDL
