MODEL 1
REMARK VINA RESULT:      94.9      0.000      0.000
REMARK  4 active torsions:
REMARK  status: ('A' for Active; 'I' for Inactive)
REMARK    1  A    between atoms: C_2  and  S_1 
REMARK    2  A    between atoms: N_3  and  S_1 
REMARK    3  A    between atoms: C_4  and  C_9 
REMARK       I    between atoms: N_5  and  C_4 
REMARK    4  A    between atoms: C_6  and  N_5 
ROOT
ATOM      1  C   UNL d   1      57.348  49.290  52.067  0.00  0.00     0.104 A 
ATOM      2  C   UNL d   1      58.133  49.135  51.883  0.00  0.00     0.018 A 
ATOM      3  C   UNL d   1      58.402  49.237  51.113  0.00  0.00     0.059 A 
ATOM      4  C   UNL d   1      56.828  49.549  51.474  0.00  0.00     0.012 A 
ATOM      5  C   UNL d   1      57.886  49.495  50.523  0.00  0.00     0.005 A 
ATOM      6  C   UNL d   1      57.098  49.650  50.708  0.00  0.00     0.001 A 
ATOM      7  C   UNL d   1      56.033  49.707  51.656  0.00  0.00     0.001 C 
ENDROOT
BRANCH   1   8
ATOM      8  S   UNL d   1      57.077  49.189  52.833  0.00  0.00     0.271 S 
ATOM      9  O   UNL d   1      57.853  49.238  53.105  0.00  0.00    -0.200 OA
ATOM     10  O   UNL d   1      56.308  49.141  52.555  0.00  0.00    -0.200 OA
BRANCH   8  11
ATOM     11  N   UNL d   1      56.816  49.088  53.606  0.00  0.00    -0.229 N 
ATOM     12  C   UNL d   1      56.412  48.344  53.725  0.00  0.00     0.092 A 
ATOM     13  C   UNL d   1      56.099  48.025  54.285  0.00  0.00     0.020 A 
ATOM     14  C   UNL d   1      56.042  48.332  55.056  0.00  0.00     0.002 A 
ATOM     15  C   UNL d   1      56.350  49.098  55.331  0.00  0.00     0.002 A 
ATOM     16  C   UNL d   1      56.782  49.707  54.860  0.00  0.00     0.020 A 
ATOM     17  C   UNL d   1      56.979  49.656  54.046  0.00  0.00     0.092 A 
ENDBRANCH   8  11
ENDBRANCH   1   8
BRANCH   3  18
ATOM     18  C   UNL d   1      59.183  49.083  50.931  0.00  0.00     0.281 C 
ATOM     19  N   UNL d   1      59.781  49.347  51.425  0.00  0.00    -0.187 NA
ATOM     20  O   UNL d   1      59.209  48.730  50.346  0.00  0.00    -0.265 OA
BRANCH  19  21
ATOM     21  C   UNL d   1      60.577  49.190  51.239  0.00  0.00     0.194 A 
ATOM     22  N   UNL d   1      61.085  49.705  50.842  0.00  0.00    -0.106 NA
ATOM     23  O   UNL d   1      61.828  49.324  50.776  0.00  0.00    -0.207 OA
ATOM     24  C   UNL d   1      61.765  48.583  51.132  0.00  0.00     0.153 A 
ATOM     25  C   UNL d   1      60.993  48.496  51.420  0.00  0.00     0.070 A 
ENDBRANCH  19  21
ENDBRANCH   3  18
TORSDOF 4
ENDMDL
