MODEL 1
REMARK VINA RESULT:      -7.2      0.000      0.000
REMARK  4 active torsions:
REMARK  status: ('A' for Active; 'I' for Inactive)
REMARK    1  A    between atoms: C_4  and  C_3 
REMARK    2  A    between atoms: C_5  and  C_4 
REMARK    3  A    between atoms: C_9  and  C_5 
REMARK    4  A    between atoms: C_13  and  C_9 
ROOT
ATOM      1  N   UNL d   1     -46.271  12.131  23.291  0.00  0.00    -0.234 NA
ATOM      2  C   UNL d   1     -46.988  12.534  23.224  0.00  0.00     0.138 A 
ATOM      3  C   UNL d   1     -47.061  13.158  22.688  0.00  0.00     0.029 A 
ATOM      4  C   UNL d   1     -45.627  12.351  22.824  0.00  0.00     0.082 A 
ATOM      5  C   UNL d   1     -45.700  12.975  22.289  0.00  0.00     0.018 A 
ATOM      6  C   UNL d   1     -46.412  13.337  22.256  0.00  0.00     0.004 A 
ATOM      7  C   UNL d   1     -45.052  13.155  21.857  0.00  0.00     0.002 A 
ATOM      8  C   UNL d   1     -44.911  11.948  22.892  0.00  0.00     0.019 A 
ATOM      9 CL   UNL d   1     -47.631  12.313  23.690  0.00  0.00    -0.061 Cl
ATOM     10  C   UNL d   1     -44.341  12.793  21.890  0.00  0.00     0.000 A 
ATOM     11  C   UNL d   1     -44.268  12.168  22.426  0.00  0.00     0.002 A 
ATOM     12  C   UNL d   1     -43.718  12.976  21.466  0.00  0.00     0.000 C 
ENDROOT
BRANCH   3  13
ATOM     13  C   UNL d   1     -47.772  13.520  22.655  0.00  0.00     0.006 C 
BRANCH  13  14
ATOM     14  C   UNL d   1     -48.262  14.184  22.633  0.00  0.00     0.042 C 
BRANCH  14  15
ATOM     15  C   UNL d   1     -48.994  14.354  22.311  0.00  0.00     0.196 C 
ATOM     16  O   UNL d   1     -49.173  14.113  21.541  0.00  0.00    -0.287 OA
BRANCH  15  17
ATOM     17  C   UNL d   1     -49.556  14.760  22.741  0.00  0.00     0.039 A 
ATOM     18  C   UNL d   1     -49.364  15.453  23.141  0.00  0.00     0.003 A 
ATOM     19  C   UNL d   1     -49.948  15.849  23.570  0.00  0.00     0.000 A 
ATOM     20  C   UNL d   1     -50.723  15.559  23.604  0.00  0.00     0.000 A 
ATOM     21  C   UNL d   1     -50.915  14.872  23.208  0.00  0.00     0.000 A 
ATOM     22  C   UNL d   1     -50.328  14.472  22.775  0.00  0.00     0.003 A 
ENDBRANCH  15  17
ENDBRANCH  14  15
ENDBRANCH  13  14
ENDBRANCH   3  13
TORSDOF 4
ENDMDL
MODEL 2
REMARK VINA RESULT:      -7.2      1.383      5.029
REMARK  4 active torsions:
REMARK  status: ('A' for Active; 'I' for Inactive)
REMARK    1  A    between atoms: C_4  and  C_3 
REMARK    2  A    between atoms: C_5  and  C_4 
REMARK    3  A    between atoms: C_9  and  C_5 
REMARK    4  A    between atoms: C_13  and  C_9 
ROOT
ATOM      1  N   UNL d   1     -49.580  13.477  21.815  0.00  0.00    -0.234 NA
ATOM      2  C   UNL d   1     -48.814  13.186  21.909  0.00  0.00     0.138 A 
ATOM      3  C   UNL d   1     -48.313  13.517  22.477  0.00  0.00     0.029 A 
ATOM      4  C   UNL d   1     -49.848  14.098  22.289  0.00  0.00     0.082 A 
ATOM      5  C   UNL d   1     -49.347  14.429  22.857  0.00  0.00     0.018 A 
ATOM      6  C   UNL d   1     -48.613  14.116  22.913  0.00  0.00     0.004 A 
ATOM      7  C   UNL d   1     -49.646  15.027  23.293  0.00  0.00     0.002 A 
ATOM      8  C   UNL d   1     -50.613  14.389  22.195  0.00  0.00     0.019 A 
ATOM      9 CL   UNL d   1     -48.547  12.566  21.436  0.00  0.00    -0.061 Cl
ATOM     10  C   UNL d   1     -50.379  15.340  23.236  0.00  0.00     0.000 A 
ATOM     11  C   UNL d   1     -50.880  15.009  22.668  0.00  0.00     0.002 A 
ATOM     12  C   UNL d   1     -50.660  15.922  23.665  0.00  0.00     0.000 C 
ENDROOT
BRANCH   3  13
ATOM     13  C   UNL d   1     -47.580  13.204  22.534  0.00  0.00     0.006 C 
BRANCH  13  14
ATOM     14  C   UNL d   1     -46.762  13.220  22.430  0.00  0.00     0.042 C 
BRANCH  14  15
ATOM     15  C   UNL d   1     -46.117  12.982  22.872  0.00  0.00     0.196 C 
ATOM     16  O   UNL d   1     -46.194  12.867  23.687  0.00  0.00    -0.287 OA
BRANCH  15  17
ATOM     17  C   UNL d   1     -45.392  12.854  22.521  0.00  0.00     0.039 A 
ATOM     18  C   UNL d   1     -45.044  13.430  22.046  0.00  0.00     0.003 A 
ATOM     19  C   UNL d   1     -44.311  13.281  21.700  0.00  0.00     0.000 A 
ATOM     20  C   UNL d   1     -43.919  12.561  21.822  0.00  0.00     0.000 A 
ATOM     21  C   UNL d   1     -44.262  11.989  22.292  0.00  0.00     0.000 A 
ATOM     22  C   UNL d   1     -45.002  12.138  22.642  0.00  0.00     0.003 A 
ENDBRANCH  15  17
ENDBRANCH  14  15
ENDBRANCH  13  14
ENDBRANCH   3  13
TORSDOF 4
ENDMDL
MODEL 3
REMARK VINA RESULT:      -6.7      1.790      2.350
REMARK  4 active torsions:
REMARK  status: ('A' for Active; 'I' for Inactive)
REMARK    1  A    between atoms: C_4  and  C_3 
REMARK    2  A    between atoms: C_5  and  C_4 
REMARK    3  A    between atoms: C_9  and  C_5 
REMARK    4  A    between atoms: C_13  and  C_9 
ROOT
ATOM      1  N   UNL d   1     -45.493  12.450  22.870  0.00  0.00    -0.234 NA
ATOM      2  C   UNL d   1     -46.300  12.549  23.010  0.00  0.00     0.138 A 
ATOM      3  C   UNL d   1     -46.735  11.943  23.364  0.00  0.00     0.029 A 
ATOM      4  C   UNL d   1     -45.120  11.745  23.083  0.00  0.00     0.082 A 
ATOM      5  C   UNL d   1     -45.555  11.139  23.437  0.00  0.00     0.018 A 
ATOM      6  C   UNL d   1     -46.333  11.278  23.554  0.00  0.00     0.004 A 
ATOM      7  C   UNL d   1     -45.154  10.475  23.626  0.00  0.00     0.002 A 
ATOM      8  C   UNL d   1     -44.313  11.646  22.942  0.00  0.00     0.019 A 
ATOM      9 CL   UNL d   1     -46.672  13.253  22.797  0.00  0.00    -0.061 Cl
ATOM     10  C   UNL d   1     -44.376  10.336  23.509  0.00  0.00     0.000 A 
ATOM     11  C   UNL d   1     -43.941  10.942  23.155  0.00  0.00     0.002 A 
ATOM     12  C   UNL d   1     -43.997   9.686  23.698  0.00  0.00     0.000 C 
ENDROOT
BRANCH   3  13
ATOM     13  C   UNL d   1     -47.513  12.082  23.481  0.00  0.00     0.006 C 
BRANCH  13  14
ATOM     14  C   UNL d   1     -48.277  12.255  23.225  0.00  0.00     0.042 C 
BRANCH  14  15
ATOM     15  C   UNL d   1     -49.018  11.929  23.346  0.00  0.00     0.196 C 
ATOM     16  O   UNL d   1     -49.088  11.184  23.698  0.00  0.00    -0.287 OA
BRANCH  15  17
ATOM     17  C   UNL d   1     -49.693  12.328  23.124  0.00  0.00     0.039 A 
ATOM     18  C   UNL d   1     -50.039  12.885  23.621  0.00  0.00     0.003 A 
ATOM     19  C   UNL d   1     -50.722  13.278  23.376  0.00  0.00     0.000 A 
ATOM     20  C   UNL d   1     -51.064  13.121  22.639  0.00  0.00     0.000 A 
ATOM     21  C   UNL d   1     -50.723  12.569  22.144  0.00  0.00     0.000 A 
ATOM     22  C   UNL d   1     -50.034  12.171  22.389  0.00  0.00     0.003 A 
ENDBRANCH  15  17
ENDBRANCH  14  15
ENDBRANCH  13  14
ENDBRANCH   3  13
TORSDOF 4
ENDMDL
MODEL 4
REMARK VINA RESULT:      -6.6      8.130      8.797
REMARK  4 active torsions:
REMARK  status: ('A' for Active; 'I' for Inactive)
REMARK    1  A    between atoms: C_4  and  C_3 
REMARK    2  A    between atoms: C_5  and  C_4 
REMARK    3  A    between atoms: C_9  and  C_5 
REMARK    4  A    between atoms: C_13  and  C_9 
ROOT
ATOM      1  N   UNL d   1     -39.747  15.328  21.897  0.00  0.00    -0.234 NA
ATOM      2  C   UNL d   1     -40.013  15.288  21.117  0.00  0.00     0.138 A 
ATOM      3  C   UNL d   1     -39.821  14.636  20.648  0.00  0.00     0.029 A 
ATOM      4  C   UNL d   1     -39.289  14.717  22.209  0.00  0.00     0.082 A 
ATOM      5  C   UNL d   1     -39.096  14.065  21.740  0.00  0.00     0.018 A 
ATOM      6  C   UNL d   1     -39.375  14.068  20.991  0.00  0.00     0.004 A 
ATOM      7  C   UNL d   1     -38.650  13.497  22.083  0.00  0.00     0.002 A 
ATOM      8  C   UNL d   1     -39.023  14.758  22.988  0.00  0.00     0.019 A 
ATOM      9 CL   UNL d   1     -40.472  15.899  20.805  0.00  0.00    -0.061 Cl
ATOM     10  C   UNL d   1     -38.372  13.495  22.831  0.00  0.00     0.000 A 
ATOM     11  C   UNL d   1     -38.565  14.147  23.300  0.00  0.00     0.002 A 
ATOM     12  C   UNL d   1     -37.940  12.938  23.154  0.00  0.00     0.000 C 
ENDROOT
BRANCH   3  13
ATOM     13  C   UNL d   1     -40.099  14.638  19.899  0.00  0.00     0.006 C 
BRANCH  13  14
ATOM     14  C   UNL d   1     -40.011  14.603  19.080  0.00  0.00     0.042 C 
BRANCH  14  15
ATOM     15  C   UNL d   1     -40.491  14.385  18.454  0.00  0.00     0.196 C 
ATOM     16  O   UNL d   1     -41.048  13.782  18.550  0.00  0.00    -0.287 OA
BRANCH  15  17
ATOM     17  C   UNL d   1     -40.429  14.757  17.731  0.00  0.00     0.039 A 
ATOM     18  C   UNL d   1     -39.750  14.682  17.272  0.00  0.00     0.003 A 
ATOM     19  C   UNL d   1     -39.708  15.066  16.543  0.00  0.00     0.000 A 
ATOM     20  C   UNL d   1     -40.339  15.525  16.266  0.00  0.00     0.000 A 
ATOM     21  C   UNL d   1     -41.014  15.601  16.718  0.00  0.00     0.000 A 
ATOM     22  C   UNL d   1     -41.058  15.214  17.454  0.00  0.00     0.003 A 
ENDBRANCH  15  17
ENDBRANCH  14  15
ENDBRANCH  13  14
ENDBRANCH   3  13
TORSDOF 4
ENDMDL
MODEL 5
REMARK VINA RESULT:      -6.3      8.035      9.288
REMARK  4 active torsions:
REMARK  status: ('A' for Active; 'I' for Inactive)
REMARK    1  A    between atoms: C_4  and  C_3 
REMARK    2  A    between atoms: C_5  and  C_4 
REMARK    3  A    between atoms: C_9  and  C_5 
REMARK    4  A    between atoms: C_13  and  C_9 
ROOT
ATOM      1  N   UNL d   1     -40.090  15.377  17.338  0.00  0.00    -0.234 NA
ATOM      2  C   UNL d   1     -40.275  15.370  18.142  0.00  0.00     0.138 A 
ATOM      3  C   UNL d   1     -39.921  14.817  18.642  0.00  0.00     0.029 A 
ATOM      4  C   UNL d   1     -39.550  14.831  17.033  0.00  0.00     0.082 A 
ATOM      5  C   UNL d   1     -39.196  14.278  17.534  0.00  0.00     0.018 A 
ATOM      6  C   UNL d   1     -39.404  14.308  18.305  0.00  0.00     0.004 A 
ATOM      7  C   UNL d   1     -38.680  13.770  17.197  0.00  0.00     0.002 A 
ATOM      8  C   UNL d   1     -39.365  14.838  16.230  0.00  0.00     0.019 A 
ATOM      9 CL   UNL d   1     -40.814  15.915  18.446  0.00  0.00    -0.061 Cl
ATOM     10  C   UNL d   1     -38.472  13.741  16.426  0.00  0.00     0.000 A 
ATOM     11  C   UNL d   1     -38.826  14.294  15.926  0.00  0.00     0.002 A 
ATOM     12  C   UNL d   1     -37.969  13.242  16.110  0.00  0.00     0.000 C 
ENDROOT
BRANCH   3  13
ATOM     13  C   UNL d   1     -40.129  14.846  19.413  0.00  0.00     0.006 C 
BRANCH  13  14
ATOM     14  C   UNL d   1     -39.969  14.936  20.217  0.00  0.00     0.042 C 
BRANCH  14  15
ATOM     15  C   UNL d   1     -40.203  14.554  20.901  0.00  0.00     0.196 C 
ATOM     16  O   UNL d   1     -40.931  14.163  20.928  0.00  0.00    -0.287 OA
BRANCH  15  17
ATOM     17  C   UNL d   1     -39.727  14.552  21.563  0.00  0.00     0.039 A 
ATOM     18  C   UNL d   1     -39.516  15.255  21.936  0.00  0.00     0.003 A 
ATOM     19  C   UNL d   1     -39.033  15.230  22.605  0.00  0.00     0.000 A 
ATOM     20  C   UNL d   1     -38.757  14.510  22.906  0.00  0.00     0.000 A 
ATOM     21  C   UNL d   1     -38.965  13.812  22.538  0.00  0.00     0.000 A 
ATOM     22  C   UNL d   1     -39.452  13.834  21.864  0.00  0.00     0.003 A 
ENDBRANCH  15  17
ENDBRANCH  14  15
ENDBRANCH  13  14
ENDBRANCH   3  13
TORSDOF 4
ENDMDL
MODEL 6
REMARK VINA RESULT:      -6.2      1.332      1.795
REMARK  4 active torsions:
REMARK  status: ('A' for Active; 'I' for Inactive)
REMARK    1  A    between atoms: C_4  and  C_3 
REMARK    2  A    between atoms: C_5  and  C_4 
REMARK    3  A    between atoms: C_9  and  C_5 
REMARK    4  A    between atoms: C_13  and  C_9 
ROOT
ATOM      1  N   UNL d   1     -47.178  11.346  23.428  0.00  0.00    -0.234 NA
ATOM      2  C   UNL d   1     -47.997  11.435  23.391  0.00  0.00     0.138 A 
ATOM      3  C   UNL d   1     -48.323  12.111  23.044  0.00  0.00     0.029 A 
ATOM      4  C   UNL d   1     -46.683  11.930  23.121  0.00  0.00     0.082 A 
ATOM      5  C   UNL d   1     -47.009  12.606  22.775  0.00  0.00     0.018 A 
ATOM      6  C   UNL d   1     -47.807  12.651  22.759  0.00  0.00     0.004 A 
ATOM      7  C   UNL d   1     -46.493  13.146  22.490  0.00  0.00     0.002 A 
ATOM      8  C   UNL d   1     -45.864  11.840  23.159  0.00  0.00     0.019 A 
ATOM      9 CL   UNL d   1     -48.491  10.851  23.698  0.00  0.00    -0.061 Cl
ATOM     10  C   UNL d   1     -45.696  13.100  22.505  0.00  0.00     0.000 A 
ATOM     11  C   UNL d   1     -45.371  12.424  22.852  0.00  0.00     0.002 A 
ATOM     12  C   UNL d   1     -45.205  13.631  22.226  0.00  0.00     0.000 C 
ENDROOT
BRANCH   3  13
ATOM     13  C   UNL d   1     -49.120  12.156  23.029  0.00  0.00     0.006 C 
BRANCH  13  14
ATOM     14  C   UNL d   1     -49.841  12.346  22.676  0.00  0.00     0.042 C 
BRANCH  14  15
ATOM     15  C   UNL d   1     -50.518  12.739  22.914  0.00  0.00     0.196 C 
ATOM     16  O   UNL d   1     -51.057  12.366  23.417  0.00  0.00    -0.287 OA
BRANCH  15  17
ATOM     17  C   UNL d   1     -50.671  13.499  22.662  0.00  0.00     0.039 A 
ATOM     18  C   UNL d   1     -50.915  13.649  21.891  0.00  0.00     0.003 A 
ATOM     19  C   UNL d   1     -51.064  14.426  21.656  0.00  0.00     0.000 A 
ATOM     20  C   UNL d   1     -50.973  15.057  22.185  0.00  0.00     0.000 A 
ATOM     21  C   UNL d   1     -50.731  14.911  22.951  0.00  0.00     0.000 A 
ATOM     22  C   UNL d   1     -50.580  14.128  23.189  0.00  0.00     0.003 A 
ENDBRANCH  15  17
ENDBRANCH  14  15
ENDBRANCH  13  14
ENDBRANCH   3  13
TORSDOF 4
ENDMDL
MODEL 7
REMARK VINA RESULT:      -5.8      8.224      9.792
REMARK  4 active torsions:
REMARK  status: ('A' for Active; 'I' for Inactive)
REMARK    1  A    between atoms: C_4  and  C_3 
REMARK    2  A    between atoms: C_5  and  C_4 
REMARK    3  A    between atoms: C_9  and  C_5 
REMARK    4  A    between atoms: C_13  and  C_9 
ROOT
ATOM      1  N   UNL d   1     -38.579  13.152  16.697  0.00  0.00    -0.234 NA
ATOM      2  C   UNL d   1     -38.906  13.230  17.450  0.00  0.00     0.138 A 
ATOM      3  C   UNL d   1     -39.079  13.980  17.750  0.00  0.00     0.029 A 
ATOM      4  C   UNL d   1     -38.423  13.823  16.243  0.00  0.00     0.082 A 
ATOM      5  C   UNL d   1     -38.595  14.573  16.543  0.00  0.00     0.018 A 
ATOM      6  C   UNL d   1     -38.911  14.602  17.276  0.00  0.00     0.004 A 
ATOM      7  C   UNL d   1     -38.428  15.195  16.070  0.00  0.00     0.002 A 
ATOM      8  C   UNL d   1     -38.095  13.746  15.490  0.00  0.00     0.019 A 
ATOM      9 CL   UNL d   1     -39.062  12.559  17.904  0.00  0.00    -0.061 Cl
ATOM     10  C   UNL d   1     -38.112  15.166  15.337  0.00  0.00     0.000 A 
ATOM     11  C   UNL d   1     -37.940  14.416  15.037  0.00  0.00     0.002 A 
ATOM     12  C   UNL d   1     -37.953  15.777  14.886  0.00  0.00     0.000 C 
ENDROOT
BRANCH   3  13
ATOM     13  C   UNL d   1     -39.395  14.008  18.483  0.00  0.00     0.006 C 
BRANCH  13  14
ATOM     14  C   UNL d   1     -39.501  14.348  19.228  0.00  0.00     0.042 C 
BRANCH  14  15
ATOM     15  C   UNL d   1     -40.143  14.482  19.717  0.00  0.00     0.196 C 
ATOM     16  O   UNL d   1     -40.901  14.260  19.475  0.00  0.00    -0.287 OA
BRANCH  15  17
ATOM     17  C   UNL d   1     -40.046  14.834  20.446  0.00  0.00     0.039 A 
ATOM     18  C   UNL d   1     -40.356  15.581  20.601  0.00  0.00     0.003 A 
ATOM     19  C   UNL d   1     -40.246  15.919  21.345  0.00  0.00     0.000 A 
ATOM     20  C   UNL d   1     -39.830  15.519  21.939  0.00  0.00     0.000 A 
ATOM     21  C   UNL d   1     -39.521  14.779  21.788  0.00  0.00     0.000 A 
ATOM     22  C   UNL d   1     -39.631  14.436  21.038  0.00  0.00     0.003 A 
ENDBRANCH  15  17
ENDBRANCH  14  15
ENDBRANCH  13  14
ENDBRANCH   3  13
TORSDOF 4
ENDMDL
MODEL 8
REMARK VINA RESULT:      -5.8      2.114      5.263
REMARK  4 active torsions:
REMARK  status: ('A' for Active; 'I' for Inactive)
REMARK    1  A    between atoms: C_4  and  C_3 
REMARK    2  A    between atoms: C_5  and  C_4 
REMARK    3  A    between atoms: C_9  and  C_5 
REMARK    4  A    between atoms: C_13  and  C_9 
ROOT
ATOM      1  N   UNL d   1     -48.539  13.131  21.598  0.00  0.00    -0.234 NA
ATOM      2  C   UNL d   1     -47.759  12.980  21.821  0.00  0.00     0.138 A 
ATOM      3  C   UNL d   1     -47.602  12.580  22.527  0.00  0.00     0.029 A 
ATOM      4  C   UNL d   1     -49.162  12.883  22.079  0.00  0.00     0.082 A 
ATOM      5  C   UNL d   1     -49.005  12.483  22.784  0.00  0.00     0.018 A 
ATOM      6  C   UNL d   1     -48.236  12.358  22.961  0.00  0.00     0.004 A 
ATOM      7  C   UNL d   1     -49.638  12.262  23.219  0.00  0.00     0.002 A 
ATOM      8  C   UNL d   1     -49.941  13.035  21.855  0.00  0.00     0.019 A 
ATOM      9 CL   UNL d   1     -47.137  13.228  21.341  0.00  0.00    -0.061 Cl
ATOM     10  C   UNL d   1     -50.407  12.387  23.041  0.00  0.00     0.000 A 
ATOM     11  C   UNL d   1     -50.564  12.787  22.336  0.00  0.00     0.002 A 
ATOM     12  C   UNL d   1     -51.014  12.167  23.471  0.00  0.00     0.000 C 
ENDROOT
BRANCH   3  13
ATOM     13  C   UNL d   1     -46.833  12.455  22.704  0.00  0.00     0.006 C 
BRANCH  13  14
ATOM     14  C   UNL d   1     -46.219  12.048  23.074  0.00  0.00     0.042 C 
BRANCH  14  15
ATOM     15  C   UNL d   1     -45.407  12.008  22.976  0.00  0.00     0.196 C 
ATOM     16  O   UNL d   1     -44.994  12.659  22.679  0.00  0.00    -0.287 OA
BRANCH  15  17
ATOM     17  C   UNL d   1     -44.996  11.330  23.167  0.00  0.00     0.039 A 
ATOM     18  C   UNL d   1     -45.376  10.687  23.513  0.00  0.00     0.003 A 
ATOM     19  C   UNL d   1     -44.941  10.011  23.698  0.00  0.00     0.000 A 
ATOM     20  C   UNL d   1     -44.129   9.970  23.542  0.00  0.00     0.000 A 
ATOM     21  C   UNL d   1     -43.750  10.606  23.199  0.00  0.00     0.000 A 
ATOM     22  C   UNL d   1     -44.187  11.289  23.011  0.00  0.00     0.003 A 
ENDBRANCH  15  17
ENDBRANCH  14  15
ENDBRANCH  13  14
ENDBRANCH   3  13
TORSDOF 4
ENDMDL
