MODEL 1
REMARK VINA RESULT:      -5.3      0.000      0.000
REMARK  2 active torsions:
REMARK  status: ('A' for Active; 'I' for Inactive)
REMARK    1  A    between atoms: C_6  and  N_1 
REMARK    2  A    between atoms: C_7  and  C_6 
ROOT
ATOM      1  N   UNL d   1      56.812  -0.029  31.614  0.00  0.00    -0.287 N 
ATOM      2  N   UNL d   1      56.663  -1.302  31.927  0.00  0.00    -0.224 NA
ATOM      3  C   UNL d   1      57.024  -0.789  31.389  0.00  0.00     0.183 A 
ATOM      4  C   UNL d   1      56.338  -0.065  32.266  0.00  0.00     0.083 A 
ATOM      5  C   UNL d   1      56.245  -0.861  32.461  0.00  0.00     0.099 A 
ATOM      6  C   UNL d   1      55.970   0.516  32.719  0.00  0.00     0.019 A 
ATOM      7  C   UNL d   1      55.783  -1.076  33.110  0.00  0.00     0.021 A 
ATOM      8  C   UNL d   1      55.508   0.303  33.369  0.00  0.00     0.002 A 
ATOM      9  C   UNL d   1      55.415  -0.493  33.565  0.00  0.00     0.002 A 
ENDROOT
BRANCH   1  10
ATOM     10  C   UNL d   1      57.133   0.562  31.125  0.00  0.00     0.082 C 
BRANCH  10  11
ATOM     11  C   UNL d   1      57.904   0.501  30.864  0.00  0.00     0.018 A 
ATOM     12  C   UNL d   1      58.056   0.258  30.091  0.00  0.00     0.002 A 
ATOM     13  C   UNL d   1      58.834   0.195  29.822  0.00  0.00     0.011 A 
ATOM     14  C   UNL d   1      59.460   0.375  30.328  0.00  0.00     0.058 A 
ATOM     15  C   UNL d   1      59.285   0.612  31.084  0.00  0.00     0.011 A 
ATOM     16 CL   UNL d   1      60.218   0.305  30.039  0.00  0.00    -0.082 Cl
ATOM     17  C   UNL d   1      58.530   0.681  31.370  0.00  0.00     0.002 A 
ENDBRANCH  10  11
ENDBRANCH   1  10
TORSDOF 2
ENDMDL
MODEL 2
REMARK VINA RESULT:      -4.7      1.662      3.776
REMARK  2 active torsions:
REMARK  status: ('A' for Active; 'I' for Inactive)
REMARK    1  A    between atoms: C_6  and  N_1 
REMARK    2  A    between atoms: C_7  and  C_6 
ROOT
ATOM      1  N   UNL d   1      57.828   0.668  31.343  0.00  0.00    -0.287 N 
ATOM      2  N   UNL d   1      59.066   0.682  31.800  0.00  0.00    -0.224 NA
ATOM      3  C   UNL d   1      58.273   0.680  32.033  0.00  0.00     0.183 A 
ATOM      4  C   UNL d   1      58.323   0.663  30.706  0.00  0.00     0.083 A 
ATOM      5  C   UNL d   1      59.097   0.672  30.992  0.00  0.00     0.099 A 
ATOM      6  C   UNL d   1      58.184   0.652  29.894  0.00  0.00     0.019 A 
ATOM      7  C   UNL d   1      59.731   0.669  30.465  0.00  0.00     0.021 A 
ATOM      8  C   UNL d   1      58.818   0.650  29.366  0.00  0.00     0.002 A 
ATOM      9  C   UNL d   1      59.592   0.658  29.651  0.00  0.00     0.002 A 
ENDROOT
BRANCH   1  10
ATOM     10  C   UNL d   1      57.008   0.664  31.480  0.00  0.00     0.082 C 
BRANCH  10  11
ATOM     11  C   UNL d   1      56.677   0.093  31.960  0.00  0.00     0.018 A 
ATOM     12  C   UNL d   1      56.361   0.307  32.691  0.00  0.00     0.002 A 
ATOM     13  C   UNL d   1      56.025  -0.267  33.180  0.00  0.00     0.011 A 
ATOM     14  C   UNL d   1      56.006  -1.055  32.937  0.00  0.00     0.058 A 
ATOM     15  C   UNL d   1      56.323  -1.241  32.214  0.00  0.00     0.011 A 
ATOM     16 CL   UNL d   1      55.669  -1.602  33.438  0.00  0.00    -0.082 Cl
ATOM     17  C   UNL d   1      56.658  -0.695  31.717  0.00  0.00     0.002 A 
ENDBRANCH  10  11
ENDBRANCH   1  10
TORSDOF 2
ENDMDL
MODEL 3
REMARK VINA RESULT:      -4.5      1.750      3.881
REMARK  2 active torsions:
REMARK  status: ('A' for Active; 'I' for Inactive)
REMARK    1  A    between atoms: C_6  and  N_1 
REMARK    2  A    between atoms: C_7  and  C_6 
ROOT
ATOM      1  N   UNL d   1      58.030   0.306  30.504  0.00  0.00    -0.287 N 
ATOM      2  N   UNL d   1      57.473   0.637  29.355  0.00  0.00    -0.224 NA
ATOM      3  C   UNL d   1      57.379   0.682  30.174  0.00  0.00     0.183 A 
ATOM      4  C   UNL d   1      58.511   0.038  29.915  0.00  0.00     0.083 A 
ATOM      5  C   UNL d   1      58.163   0.245  29.196  0.00  0.00     0.099 A 
ATOM      6  C   UNL d   1      59.227  -0.371  29.924  0.00  0.00     0.019 A 
ATOM      7  C   UNL d   1      58.531   0.043  28.486  0.00  0.00     0.021 A 
ATOM      8  C   UNL d   1      59.596  -0.573  29.215  0.00  0.00     0.002 A 
ATOM      9  C   UNL d   1      59.248  -0.367  28.496  0.00  0.00     0.002 A 
ENDROOT
BRANCH   1  10
ATOM     10  C   UNL d   1      58.021   0.302  31.336  0.00  0.00     0.082 C 
BRANCH  10  11
ATOM     11  C   UNL d   1      57.363   0.032  31.736  0.00  0.00     0.018 A 
ATOM     12  C   UNL d   1      56.874   0.567  32.128  0.00  0.00     0.002 A 
ATOM     13  C   UNL d   1      56.208   0.299  32.533  0.00  0.00     0.011 A 
ATOM     14  C   UNL d   1      56.031  -0.507  32.547  0.00  0.00     0.058 A 
ATOM     15  C   UNL d   1      56.526  -1.014  32.153  0.00  0.00     0.011 A 
ATOM     16 CL   UNL d   1      55.367  -0.746  32.954  0.00  0.00    -0.082 Cl
ATOM     17  C   UNL d   1      57.186  -0.774  31.749  0.00  0.00     0.002 A 
ENDBRANCH  10  11
ENDBRANCH   1  10
TORSDOF 2
ENDMDL
MODEL 4
REMARK VINA RESULT:      -4.0      8.943      9.744
REMARK  2 active torsions:
REMARK  status: ('A' for Active; 'I' for Inactive)
REMARK    1  A    between atoms: C_6  and  N_1 
REMARK    2  A    between atoms: C_7  and  C_6 
ROOT
ATOM      1  N   UNL d   1      59.957  -8.764  35.276  0.00  0.00    -0.287 N 
ATOM      2  N   UNL d   1      61.082  -8.380  35.847  0.00  0.00    -0.224 NA
ATOM      3  C   UNL d   1      60.728  -8.998  35.428  0.00  0.00     0.183 A 
ATOM      4  C   UNL d   1      59.834  -8.030  35.587  0.00  0.00     0.083 A 
ATOM      5  C   UNL d   1      60.538  -7.790  35.944  0.00  0.00     0.099 A 
ATOM      6  C   UNL d   1      59.176  -7.533  35.599  0.00  0.00     0.019 A 
ATOM      7  C   UNL d   1      60.584  -7.054  36.313  0.00  0.00     0.021 A 
ATOM      8  C   UNL d   1      59.221  -6.797  35.968  0.00  0.00     0.002 A 
ATOM      9  C   UNL d   1      59.925  -6.557  36.325  0.00  0.00     0.002 A 
ENDROOT
BRANCH   1  10
ATOM     10  C   UNL d   1      59.518  -9.329  34.854  0.00  0.00     0.082 C 
BRANCH  10  11
ATOM     11  C   UNL d   1      59.667  -9.452  34.060  0.00  0.00     0.018 A 
ATOM     12  C   UNL d   1      59.051  -9.398  33.515  0.00  0.00     0.002 A 
ATOM     13  C   UNL d   1      59.197  -9.522  32.713  0.00  0.00     0.011 A 
ATOM     14  C   UNL d   1      59.960  -9.700  32.456  0.00  0.00     0.058 A 
ATOM     15  C   UNL d   1      60.550  -9.749  33.011  0.00  0.00     0.011 A 
ATOM     16 CL   UNL d   1      60.078  -9.818  31.658  0.00  0.00    -0.082 Cl
ATOM     17  C   UNL d   1      60.430  -9.631  33.803  0.00  0.00     0.002 A 
ENDBRANCH  10  11
ENDBRANCH   1  10
TORSDOF 2
ENDMDL
MODEL 5
REMARK VINA RESULT:      -4.0      0.931      1.209
REMARK  2 active torsions:
REMARK  status: ('A' for Active; 'I' for Inactive)
REMARK    1  A    between atoms: C_6  and  N_1 
REMARK    2  A    between atoms: C_7  and  C_6 
ROOT
ATOM      1  N   UNL d   1      57.225   0.523  31.868  0.00  0.00    -0.287 N 
ATOM      2  N   UNL d   1      57.825   0.567  33.042  0.00  0.00    -0.224 NA
ATOM      3  C   UNL d   1      57.943   0.681  32.232  0.00  0.00     0.183 A 
ATOM      4  C   UNL d   1      56.681   0.318  32.427  0.00  0.00     0.083 A 
ATOM      5  C   UNL d   1      57.057   0.346  33.161  0.00  0.00     0.099 A 
ATOM      6  C   UNL d   1      55.886   0.106  32.379  0.00  0.00     0.019 A 
ATOM      7  C   UNL d   1      56.637   0.162  33.847  0.00  0.00     0.021 A 
ATOM      8  C   UNL d   1      55.465  -0.078  33.065  0.00  0.00     0.002 A 
ATOM      9  C   UNL d   1      55.840  -0.050  33.799  0.00  0.00     0.002 A 
ENDROOT
BRANCH   1  10
ATOM     10  C   UNL d   1      57.247   0.612  31.042  0.00  0.00     0.082 C 
BRANCH  10  11
ATOM     11  C   UNL d   1      57.844   0.262  30.609  0.00  0.00     0.018 A 
ATOM     12  C   UNL d   1      57.757  -0.514  30.346  0.00  0.00     0.002 A 
ATOM     13  C   UNL d   1      58.358  -0.872  29.908  0.00  0.00     0.011 A 
ATOM     14  C   UNL d   1      59.047  -0.453  29.734  0.00  0.00     0.058 A 
ATOM     15  C   UNL d   1      59.109   0.310  30.004  0.00  0.00     0.011 A 
ATOM     16 CL   UNL d   1      59.625  -0.829  29.301  0.00  0.00    -0.082 Cl
ATOM     17  C   UNL d   1      58.533   0.682  30.435  0.00  0.00     0.002 A 
ENDBRANCH  10  11
ENDBRANCH   1  10
TORSDOF 2
ENDMDL
