MODEL 1
REMARK VINA RESULT:      -1.1      0.000      0.000
REMARK  9 active torsions:
REMARK  status: ('A' for Active; 'I' for Inactive)
REMARK    1  A    between atoms: C_2  and  N_1 
REMARK    2  A    between atoms: C_4  and  C_2 
REMARK    3  A    between atoms: C_6  and  C_2 
REMARK    4  A    between atoms: C_8  and  N_3 
REMARK       I    between atoms: C_5  and  N_7 
REMARK    5  A    between atoms: O_17  and  C_5 
REMARK    6  A    between atoms: N_7  and  C_6 
REMARK    7  A    between atoms: C_22  and  O_17 
REMARK    8  A    between atoms: O_26  and  C_21 
REMARK    9  A    between atoms: C_25  and  C_22 
ROOT
ATOM      1  C   UNL d   1      58.710  -0.939  29.941  0.00  0.00     0.107 C 
ENDROOT
BRANCH   1   2
ATOM      2  N   UNL d   1      58.182  -0.771  30.563  0.00  0.00    -0.298 N 
ATOM      3  C   UNL d   1      57.554  -1.272  30.714  0.00  0.00     0.100 A 
ATOM      4  C   UNL d   1      57.026  -1.105  31.336  0.00  0.00     0.100 A 
ATOM      5  N   UNL d   1      57.141  -0.431  31.798  0.00  0.00    -0.301 N 
ATOM      6  C   UNL d   1      57.782   0.072  31.635  0.00  0.00     0.100 A 
ATOM      7  C   UNL d   1      58.296  -0.097  31.025  0.00  0.00     0.100 A 
BRANCH   5   8
ATOM      8  C   UNL d   1      56.634  -0.260  32.403  0.00  0.00     0.064 A 
ATOM      9  C   UNL d   1      55.908  -0.648  32.461  0.00  0.00     0.020 A 
ATOM     10  C   UNL d   1      55.393  -0.470  33.082  0.00  0.00     0.026 A 
ATOM     11  C   UNL d   1      55.605   0.096  33.644  0.00  0.00     0.094 A 
ATOM     12  C   UNL d   1      56.331   0.485  33.586  0.00  0.00     0.026 A 
ATOM     13  C   UNL d   1      56.841   0.304  32.966  0.00  0.00     0.020 A 
BRANCH  11  14
ATOM     14  O   UNL d   1      55.080   0.275  34.273  0.00  0.00    -0.328 OA
ATOM     15  C   UNL d   1      54.296   0.452  34.098  0.00  0.00     0.181 C 
ENDBRANCH  11  14
ENDBRANCH   5   8
ENDBRANCH   1   2
BRANCH   1  16
ATOM     16  C   UNL d   1      58.902  -0.332  29.395  0.00  0.00     0.118 A 
ATOM     17  O   UNL d   1      58.452   0.068  28.826  0.00  0.00    -0.304 OA
ATOM     18  C   UNL d   1      58.956   0.615  28.455  0.00  0.00     0.123 A 
ATOM     19  C   UNL d   1      59.698   0.553  28.787  0.00  0.00     0.029 A 
ATOM     20  C   UNL d   1      59.667  -0.034  29.371  0.00  0.00     0.028 A 
ENDBRANCH   1  16
BRANCH   1  21
ATOM     21  C   UNL d   1      59.045  -1.685  29.852  0.00  0.00     0.124 C 
BRANCH  21  22
ATOM     22  N   UNL d   1      58.722  -2.220  29.292  0.00  0.00    -0.183 NA
ATOM     23  C   UNL d   1      59.154  -2.860  29.037  0.00  0.00     0.392 C 
ATOM     24  O   UNL d   1      59.918  -2.986  29.331  0.00  0.00    -0.236 OA
BRANCH  23  25
ATOM     25  O   UNL d   1      58.829  -3.380  28.487  0.00  0.00    -0.256 OA
BRANCH  25  26
ATOM     26  C   UNL d   1      59.085  -4.165  28.459  0.00  0.00     0.128 C 
BRANCH  26  27
ATOM     27  C   UNL d   1      58.535  -4.779  28.458  0.00  0.00     0.025 A 
ATOM     28  C   UNL d   1      57.727  -4.608  28.456  0.00  0.00     0.002 A 
ATOM     29  C   UNL d   1      57.177  -5.222  28.455  0.00  0.00     0.000 A 
ATOM     30  C   UNL d   1      57.433  -6.007  28.456  0.00  0.00     0.000 A 
ATOM     31  C   UNL d   1      58.237  -6.174  28.457  0.00  0.00     0.000 A 
ATOM     32  C   UNL d   1      58.792  -5.563  28.458  0.00  0.00     0.002 A 
ENDBRANCH  26  27
ENDBRANCH  25  26
ENDBRANCH  23  25
ENDBRANCH  21  22
ENDBRANCH   1  21
TORSDOF 9
ENDMDL
