MODEL 1
REMARK VINA RESULT:      53.7      0.000      0.000
REMARK  5 active torsions:
REMARK  status: ('A' for Active; 'I' for Inactive)
REMARK    1  A    between atoms: S_2  and  C_1 
REMARK    2  A    between atoms: N_8  and  S_2 
REMARK    3  A    between atoms: C_11  and  C_16 
REMARK    4  A    between atoms: O_22  and  C_11 
REMARK    5  A    between atoms: C_23  and  O_22 
ROOT
ATOM      1  S   UNL d   1      14.393  14.896  -2.559  0.00  0.00     0.277 S 
ATOM      2  O   UNL d   1      14.627  14.347  -1.985  0.00  0.00    -0.199 OA
ATOM      3  O   UNL d   1      14.155  15.432  -3.135  0.00  0.00    -0.199 OA
ENDROOT
BRANCH   1   4
ATOM      4  C   UNL d   1      14.705  15.511  -2.109  0.00  0.00     0.178 A 
ATOM      5  C   UNL d   1      14.800  16.255  -2.454  0.00  0.00     0.282 A 
ATOM      6  N   UNL d   1      15.111  16.866  -2.004  0.00  0.00    -0.224 N 
ATOM      7  O   UNL d   1      14.588  16.379  -3.223  0.00  0.00    -0.266 OA
ATOM      8  C   UNL d   1      15.204  17.608  -2.353  0.00  0.00     0.107 C 
ATOM      9  C   UNL d   1      15.327  16.741  -1.222  0.00  0.00     0.342 A 
ATOM     10  N   UNL d   1      15.232  16.004  -0.885  0.00  0.00    -0.255 N 
ATOM     11  O   UNL d   1      15.640  17.354  -0.768  0.00  0.00    -0.245 OA
ATOM     12  C   UNL d   1      14.921  15.385  -1.327  0.00  0.00     0.102 A 
ATOM     13  C   UNL d   1      15.447  15.880  -0.107  0.00  0.00     0.104 C 
ENDBRANCH   1   4
BRANCH   1  14
ATOM     14  N   UNL d   1      14.076  14.287  -3.018  0.00  0.00    -0.229 N 
ATOM     15  C   UNL d   1      13.264  14.317  -3.258  0.00  0.00     0.092 A 
ATOM     16  C   UNL d   1      12.959  13.692  -3.723  0.00  0.00     0.025 A 
ATOM     17  C   UNL d   1      13.445  13.048  -3.949  0.00  0.00     0.067 A 
ATOM     18  C   UNL d   1      14.243  13.020  -3.714  0.00  0.00     0.025 A 
ATOM     19  C   UNL d   1      14.562  13.643  -3.245  0.00  0.00     0.092 A 
BRANCH  17  20
ATOM     20  C   UNL d   1      13.136  12.448  -4.401  0.00  0.00     0.300 C 
ATOM     21  O   UNL d   1      12.777  11.831  -4.048  0.00  0.00    -0.259 OA
BRANCH  20  22
ATOM     22  O   UNL d   1      13.199  12.489  -5.206  0.00  0.00    -0.271 OA
BRANCH  22  23
ATOM     23  C   UNL d   1      13.504  11.892  -5.621  0.00  0.00     0.126 C 
ATOM     24  C   UNL d   1      13.292  11.783  -6.387  0.00  0.00     0.029 C 
ENDBRANCH  22  23
ENDBRANCH  20  22
ENDBRANCH  17  20
ENDBRANCH   1  14
TORSDOF 5
ENDMDL
MODEL 2
REMARK VINA RESULT:      56.2      2.593      4.733
REMARK  5 active torsions:
REMARK  status: ('A' for Active; 'I' for Inactive)
REMARK    1  A    between atoms: S_2  and  C_1 
REMARK    2  A    between atoms: N_8  and  S_2 
REMARK    3  A    between atoms: C_11  and  C_16 
REMARK    4  A    between atoms: O_22  and  C_11 
REMARK    5  A    between atoms: C_23  and  O_22 
ROOT
ATOM      1  S   UNL d   1      13.377  14.790  -4.696  0.00  0.00     0.277 S 
ATOM      2  O   UNL d   1      12.851  15.054  -4.113  0.00  0.00    -0.199 OA
ATOM      3  O   UNL d   1      13.900  14.540  -5.280  0.00  0.00    -0.199 OA
ENDROOT
BRANCH   1   4
ATOM      4  C   UNL d   1      13.376  14.035  -4.367  0.00  0.00     0.178 A 
ATOM      5  C   UNL d   1      13.648  13.932  -3.594  0.00  0.00     0.282 A 
ATOM      6  N   UNL d   1      13.646  13.180  -3.268  0.00  0.00    -0.224 N 
ATOM      7  O   UNL d   1      13.913  14.564  -3.167  0.00  0.00    -0.266 OA
ATOM      8  C   UNL d   1      13.919  13.082  -2.496  0.00  0.00     0.107 C 
ATOM      9  C   UNL d   1      13.377  12.537  -3.702  0.00  0.00     0.342 A 
ATOM     10  N   UNL d   1      13.109  12.643  -4.464  0.00  0.00    -0.255 N 
ATOM     11  O   UNL d   1      13.374  11.780  -3.375  0.00  0.00    -0.245 OA
ATOM     12  C   UNL d   1      13.107  13.393  -4.801  0.00  0.00     0.102 A 
ATOM     13  C   UNL d   1      12.841  12.004  -4.896  0.00  0.00     0.104 C 
ENDBRANCH   1   4
BRANCH   1  14
ATOM     14  N   UNL d   1      13.386  15.543  -5.035  0.00  0.00    -0.229 N 
ATOM     15  C   UNL d   1      12.797  15.758  -5.604  0.00  0.00     0.092 A 
ATOM     16  C   UNL d   1      12.821  16.524  -5.937  0.00  0.00     0.025 A 
ATOM     17  C   UNL d   1      13.415  17.072  -5.714  0.00  0.00     0.067 A 
ATOM     18  C   UNL d   1      13.994  16.860  -5.154  0.00  0.00     0.025 A 
ATOM     19  C   UNL d   1      13.980  16.091  -4.811  0.00  0.00     0.092 A 
BRANCH  17  20
ATOM     20  C   UNL d   1      13.426  17.813  -6.046  0.00  0.00     0.300 C 
ATOM     21  O   UNL d   1      12.769  18.103  -6.389  0.00  0.00    -0.259 OA
BRANCH  20  22
ATOM     22  O   UNL d   1      14.109  18.246  -6.020  0.00  0.00    -0.271 OA
BRANCH  22  23
ATOM     23  C   UNL d   1      14.117  19.005  -6.230  0.00  0.00     0.126 C 
ATOM     24  C   UNL d   1      14.810  19.410  -6.256  0.00  0.00     0.029 C 
ENDBRANCH  22  23
ENDBRANCH  20  22
ENDBRANCH  17  20
ENDBRANCH   1  14
TORSDOF 5
ENDMDL
