MODEL 1
REMARK VINA RESULT:      13.2      0.000      0.000
REMARK  4 active torsions:
REMARK  status: ('A' for Active; 'I' for Inactive)
REMARK    1  A    between atoms: N_2  and  C_1 
REMARK    2  A    between atoms: C_4  and  C_1 
REMARK    3  A    between atoms: C_6  and  N_2 
REMARK    4  A    between atoms: O_12  and  C_7 
ROOT
ATOM      1  N   UNL d   1      45.901 -16.859  44.807  0.00  0.00    -0.235 NA
ENDROOT
BRANCH   1   2
ATOM      2  C   UNL d   1      45.994 -17.269  44.096  0.00  0.00     0.136 C 
ATOM      3  S   UNL d   1      45.870 -16.887  43.370  0.00  0.00    -0.057 SA
BRANCH   2   4
ATOM      4  C   UNL d   1      46.213 -18.072  44.106  0.00  0.00     0.031 A 
ATOM      5  C   UNL d   1      46.263 -18.480  44.833  0.00  0.00     0.023 A 
ATOM      6  C   UNL d   1      46.480 -19.275  44.846  0.00  0.00     0.099 A 
ATOM      7  N   UNL d   1      46.647 -19.664  44.133  0.00  0.00    -0.242 NA
ATOM      8  C   UNL d   1      46.597 -19.260  43.413  0.00  0.00     0.099 A 
ATOM      9  C   UNL d   1      46.380 -18.464  43.399  0.00  0.00     0.023 A 
ENDBRANCH   2   4
ENDBRANCH   1   2
BRANCH   1  10
ATOM     10  C   UNL d   1      45.724 -16.054  44.791  0.00  0.00     0.082 A 
ATOM     11  C   UNL d   1      44.952 -15.808  44.953  0.00  0.00     0.021 A 
ATOM     12  C   UNL d   1      44.768 -15.001  44.938  0.00  0.00     0.026 A 
ATOM     13  C   UNL d   1      45.353 -14.447  44.763  0.00  0.00     0.094 A 
ATOM     14  C   UNL d   1      46.127 -14.702  44.601  0.00  0.00     0.026 A 
ATOM     15  C   UNL d   1      46.309 -15.504  44.616  0.00  0.00     0.021 A 
BRANCH  13  16
ATOM     16  O   UNL d   1      45.168 -13.643  44.749  0.00  0.00    -0.328 OA
ATOM     17  C   UNL d   1      45.525 -13.146  44.193  0.00  0.00     0.181 C 
ENDBRANCH  13  16
ENDBRANCH   1  10
TORSDOF 4
ENDMDL
MODEL 2
REMARK VINA RESULT:      13.3      1.883      4.206
REMARK  4 active torsions:
REMARK  status: ('A' for Active; 'I' for Inactive)
REMARK    1  A    between atoms: N_2  and  C_1 
REMARK    2  A    between atoms: C_4  and  C_1 
REMARK    3  A    between atoms: C_6  and  N_2 
REMARK    4  A    between atoms: O_12  and  C_7 
ROOT
ATOM      1  N   UNL d   1      46.230 -16.719  43.998  0.00  0.00    -0.235 NA
ENDROOT
BRANCH   1   2
ATOM      2  C   UNL d   1      45.668 -16.409  44.517  0.00  0.00     0.136 C 
ATOM      3  S   UNL d   1      45.174 -16.911  44.955  0.00  0.00    -0.057 SA
BRANCH   2   4
ATOM      4  C   UNL d   1      45.595 -15.584  44.604  0.00  0.00     0.031 A 
ATOM      5  C   UNL d   1      44.874 -15.256  44.868  0.00  0.00     0.023 A 
ATOM      6  C   UNL d   1      44.798 -14.439  44.954  0.00  0.00     0.099 A 
ATOM      7  N   UNL d   1      45.443 -13.950  44.777  0.00  0.00    -0.242 NA
ATOM      8  C   UNL d   1      46.157 -14.275  44.515  0.00  0.00     0.099 A 
ATOM      9  C   UNL d   1      46.234 -15.092  44.428  0.00  0.00     0.023 A 
ENDBRANCH   2   4
ENDBRANCH   1   2
BRANCH   1  10
ATOM     10  C   UNL d   1      46.274 -17.535  43.889  0.00  0.00     0.082 A 
ATOM     11  C   UNL d   1      46.284 -17.839  43.120  0.00  0.00     0.021 A 
ATOM     12  C   UNL d   1      46.328 -18.658  43.004  0.00  0.00     0.026 A 
ATOM     13  C   UNL d   1      46.361 -19.166  43.654  0.00  0.00     0.094 A 
ATOM     14  C   UNL d   1      46.350 -18.853  44.423  0.00  0.00     0.026 A 
ATOM     15  C   UNL d   1      46.306 -18.039  44.537  0.00  0.00     0.021 A 
BRANCH  13  16
ATOM     16  O   UNL d   1      46.405 -19.981  43.536  0.00  0.00    -0.328 OA
ATOM     17  C   UNL d   1      46.405 -20.290  42.769  0.00  0.00     0.181 C 
ENDBRANCH  13  16
ENDBRANCH   1  10
TORSDOF 4
ENDMDL
MODEL 3
REMARK VINA RESULT:      14.7      2.052      4.451
REMARK  4 active torsions:
REMARK  status: ('A' for Active; 'I' for Inactive)
REMARK    1  A    between atoms: N_2  and  C_1 
REMARK    2  A    between atoms: C_4  and  C_1 
REMARK    3  A    between atoms: C_6  and  N_2 
REMARK    4  A    between atoms: O_12  and  C_7 
ROOT
ATOM      1  N   UNL d   1      45.038 -14.735  44.438  0.00  0.00    -0.235 NA
ENDROOT
BRANCH   1   2
ATOM      2  C   UNL d   1      45.541 -14.081  44.466  0.00  0.00     0.136 C 
ATOM      3  S   UNL d   1      46.214 -14.087  44.950  0.00  0.00    -0.057 SA
BRANCH   2   4
ATOM      4  C   UNL d   1      45.372 -13.409  44.005  0.00  0.00     0.031 A 
ATOM      5  C   UNL d   1      44.681 -13.389  43.538  0.00  0.00     0.023 A 
ATOM      6  C   UNL d   1      44.511 -12.725  43.079  0.00  0.00     0.099 A 
ATOM      7  N   UNL d   1      45.032 -12.080  43.087  0.00  0.00    -0.242 NA
ATOM      8  C   UNL d   1      45.718 -12.100  43.550  0.00  0.00     0.099 A 
ATOM      9  C   UNL d   1      45.888 -12.765  44.009  0.00  0.00     0.023 A 
ENDBRANCH   2   4
ENDBRANCH   1   2
BRANCH   1  10
ATOM     10  C   UNL d   1      45.360 -15.492  44.380  0.00  0.00     0.082 A 
ATOM     11  C   UNL d   1      45.170 -16.056  44.955  0.00  0.00     0.021 A 
ATOM     12  C   UNL d   1      45.490 -16.818  44.902  0.00  0.00     0.026 A 
ATOM     13  C   UNL d   1      45.996 -17.011  44.280  0.00  0.00     0.094 A 
ATOM     14  C   UNL d   1      46.182 -16.440  43.707  0.00  0.00     0.026 A 
ATOM     15  C   UNL d   1      45.863 -15.683  43.760  0.00  0.00     0.021 A 
BRANCH  13  16
ATOM     16  O   UNL d   1      46.314 -17.771  44.230  0.00  0.00    -0.328 OA
ATOM     17  C   UNL d   1      46.304 -18.177  43.510  0.00  0.00     0.181 C 
ENDBRANCH  13  16
ENDBRANCH   1  10
TORSDOF 4
ENDMDL
