MODEL 1
REMARK VINA RESULT:      90.7      0.000      0.000
REMARK  4 active torsions:
REMARK  status: ('A' for Active; 'I' for Inactive)
REMARK    1  A    between atoms: N_6  and  C_1 
REMARK    2  A    between atoms: C_10  and  C_2 
REMARK       I    between atoms: C_9  and  N_6 
REMARK    3  A    between atoms: C_11  and  C_9 
REMARK    4  A    between atoms: O_20  and  C_10 
ROOT
ATOM      1  C   UNL d   1      59.064  49.348  52.254  0.00  0.00     0.119 A 
ATOM      2  C   UNL d   1      59.862  49.226  52.088  0.00  0.00     0.087 A 
ATOM      3  C   UNL d   1      59.961  49.295  51.277  0.00  0.00     0.008 A 
ATOM      4  C   UNL d   1      59.238  49.458  50.939  0.00  0.00     0.028 A 
ATOM      5  S   UNL d   1      58.673  49.492  51.541  0.00  0.00    -0.070 SA
ATOM      6  C   UNL d   1      59.169  49.558  50.118  0.00  0.00     0.104 A 
ATOM      7  N   UNL d   1      59.837  49.492  49.643  0.00  0.00    -0.294 NA
ATOM      8  C   UNL d   1      60.571  49.327  49.986  0.00  0.00     0.099 A 
ATOM      9  C   UNL d   1      60.637  49.228  50.805  0.00  0.00    -0.004 A 
ATOM     10  C   UNL d   1      58.906  49.686  49.345  0.00  0.00     0.029 C 
ATOM     11  C   UNL d   1      58.404  49.660  50.406  0.00  0.00     0.029 C 
ATOM     12  C   UNL d   1      61.305  49.162  50.329  0.00  0.00     0.029 C 
ATOM     13  C   UNL d   1      60.513  49.424  49.171  0.00  0.00     0.029 C 
ENDROOT
BRANCH   1  14
ATOM     14  N   UNL d   1      58.711  49.329  53.001  0.00  0.00    -0.200 NA
ATOM     15  C   UNL d   1      57.906  49.489  53.081  0.00  0.00     0.302 C 
ATOM     16  O   UNL d   1      57.453  49.667  52.414  0.00  0.00    -0.263 OA
BRANCH  15  17
ATOM     17  C   UNL d   1      57.554  49.471  53.825  0.00  0.00     0.158 A 
ATOM     18  O   UNL d   1      57.896  49.705  54.532  0.00  0.00    -0.300 OA
ATOM     19  C   UNL d   1      57.330  49.587  55.140  0.00  0.00     0.123 A 
ATOM     20  C   UNL d   1      56.655  49.285  54.800  0.00  0.00     0.029 A 
ATOM     21  C   UNL d   1      56.773  49.204  53.980  0.00  0.00     0.032 A 
ENDBRANCH  15  17
ENDBRANCH   1  14
BRANCH   2  22
ATOM     22  C   UNL d   1      60.441  49.065  52.645  0.00  0.00     0.298 C 
ATOM     23  O   UNL d   1      60.850  49.696  52.991  0.00  0.00    -0.259 OA
BRANCH  22  24
ATOM     24  O   UNL d   1      60.617  48.280  52.858  0.00  0.00    -0.296 OA
ATOM     25  C   UNL d   1      61.399  48.044  52.945  0.00  0.00     0.185 C 
ENDBRANCH  22  24
ENDBRANCH   2  22
TORSDOF 4
ENDMDL
