MODEL 1
REMARK VINA RESULT:      -2.7      0.000      0.000
REMARK  6 active torsions:
REMARK  status: ('A' for Active; 'I' for Inactive)
REMARK    1  A    between atoms: C_8  and  C_1 
REMARK    2  A    between atoms: C_2  and  N_3 
REMARK       I    between atoms: N_3  and  C_8 
REMARK    3  A    between atoms: S_4  and  C_14 
REMARK    4  A    between atoms: C_23  and  N_7 
REMARK    5  A    between atoms: C_27  and  C_23 
REMARK    6  A    between atoms: O_26  and  C_27 
ROOT
ATOM      1  C   UNL d   1      33.072  21.374 -21.811  0.00  0.00     0.182 A 
ATOM      2  N   UNL d   1      33.119  22.185 -21.914  0.00  0.00    -0.283 N 
ATOM      3  S   UNL d   1      32.947  21.226 -21.011  0.00  0.00    -0.048 SA
ATOM      4  C   UNL d   1      32.918  21.952 -20.617  0.00  0.00     0.049 A 
ATOM      5  C   UNL d   1      33.024  22.548 -21.178  0.00  0.00     0.072 A 
ATOM      6  C   UNL d   1      32.805  22.936 -19.593  0.00  0.00     0.107 A 
ATOM      7  C   UNL d   1      32.808  22.147 -19.825  0.00  0.00     0.021 A 
ATOM      8  C   UNL d   1      33.021  23.339 -20.946  0.00  0.00     0.019 A 
ATOM      9  C   UNL d   1      32.912  23.532 -20.153  0.00  0.00     0.015 A 
ENDROOT
BRANCH   1  10
ATOM     10  N   UNL d   1      33.138  20.810 -22.410  0.00  0.00    -0.183 NA
ATOM     11  C   UNL d   1      32.948  20.025 -22.251  0.00  0.00     0.288 C 
ATOM     12  O   UNL d   1      32.694  19.809 -21.497  0.00  0.00    -0.265 OA
BRANCH  11  13
ATOM     13  C   UNL d   1      33.012  19.455 -22.844  0.00  0.00     0.098 A 
ATOM     14  S   UNL d   1      33.071  19.603 -23.646  0.00  0.00    -0.081 SA
ATOM     15  C   UNL d   1      33.124  18.884 -24.040  0.00  0.00     0.030 A 
ATOM     16  C   UNL d   1      33.193  18.700 -24.846  0.00  0.00     0.006 A 
ATOM     17  C   UNL d   1      33.098  18.277 -23.482  0.00  0.00     0.017 A 
ATOM     18  C   UNL d   1      33.236  17.908 -25.094  0.00  0.00     0.001 A 
ATOM     19  C   UNL d   1      33.209  17.303 -24.516  0.00  0.00     0.000 A 
ATOM     20  C   UNL d   1      33.141  17.487 -23.728  0.00  0.00     0.001 A 
ATOM     21  C   UNL d   1      33.028  18.634 -22.732  0.00  0.00     0.069 A 
ATOM     22 CL   UNL d   1      32.984  18.237 -22.014  0.00  0.00    -0.082 Cl
ENDBRANCH  11  13
ENDBRANCH   1  10
BRANCH   2  23
ATOM     23  C   UNL d   1      33.241  22.582 -22.629  0.00  0.00     0.108 C 
BRANCH  23  24
ATOM     24  C   UNL d   1      32.679  23.112 -22.913  0.00  0.00     0.135 C 
BRANCH  24  25
ATOM     25  O   UNL d   1      32.794  23.491 -23.632  0.00  0.00    -0.325 OA
ATOM     26  C   UNL d   1      32.152  23.662 -24.127  0.00  0.00     0.182 C 
ENDBRANCH  24  25
ENDBRANCH  23  24
ENDBRANCH   2  23
BRANCH   6  27
ATOM     27  S   UNL d   1      32.694  23.137 -18.789  0.00  0.00     0.302 S 
ATOM     28  O   UNL d   1      33.241  22.566 -18.540  0.00  0.00    -0.197 OA
ATOM     29  O   UNL d   1      32.152  23.702 -19.039  0.00  0.00    -0.197 OA
ATOM     30  N   UNL d   1      32.565  23.353 -18.005  0.00  0.00    -0.043 N 
ENDBRANCH   6  27
TORSDOF 6
ENDMDL
MODEL 2
REMARK VINA RESULT:      -1.0      1.844      5.278
REMARK  6 active torsions:
REMARK  status: ('A' for Active; 'I' for Inactive)
REMARK    1  A    between atoms: C_8  and  C_1 
REMARK    2  A    between atoms: C_2  and  N_3 
REMARK       I    between atoms: N_3  and  C_8 
REMARK    3  A    between atoms: S_4  and  C_14 
REMARK    4  A    between atoms: C_23  and  N_7 
REMARK    5  A    between atoms: C_27  and  C_23 
REMARK    6  A    between atoms: O_26  and  C_27 
ROOT
ATOM      1  C   UNL d   1      32.910  20.080 -22.539  0.00  0.00     0.182 A 
ATOM      2  N   UNL d   1      33.057  20.086 -23.345  0.00  0.00    -0.283 N 
ATOM      3  S   UNL d   1      32.752  19.303 -22.315  0.00  0.00    -0.048 SA
ATOM      4  C   UNL d   1      32.803  18.827 -22.990  0.00  0.00     0.049 A 
ATOM      5  C   UNL d   1      32.993  19.313 -23.629  0.00  0.00     0.072 A 
ATOM      6  C   UNL d   1      32.791  17.695 -23.855  0.00  0.00     0.107 A 
ATOM      7  C   UNL d   1      32.702  18.018 -23.104  0.00  0.00     0.021 A 
ATOM      8  C   UNL d   1      33.081  18.990 -24.382  0.00  0.00     0.019 A 
ATOM      9  C   UNL d   1      32.980  18.181 -24.494  0.00  0.00     0.015 A 
ENDROOT
BRANCH   1  10
ATOM     10  N   UNL d   1      32.919  20.740 -22.044  0.00  0.00    -0.183 NA
ATOM     11  C   UNL d   1      32.909  20.636 -21.228  0.00  0.00     0.288 C 
ATOM     12  O   UNL d   1      32.891  19.875 -20.912  0.00  0.00    -0.265 OA
BRANCH  11  13
ATOM     13  C   UNL d   1      32.918  21.292 -20.727  0.00  0.00     0.098 A 
ATOM     14  S   UNL d   1      32.778  22.066 -20.948  0.00  0.00    -0.081 SA
ATOM     15  C   UNL d   1      32.841  22.542 -20.282  0.00  0.00     0.030 A 
ATOM     16  C   UNL d   1      32.755  23.361 -20.179  0.00  0.00     0.006 A 
ATOM     17  C   UNL d   1      33.022  22.065 -19.634  0.00  0.00     0.017 A 
ATOM     18  C   UNL d   1      32.851  23.702 -19.426  0.00  0.00     0.001 A 
ATOM     19  C   UNL d   1      33.035  23.205 -18.779  0.00  0.00     0.000 A 
ATOM     20  C   UNL d   1      33.118  22.403 -18.884  0.00  0.00     0.001 A 
ATOM     21  C   UNL d   1      33.071  21.280 -19.912  0.00  0.00     0.069 A 
ATOM     22 CL   UNL d   1      33.241  20.619 -19.454  0.00  0.00    -0.082 Cl
ENDBRANCH  11  13
ENDBRANCH   1  10
BRANCH   2  23
ATOM     23  C   UNL d   1      33.241  20.749 -23.804  0.00  0.00     0.108 C 
BRANCH  23  24
ATOM     24  C   UNL d   1      32.646  21.167 -24.189  0.00  0.00     0.135 C 
BRANCH  24  25
ATOM     25  O   UNL d   1      32.831  21.681 -24.802  0.00  0.00    -0.325 OA
ATOM     26  C   UNL d   1      32.550  22.460 -24.800  0.00  0.00     0.182 C 
ENDBRANCH  24  25
ENDBRANCH  23  24
ENDBRANCH   2  23
BRANCH   6  27
ATOM     27  S   UNL d   1      32.689  16.874 -23.973  0.00  0.00     0.302 S 
ATOM     28  O   UNL d   1      33.138  16.691 -23.300  0.00  0.00    -0.197 OA
ATOM     29  O   UNL d   1      32.244  17.058 -24.639  0.00  0.00    -0.197 OA
ATOM     30  N   UNL d   1      32.573  16.070 -24.112  0.00  0.00    -0.043 N 
ENDBRANCH   6  27
TORSDOF 6
ENDMDL
