MODEL 1
REMARK VINA RESULT:      -7.5      0.000      0.000
REMARK  7 active torsions:
REMARK  status: ('A' for Active; 'I' for Inactive)
REMARK    1  A    between atoms: C_25  and  N_5 
REMARK    2  A    between atoms: C_11  and  C_6 
REMARK       I    between atoms: N_19  and  C_11 
REMARK    3  A    between atoms: N_15  and  C_28 
REMARK    4  A    between atoms: C_27  and  N_19 
REMARK    5  A    between atoms: C_26  and  C_25 
REMARK    6  A    between atoms: C_28  and  C_26 
REMARK    7  A    between atoms: C_29  and  C_27 
ROOT
ATOM      1  C   UNL d   1      52.331  33.230  53.761  0.00  0.00     0.155 A 
ATOM      2  C   UNL d   1      52.384  34.040  53.613  0.00  0.00     0.091 A 
ATOM      3  N   UNL d   1      52.914  32.857  54.209  0.00  0.00    -0.210 NA
ATOM      4  N   UNL d   1      53.596  34.098  54.357  0.00  0.00    -0.258 N 
ATOM      5  N   UNL d   1      51.699  32.794  53.464  0.00  0.00    -0.274 N 
ATOM      6  C   UNL d   1      51.165  33.986  52.862  0.00  0.00     0.094 A 
ATOM      7  C   UNL d   1      53.021  34.476  53.913  0.00  0.00     0.269 A 
ATOM      8  C   UNL d   1      51.111  33.166  53.013  0.00  0.00     0.175 A 
ATOM      9  C   UNL d   1      53.538  33.289  54.503  0.00  0.00     0.152 A 
ATOM     10  C   UNL d   1      51.801  34.422  53.163  0.00  0.00     0.016 A 
ATOM     11  C   UNL d   1      54.235  34.525  54.661  0.00  0.00     0.084 A 
ATOM     12  C   UNL d   1      54.120  32.906  54.953  0.00  0.00     0.038 A 
ATOM     13  N   UNL d   1      50.479  32.731  52.715  0.00  0.00    -0.128 N 
ATOM     14  C   UNL d   1      54.811  34.147  55.106  0.00  0.00     0.018 A 
ATOM     15  C   UNL d   1      54.753  33.338  55.252  0.00  0.00     0.005 A 
ATOM     16  O   UNL d   1      53.074  35.286  53.765  0.00  0.00    -0.266 OA
ATOM     17  C   UNL d   1      55.442  34.568  55.406  0.00  0.00     0.002 C 
ENDROOT
BRANCH   6  18
ATOM     18  C   UNL d   1      50.589  34.359  52.419  0.00  0.00     0.282 C 
ATOM     19  N   UNL d   1      49.947  34.730  52.798  0.00  0.00    -0.206 NA
ATOM     20  O   UNL d   1      50.636  34.376  51.595  0.00  0.00    -0.265 OA
BRANCH  19  21
ATOM     21  C   UNL d   1      49.368  35.106  52.353  0.00  0.00     0.102 C 
BRANCH  21  22
ATOM     22  C   UNL d   1      48.731  35.484  52.733  0.00  0.00     0.019 A 
ATOM     23  C   UNL d   1      48.033  35.618  52.314  0.00  0.00     0.002 A 
ATOM     24  C   UNL d   1      47.393  35.994  52.682  0.00  0.00     0.000 A 
ATOM     25  C   UNL d   1      47.458  36.235  53.473  0.00  0.00     0.000 A 
ATOM     26  C   UNL d   1      48.168  36.094  53.889  0.00  0.00     0.000 A 
ATOM     27  C   UNL d   1      48.800  35.720  53.516  0.00  0.00     0.002 A 
ENDBRANCH  21  22
ENDBRANCH  19  21
ENDBRANCH   6  18
BRANCH   5  28
ATOM     28  C   UNL d   1      51.649  31.984  53.614  0.00  0.00     0.085 C 
BRANCH  28  29
ATOM     29  C   UNL d   1      52.072  31.452  53.148  0.00  0.00     0.038 C 
BRANCH  29  30
ATOM     30  C   UNL d   1      51.897  30.642  53.178  0.00  0.00     0.083 C 
BRANCH  30  31
ATOM     31  N   UNL d   1      52.492  30.097  53.344  0.00  0.00    -0.285 N 
ATOM     32  C   UNL d   1      52.508  29.589  53.986  0.00  0.00     0.183 A 
ATOM     33  N   UNL d   1      53.219  29.139  53.925  0.00  0.00    -0.222 NA
ATOM     34  C   UNL d   1      53.613  29.378  53.261  0.00  0.00     0.120 A 
ATOM     35  C   UNL d   1      53.168  29.971  52.896  0.00  0.00     0.102 A 
ENDBRANCH  30  31
ENDBRANCH  29  30
ENDBRANCH  28  29
ENDBRANCH   5  28
TORSDOF 7
ENDMDL
MODEL 2
REMARK VINA RESULT:      -5.5     14.806     16.094
REMARK  7 active torsions:
REMARK  status: ('A' for Active; 'I' for Inactive)
REMARK    1  A    between atoms: C_25  and  N_5 
REMARK    2  A    between atoms: C_11  and  C_6 
REMARK       I    between atoms: N_19  and  C_11 
REMARK    3  A    between atoms: N_15  and  C_28 
REMARK    4  A    between atoms: C_27  and  N_19 
REMARK    5  A    between atoms: C_26  and  C_25 
REMARK    6  A    between atoms: C_28  and  C_26 
REMARK    7  A    between atoms: C_29  and  C_27 
ROOT
ATOM      1  C   UNL d   1      45.727  25.686  67.022  0.00  0.00     0.155 A 
ATOM      2  C   UNL d   1      45.140  25.555  66.458  0.00  0.00     0.091 A 
ATOM      3  N   UNL d   1      46.076  25.046  67.407  0.00  0.00    -0.210 NA
ATOM      4  N   UNL d   1      45.254  24.151  66.665  0.00  0.00    -0.258 N 
ATOM      5  N   UNL d   1      45.965  26.454  67.203  0.00  0.00    -0.274 N 
ATOM      6  C   UNL d   1      45.021  26.967  66.246  0.00  0.00     0.094 A 
ATOM      7  C   UNL d   1      44.902  24.782  66.279  0.00  0.00     0.269 A 
ATOM      8  C   UNL d   1      45.615  27.100  66.818  0.00  0.00     0.175 A 
ATOM      9  C   UNL d   1      45.840  24.288  67.228  0.00  0.00     0.152 A 
ATOM     10  C   UNL d   1      44.784  26.194  66.067  0.00  0.00     0.016 A 
ATOM     11  C   UNL d   1      45.024  23.376  66.492  0.00  0.00     0.084 A 
ATOM     12  C   UNL d   1      46.197  23.649  67.619  0.00  0.00     0.038 A 
ATOM     13  N   UNL d   1      45.853  27.868  66.998  0.00  0.00    -0.128 N 
ATOM     14  C   UNL d   1      45.376  22.745  66.879  0.00  0.00     0.018 A 
ATOM     15  C   UNL d   1      45.962  22.881  67.442  0.00  0.00     0.005 A 
ATOM     16  O   UNL d   1      44.315  24.650  65.714  0.00  0.00    -0.266 OA
ATOM     17  C   UNL d   1      45.148  21.979  66.709  0.00  0.00     0.002 C 
ENDROOT
BRANCH   6  18
ATOM     18  C   UNL d   1      44.673  27.598  65.863  0.00  0.00     0.282 C 
ATOM     19  N   UNL d   1      44.666  27.628  65.031  0.00  0.00    -0.206 NA
ATOM     20  O   UNL d   1      44.324  28.212  66.291  0.00  0.00    -0.265 OA
BRANCH  19  21
ATOM     21  C   UNL d   1      44.316  28.262  64.644  0.00  0.00     0.102 C 
BRANCH  21  22
ATOM     22  C   UNL d   1      44.449  28.380  63.832  0.00  0.00     0.019 A 
ATOM     23  C   UNL d   1      44.562  27.725  63.342  0.00  0.00     0.002 A 
ATOM     24  C   UNL d   1      44.695  27.830  62.530  0.00  0.00     0.000 A 
ATOM     25  C   UNL d   1      44.715  28.597  62.214  0.00  0.00     0.000 A 
ATOM     26  C   UNL d   1      44.600  29.252  62.718  0.00  0.00     0.000 A 
ATOM     27  C   UNL d   1      44.468  29.140  63.523  0.00  0.00     0.002 A 
ENDBRANCH  21  22
ENDBRANCH  19  21
ENDBRANCH   6  18
BRANCH   5  28
ATOM     28  C   UNL d   1      46.553  26.582  67.768  0.00  0.00     0.085 C 
BRANCH  28  29
ATOM     29  C   UNL d   1      47.327  26.730  67.530  0.00  0.00     0.038 C 
BRANCH  29  30
ATOM     30  C   UNL d   1      47.744  27.375  67.844  0.00  0.00     0.083 C 
BRANCH  30  31
ATOM     31  N   UNL d   1      48.568  27.370  67.852  0.00  0.00    -0.285 N 
ATOM     32  C   UNL d   1      49.042  26.707  67.791  0.00  0.00     0.183 A 
ATOM     33  N   UNL d   1      49.842  26.972  67.825  0.00  0.00    -0.222 NA
ATOM     34  C   UNL d   1      49.837  27.777  67.904  0.00  0.00     0.120 A 
ATOM     35  C   UNL d   1      49.050  28.030  67.921  0.00  0.00     0.102 A 
ENDBRANCH  30  31
ENDBRANCH  29  30
ENDBRANCH  28  29
ENDBRANCH   5  28
TORSDOF 7
ENDMDL
