MODEL 1
REMARK VINA RESULT:      -3.7      0.000      0.000
REMARK  5 active torsions:
REMARK  status: ('A' for Active; 'I' for Inactive)
REMARK    1  A    between atoms: N_8  and  C_2 
REMARK    2  A    between atoms: S_5  and  C_13 
REMARK    3  A    between atoms: C_17  and  S_5 
REMARK       I    between atoms: C_9  and  N_8 
REMARK    4  A    between atoms: C_12  and  C_9 
REMARK    5  A    between atoms: C_13  and  C_12 
ROOT
ATOM      1  N   UNL d   1      32.962  19.683 -21.743  0.00  0.00    -0.183 NA
ATOM      2  C   UNL d   1      33.022  19.498 -22.549  0.00  0.00     0.282 C 
ATOM      3  O   UNL d   1      33.031  20.116 -23.110  0.00  0.00    -0.265 OA
ENDROOT
BRANCH   1   4
ATOM      4  C   UNL d   1      32.912  20.455 -21.495  0.00  0.00     0.197 A 
ATOM      5  S   UNL d   1      33.064  20.724 -20.739  0.00  0.00    -0.044 SA
ATOM      6  C   UNL d   1      32.943  21.546 -20.742  0.00  0.00     0.088 A 
ATOM      7  C   UNL d   1      32.718  21.781 -21.494  0.00  0.00     0.089 A 
ATOM      8  C   UNL d   1      33.015  22.116 -20.130  0.00  0.00     0.199 A 
ATOM      9  N   UNL d   1      32.701  21.103 -21.952  0.00  0.00    -0.221 NA
ATOM     10  C   UNL d   1      32.561  22.572 -21.659  0.00  0.00    -0.003 A 
ATOM     11  C   UNL d   1      32.629  23.133 -21.067  0.00  0.00     0.042 A 
ATOM     12  C   UNL d   1      32.855  22.906 -20.307  0.00  0.00     0.020 A 
ATOM     13  C   UNL d   1      32.403  23.371 -21.821  0.00  0.00     0.009 C 
ATOM     14  C   UNL d   1      32.696  23.702 -20.472  0.00  0.00     0.009 C 
ATOM     15  O   UNL d   1      33.240  21.886 -19.373  0.00  0.00    -0.286 OA
ENDBRANCH   1   4
BRANCH   2  16
ATOM     16  C   UNL d   1      33.072  18.725 -22.797  0.00  0.00     0.075 C 
BRANCH  16  17
ATOM     17  C   UNL d   1      32.727  18.514 -23.420  0.00  0.00     0.104 C 
BRANCH  17  18
ATOM     18  S   UNL d   1      32.554  17.740 -23.689  0.00  0.00     0.211 S 
ATOM     19  O   UNL d   1      33.180  17.434 -23.233  0.00  0.00    -0.217 OA
ATOM     20  O   UNL d   1      31.921  18.054 -24.150  0.00  0.00    -0.217 OA
BRANCH  18  21
ATOM     21  C   UNL d   1      32.378  16.978 -23.959  0.00  0.00     0.088 A 
ATOM     22  C   UNL d   1      31.878  16.489 -23.521  0.00  0.00     0.011 A 
ATOM     23  C   UNL d   1      31.700  15.725 -23.790  0.00  0.00     0.001 A 
ATOM     24  C   UNL d   1      32.026  15.457 -24.498  0.00  0.00     0.000 A 
ATOM     25  C   UNL d   1      32.528  15.938 -24.944  0.00  0.00     0.001 A 
ATOM     26  C   UNL d   1      32.704  16.704 -24.672  0.00  0.00     0.011 A 
ENDBRANCH  18  21
ENDBRANCH  17  18
ENDBRANCH  16  17
ENDBRANCH   2  16
TORSDOF 5
ENDMDL
MODEL 2
REMARK VINA RESULT:      -3.3      1.029      5.958
REMARK  5 active torsions:
REMARK  status: ('A' for Active; 'I' for Inactive)
REMARK    1  A    between atoms: N_8  and  C_2 
REMARK    2  A    between atoms: S_5  and  C_13 
REMARK    3  A    between atoms: C_17  and  S_5 
REMARK       I    between atoms: C_9  and  N_8 
REMARK    4  A    between atoms: C_12  and  C_9 
REMARK    5  A    between atoms: C_13  and  C_12 
ROOT
ATOM      1  N   UNL d   1      32.829  18.893 -22.494  0.00  0.00    -0.183 NA
ATOM      2  C   UNL d   1      33.102  19.620 -22.784  0.00  0.00     0.282 C 
ATOM      3  O   UNL d   1      33.241  19.706 -23.602  0.00  0.00    -0.265 OA
ENDROOT
BRANCH   1   4
ATOM      4  C   UNL d   1      32.695  18.267 -22.996  0.00  0.00     0.197 A 
ATOM      5  S   UNL d   1      32.091  18.216 -23.544  0.00  0.00    -0.044 SA
ATOM      6  C   UNL d   1      32.171  17.484 -23.929  0.00  0.00     0.088 A 
ATOM      7  C   UNL d   1      32.819  17.089 -23.621  0.00  0.00     0.089 A 
ATOM      8  C   UNL d   1      31.715  17.130 -24.538  0.00  0.00     0.199 A 
ATOM      9  N   UNL d   1      33.136  17.578 -23.046  0.00  0.00    -0.221 NA
ATOM     10  C   UNL d   1      33.031  16.345 -23.901  0.00  0.00    -0.003 A 
ATOM     11  C   UNL d   1      32.591  15.993 -24.495  0.00  0.00     0.042 A 
ATOM     12  C   UNL d   1      31.937  16.383 -24.812  0.00  0.00     0.020 A 
ATOM     13  C   UNL d   1      33.241  15.594 -24.187  0.00  0.00     0.009 C 
ATOM     14  C   UNL d   1      32.149  15.634 -25.094  0.00  0.00     0.009 C 
ATOM     15  O   UNL d   1      31.063  17.522 -24.851  0.00  0.00    -0.286 OA
ENDBRANCH   1   4
BRANCH   2  16
ATOM     16  C   UNL d   1      33.236  20.245 -22.282  0.00  0.00     0.075 C 
BRANCH  16  17
ATOM     17  C   UNL d   1      32.685  20.718 -22.125  0.00  0.00     0.104 C 
BRANCH  17  18
ATOM     18  S   UNL d   1      32.693  21.387 -21.621  0.00  0.00     0.211 S 
ATOM     19  O   UNL d   1      32.191  20.997 -21.084  0.00  0.00    -0.217 OA
ATOM     20  O   UNL d   1      33.202  21.779 -22.169  0.00  0.00    -0.217 OA
BRANCH  18  21
ATOM     21  C   UNL d   1      32.705  22.051 -21.128  0.00  0.00     0.088 A 
ATOM     22  C   UNL d   1      33.016  21.996 -20.366  0.00  0.00     0.011 A 
ATOM     23  C   UNL d   1      33.029  22.660 -19.871  0.00  0.00     0.001 A 
ATOM     24  C   UNL d   1      32.730  23.377 -20.144  0.00  0.00     0.000 A 
ATOM     25  C   UNL d   1      32.416  23.445 -20.905  0.00  0.00     0.001 A 
ATOM     26  C   UNL d   1      32.404  22.776 -21.400  0.00  0.00     0.011 A 
ENDBRANCH  18  21
ENDBRANCH  17  18
ENDBRANCH  16  17
ENDBRANCH   2  16
TORSDOF 5
ENDMDL
