MODEL 1
REMARK VINA RESULT:      72.6      0.000      0.000
REMARK  4 active torsions:
REMARK  status: ('A' for Active; 'I' for Inactive)
REMARK    1  A    between atoms: C_12  and  C_2 
REMARK       I    between atoms: C_3  and  N_8 
REMARK    2  A    between atoms: C_5  and  C_3 
REMARK    3  A    between atoms: C_9  and  C_4 
REMARK    4  A    between atoms: N_8  and  C_13 
ROOT
ATOM      1  C   UNL d   1     -49.670  27.513  34.436  0.00  0.00     0.018 A 
ATOM      2  C   UNL d   1     -51.077  26.764  34.015  0.00  0.00     0.085 A 
ATOM      3  C   UNL d   1     -49.984  27.615  33.681  0.00  0.00     0.003 A 
ATOM      4  C   UNL d   1     -50.060  27.032  34.992  0.00  0.00     0.003 A 
ATOM      5  C   UNL d   1     -50.770  26.656  34.773  0.00  0.00     0.019 A 
ATOM      6  C   UNL d   1     -50.682  27.244  33.470  0.00  0.00     0.019 A 
ENDROOT
BRANCH   1   7
ATOM      7  C   UNL d   1     -48.959  27.892  34.649  0.00  0.00     0.088 A 
ATOM      8  N   UNL d   1     -48.857  28.694  34.783  0.00  0.00    -0.239 NA
ATOM      9  C   UNL d   1     -48.072  28.826  34.979  0.00  0.00     0.111 A 
ATOM     10  S   UNL d   1     -47.681  28.097  34.968  0.00  0.00    -0.066 SA
ATOM     11  C   UNL d   1     -48.231  27.525  34.765  0.00  0.00     0.056 A 
BRANCH   9  12
ATOM     12  C   UNL d   1     -47.727  29.558  35.158  0.00  0.00     0.024 A 
ATOM     13  C   UNL d   1     -47.433  30.034  34.551  0.00  0.00     0.002 A 
ATOM     14  C   UNL d   1     -47.087  30.771  34.738  0.00  0.00     0.000 A 
ATOM     15  C   UNL d   1     -47.041  31.019  35.523  0.00  0.00     0.000 A 
ATOM     16  C   UNL d   1     -47.339  30.537  36.135  0.00  0.00     0.000 A 
ATOM     17  C   UNL d   1     -47.680  29.811  35.952  0.00  0.00     0.002 A 
ENDBRANCH   9  12
ENDBRANCH   1   7
BRANCH   2  18
ATOM     18  N   UNL d   1     -51.785  26.387  33.800  0.00  0.00    -0.208 NA
ATOM     19  C   UNL d   1     -51.773  25.610  33.525  0.00  0.00     0.280 C 
ATOM     20  O   UNL d   1     -52.480  25.233  33.310  0.00  0.00    -0.265 OA
BRANCH  19  21
ATOM     21  C   UNL d   1     -51.051  25.197  33.460  0.00  0.00     0.069 A 
ATOM     22  C   UNL d   1     -51.061  24.380  33.418  0.00  0.00     0.062 A 
ATOM     23 CL   UNL d   1     -51.773  23.965  33.439  0.00  0.00    -0.082 Cl
ATOM     24  C   UNL d   1     -50.350  23.972  33.354  0.00  0.00     0.012 A 
ATOM     25  C   UNL d   1     -49.638  24.379  33.333  0.00  0.00     0.001 A 
ATOM     26  C   UNL d   1     -49.637  25.198  33.375  0.00  0.00     0.000 A 
ATOM     27  C   UNL d   1     -50.346  25.613  33.439  0.00  0.00     0.006 A 
ENDBRANCH  19  21
ENDBRANCH   2  18
TORSDOF 4
ENDMDL
