MODEL 1
REMARK VINA RESULT:      -4.7      0.000      0.000
REMARK  5 active torsions:
REMARK  status: ('A' for Active; 'I' for Inactive)
REMARK    1  A    between atoms: C_2  and  C_3 
REMARK    2  A    between atoms: S_14  and  C_6 
REMARK    3  A    between atoms: C_7  and  N_12 
REMARK       I    between atoms: N_12  and  C_13 
REMARK    4  A    between atoms: C_13  and  C_20 
REMARK    5  A    between atoms: C_20  and  S_14 
ROOT
ATOM      1  N   UNL d   1      58.234  -0.469  30.024  0.00  0.00    -0.208 NA
ATOM      2  C   UNL d   1      57.988   0.022  30.642  0.00  0.00     0.286 C 
ATOM      3  O   UNL d   1      58.459   0.673  30.849  0.00  0.00    -0.265 OA
ENDROOT
BRANCH   2   4
ATOM      4  C   UNL d   1      57.295  -0.134  31.037  0.00  0.00     0.099 C 
BRANCH   4   5
ATOM      5  S   UNL d   1      57.229   0.025  31.840  0.00  0.00    -0.061 SA
BRANCH   5   6
ATOM      6  C   UNL d   1      56.694  -0.395  32.307  0.00  0.00     0.133 A 
ATOM      7  C   UNL d   1      56.416  -0.065  33.013  0.00  0.00     0.143 A 
ATOM      8  C   UNL d   1      55.881  -0.485  33.480  0.00  0.00     0.185 A 
ATOM      9  N   UNL d   1      56.570   0.657  33.383  0.00  0.00    -0.219 NA
ATOM     10  N   UNL d   1      55.710  -0.020  34.135  0.00  0.00    -0.203 NA
ATOM     11  N   UNL d   1      55.625  -1.231  33.247  0.00  0.00    -0.203 NA
ATOM     12  C   UNL d   1      56.133   0.682  34.074  0.00  0.00     0.201 A 
ATOM     13  C   UNL d   1      55.899  -1.560  32.548  0.00  0.00     0.201 A 
ATOM     14  N   UNL d   1      56.435  -1.149  32.072  0.00  0.00    -0.216 NA
ENDBRANCH   5   6
ENDBRANCH   4   5
ENDBRANCH   2   4
BRANCH   1  15
ATOM     15  C   UNL d   1      58.940  -0.316  29.617  0.00  0.00     0.088 A 
ATOM     16  C   UNL d   1      59.282  -0.903  29.154  0.00  0.00     0.089 A 
ATOM     17  C   UNL d   1      59.981  -0.746  28.752  0.00  0.00     0.005 A 
ATOM     18  C   UNL d   1      60.340  -0.005  28.812  0.00  0.00     0.000 A 
ATOM     19  C   UNL d   1      59.995   0.583  29.277  0.00  0.00     0.002 A 
ATOM     20  C   UNL d   1      59.290   0.425  29.683  0.00  0.00     0.019 A 
BRANCH  16  21
ATOM     21  C   UNL d   1      58.926  -1.646  29.092  0.00  0.00     0.420 C 
ATOM     22  F   UNL d   1      58.604  -2.326  29.039  0.00  0.00    -0.166 F 
ATOM     23  F   UNL d   1      58.329  -1.921  28.540  0.00  0.00    -0.166 F 
ATOM     24  F   UNL d   1      59.062  -2.346  29.568  0.00  0.00    -0.166 F 
ENDBRANCH  16  21
ENDBRANCH   1  15
TORSDOF 5
ENDMDL
MODEL 2
REMARK VINA RESULT:      -4.5      1.954      4.726
REMARK  5 active torsions:
REMARK  status: ('A' for Active; 'I' for Inactive)
REMARK    1  A    between atoms: C_2  and  C_3 
REMARK    2  A    between atoms: S_14  and  C_6 
REMARK    3  A    between atoms: C_7  and  N_12 
REMARK       I    between atoms: N_12  and  C_13 
REMARK    4  A    between atoms: C_13  and  C_20 
REMARK    5  A    between atoms: C_20  and  S_14 
ROOT
ATOM      1  N   UNL d   1      57.061  -0.395  31.886  0.00  0.00    -0.208 NA
ATOM      2  C   UNL d   1      57.612   0.027  31.438  0.00  0.00     0.286 C 
ATOM      3  O   UNL d   1      57.992   0.681  31.779  0.00  0.00    -0.265 OA
ENDROOT
BRANCH   2   4
ATOM      4  C   UNL d   1      57.778  -0.200  30.674  0.00  0.00     0.099 C 
BRANCH   4   5
ATOM      5  S   UNL d   1      58.494   0.001  30.327  0.00  0.00    -0.061 SA
BRANCH   5   6
ATOM      6  C   UNL d   1      58.800  -0.451  29.708  0.00  0.00     0.133 A 
ATOM      7  C   UNL d   1      59.498  -0.215  29.331  0.00  0.00     0.143 A 
ATOM      8  C   UNL d   1      59.804  -0.668  28.712  0.00  0.00     0.185 A 
ATOM      9  N   UNL d   1      59.998   0.432  29.450  0.00  0.00    -0.219 NA
ATOM     10  N   UNL d   1      60.490  -0.297  28.455  0.00  0.00    -0.203 NA
ATOM     11  N   UNL d   1      59.417  -1.351  28.470  0.00  0.00    -0.203 NA
ATOM     12  C   UNL d   1      60.608   0.378  28.909  0.00  0.00     0.201 A 
ATOM     13  C   UNL d   1      58.726  -1.587  28.841  0.00  0.00     0.201 A 
ATOM     14  N   UNL d   1      58.410  -1.143  29.462  0.00  0.00    -0.216 NA
ENDBRANCH   5   6
ENDBRANCH   4   5
ENDBRANCH   2   4
BRANCH   1  15
ATOM     15  C   UNL d   1      56.888  -0.170  32.665  0.00  0.00     0.088 A 
ATOM     16  C   UNL d   1      56.306  -0.568  33.088  0.00  0.00     0.089 A 
ATOM     17  C   UNL d   1      56.139  -0.341  33.860  0.00  0.00     0.005 A 
ATOM     18  C   UNL d   1      56.550   0.283  34.210  0.00  0.00     0.000 A 
ATOM     19  C   UNL d   1      57.134   0.682  33.784  0.00  0.00     0.002 A 
ATOM     20  C   UNL d   1      57.303   0.453  33.006  0.00  0.00     0.019 A 
BRANCH  16  21
ATOM     21  C   UNL d   1      55.892  -1.194  32.740  0.00  0.00     0.420 C 
ATOM     22  F   UNL d   1      55.517  -1.767  32.426  0.00  0.00    -0.166 F 
ATOM     23  F   UNL d   1      55.159  -1.182  32.295  0.00  0.00    -0.166 F 
ATOM     24  F   UNL d   1      56.088  -2.028  32.735  0.00  0.00    -0.166 F 
ENDBRANCH  16  21
ENDBRANCH   1  15
TORSDOF 5
ENDMDL
MODEL 3
REMARK VINA RESULT:      -3.9      1.358      1.902
REMARK  5 active torsions:
REMARK  status: ('A' for Active; 'I' for Inactive)
REMARK    1  A    between atoms: C_2  and  C_3 
REMARK    2  A    between atoms: S_14  and  C_6 
REMARK    3  A    between atoms: C_7  and  N_12 
REMARK       I    between atoms: N_12  and  C_13 
REMARK    4  A    between atoms: C_13  and  C_20 
REMARK    5  A    between atoms: C_20  and  S_14 
ROOT
ATOM      1  N   UNL d   1      58.338  -0.557  30.470  0.00  0.00    -0.208 NA
ATOM      2  C   UNL d   1      57.679  -0.703  30.947  0.00  0.00     0.286 C 
ATOM      3  O   UNL d   1      57.214  -1.372  30.796  0.00  0.00    -0.265 OA
ENDROOT
BRANCH   2   4
ATOM      4  C   UNL d   1      57.495  -0.195  31.556  0.00  0.00     0.099 C 
BRANCH   4   5
ATOM      5  S   UNL d   1      56.829  -0.325  32.018  0.00  0.00    -0.061 SA
BRANCH   5   6
ATOM      6  C   UNL d   1      56.771   0.007  32.772  0.00  0.00     0.133 A 
ATOM      7  C   UNL d   1      56.048  -0.005  33.172  0.00  0.00     0.143 A 
ATOM      8  C   UNL d   1      55.990   0.327  33.926  0.00  0.00     0.185 A 
ATOM      9  N   UNL d   1      55.306  -0.303  32.964  0.00  0.00    -0.219 NA
ATOM     10  N   UNL d   1      55.214   0.232  34.176  0.00  0.00    -0.203 NA
ATOM     11  N   UNL d   1      56.650   0.669  34.278  0.00  0.00    -0.203 NA
ATOM     12  C   UNL d   1      54.794  -0.155  33.585  0.00  0.00     0.201 A 
ATOM     13  C   UNL d   1      57.368   0.682  33.883  0.00  0.00     0.201 A 
ATOM     14  N   UNL d   1      57.437   0.353  33.129  0.00  0.00    -0.216 NA
ENDBRANCH   5   6
ENDBRANCH   4   5
ENDBRANCH   2   4
BRANCH   1  15
ATOM     15  C   UNL d   1      58.532  -1.070  29.848  0.00  0.00     0.088 A 
ATOM     16  C   UNL d   1      59.046  -0.821  29.257  0.00  0.00     0.089 A 
ATOM     17  C   UNL d   1      59.235  -1.334  28.643  0.00  0.00     0.005 A 
ATOM     18  C   UNL d   1      58.912  -2.093  28.618  0.00  0.00     0.000 A 
ATOM     19  C   UNL d   1      58.396  -2.341  29.213  0.00  0.00     0.002 A 
ATOM     20  C   UNL d   1      58.205  -1.824  29.832  0.00  0.00     0.019 A 
BRANCH  16  21
ATOM     21  C   UNL d   1      59.371  -0.062  29.278  0.00  0.00     0.420 C 
ATOM     22  F   UNL d   1      59.673   0.629  29.299  0.00  0.00    -0.166 F 
ATOM     23  F   UNL d   1      59.039   0.682  29.008  0.00  0.00    -0.166 F 
ATOM     24  F   UNL d   1      60.136   0.185  29.577  0.00  0.00    -0.166 F 
ENDBRANCH  16  21
ENDBRANCH   1  15
TORSDOF 5
ENDMDL
MODEL 4
REMARK VINA RESULT:      -2.9      2.292      5.049
REMARK  5 active torsions:
REMARK  status: ('A' for Active; 'I' for Inactive)
REMARK    1  A    between atoms: C_2  and  C_3 
REMARK    2  A    between atoms: S_14  and  C_6 
REMARK    3  A    between atoms: C_7  and  N_12 
REMARK       I    between atoms: N_12  and  C_13 
REMARK    4  A    between atoms: C_13  and  C_20 
REMARK    5  A    between atoms: C_20  and  S_14 
ROOT
ATOM      1  N   UNL d   1      57.487   0.586  32.323  0.00  0.00    -0.208 NA
ATOM      2  C   UNL d   1      57.412   0.561  31.500  0.00  0.00     0.286 C 
ATOM      3  O   UNL d   1      56.655   0.495  31.168  0.00  0.00    -0.265 OA
ENDROOT
BRANCH   2   4
ATOM      4  C   UNL d   1      58.073   0.600  31.028  0.00  0.00     0.099 C 
BRANCH   4   5
ATOM      5  S   UNL d   1      58.134   0.127  30.359  0.00  0.00    -0.061 SA
BRANCH   5   6
ATOM      6  C   UNL d   1      58.844   0.086  29.939  0.00  0.00     0.133 A 
ATOM      7  C   UNL d   1      58.972  -0.534  29.408  0.00  0.00     0.143 A 
ATOM      8  C   UNL d   1      59.682  -0.575  28.988  0.00  0.00     0.185 A 
ATOM      9  N   UNL d   1      58.504  -1.179  29.187  0.00  0.00    -0.219 NA
ATOM     10  N   UNL d   1      59.646  -1.244  28.512  0.00  0.00    -0.203 NA
ATOM     11  N   UNL d   1      60.260  -0.001  29.096  0.00  0.00    -0.203 NA
ATOM     12  C   UNL d   1      58.922  -1.613  28.635  0.00  0.00     0.201 A 
ATOM     13  C   UNL d   1      60.135   0.615  29.622  0.00  0.00     0.201 A 
ATOM     14  N   UNL d   1      59.428   0.666  30.048  0.00  0.00    -0.216 NA
ENDBRANCH   5   6
ENDBRANCH   4   5
ENDBRANCH   2   4
BRANCH   1  15
ATOM     15  C   UNL d   1      56.818   0.547  32.811  0.00  0.00     0.088 A 
ATOM     16  C   UNL d   1      56.904   0.568  33.627  0.00  0.00     0.089 A 
ATOM     17  C   UNL d   1      56.238   0.529  34.107  0.00  0.00     0.005 A 
ATOM     18  C   UNL d   1      55.486   0.469  33.772  0.00  0.00     0.000 A 
ATOM     19  C   UNL d   1      55.401   0.448  32.951  0.00  0.00     0.002 A 
ATOM     20  C   UNL d   1      56.073   0.488  32.468  0.00  0.00     0.019 A 
BRANCH  16  21
ATOM     21  C   UNL d   1      57.656   0.628  33.967  0.00  0.00     0.420 C 
ATOM     22  F   UNL d   1      58.343   0.682  34.272  0.00  0.00    -0.166 F 
ATOM     23  F   UNL d   1      57.878   0.673  34.794  0.00  0.00    -0.166 F 
ATOM     24  F   UNL d   1      58.419   0.660  33.577  0.00  0.00    -0.166 F 
ENDBRANCH  16  21
ENDBRANCH   1  15
TORSDOF 5
ENDMDL
MODEL 5
REMARK VINA RESULT:      -1.7      9.270     10.179
REMARK  5 active torsions:
REMARK  status: ('A' for Active; 'I' for Inactive)
REMARK    1  A    between atoms: C_2  and  C_3 
REMARK    2  A    between atoms: S_14  and  C_6 
REMARK    3  A    between atoms: C_7  and  N_12 
REMARK       I    between atoms: N_12  and  C_13 
REMARK    4  A    between atoms: C_13  and  C_20 
REMARK    5  A    between atoms: C_20  and  S_14 
ROOT
ATOM      1  N   UNL d   1      59.292  -9.520  34.530  0.00  0.00    -0.208 NA
ATOM      2  C   UNL d   1      59.483  -9.541  33.726  0.00  0.00     0.286 C 
ATOM      3  O   UNL d   1      60.264  -9.389  33.494  0.00  0.00    -0.265 OA
ENDROOT
BRANCH   2   4
ATOM      4  C   UNL d   1      58.909  -9.711  33.174  0.00  0.00     0.099 C 
BRANCH   4   5
ATOM      5  S   UNL d   1      59.099  -9.750  32.376  0.00  0.00    -0.061 SA
BRANCH   5   6
ATOM      6  C   UNL d   1      58.503  -9.760  31.805  0.00  0.00     0.133 A 
ATOM      7  C   UNL d   1      58.702  -9.757  31.002  0.00  0.00     0.143 A 
ATOM      8  C   UNL d   1      58.107  -9.767  30.431  0.00  0.00     0.185 A 
ATOM      9  N   UNL d   1      59.432  -9.745  30.614  0.00  0.00    -0.219 NA
ATOM     10  N   UNL d   1      58.473  -9.761  29.696  0.00  0.00    -0.203 NA
ATOM     11  N   UNL d   1      57.317  -9.780  30.658  0.00  0.00    -0.203 NA
ATOM     12  C   UNL d   1      59.287  -9.747  29.810  0.00  0.00     0.201 A 
ATOM     13  C   UNL d   1      57.116  -9.783  31.452  0.00  0.00     0.201 A 
ATOM     14  N   UNL d   1      57.704  -9.773  32.033  0.00  0.00    -0.216 NA
ENDBRANCH   5   6
ENDBRANCH   4   5
ENDBRANCH   2   4
BRANCH   1  15
ATOM     15  C   UNL d   1      59.871  -9.348  35.098  0.00  0.00     0.088 A 
ATOM     16  C   UNL d   1      59.763  -8.721  35.617  0.00  0.00     0.089 A 
ATOM     17  C   UNL d   1      60.341  -8.555  36.179  0.00  0.00     0.005 A 
ATOM     18  C   UNL d   1      61.025  -9.014  36.221  0.00  0.00     0.000 A 
ATOM     19  C   UNL d   1      61.133  -9.643  35.698  0.00  0.00     0.002 A 
ATOM     20  C   UNL d   1      60.551  -9.811  35.132  0.00  0.00     0.019 A 
BRANCH  16  21
ATOM     21  C   UNL d   1      59.078  -8.259  35.579  0.00  0.00     0.420 C 
ATOM     22  F   UNL d   1      58.452  -7.841  35.547  0.00  0.00    -0.166 F 
ATOM     23  F   UNL d   1      58.895  -7.598  35.064  0.00  0.00    -0.166 F 
ATOM     24  F   UNL d   1      58.364  -8.321  36.048  0.00  0.00    -0.166 F 
ENDBRANCH  16  21
ENDBRANCH   1  15
TORSDOF 5
ENDMDL
