MODEL 1
REMARK VINA RESULT:      48.7      0.000      0.000
REMARK  1 active torsions:
REMARK  status: ('A' for Active; 'I' for Inactive)
REMARK    1  A    between atoms: C_11  and  C_2 
ROOT
ATOM      1  C   UNL d   1      14.003  13.467  -2.515  0.00  0.00     0.026 A 
ATOM      2  C   UNL d   1      14.370  13.613  -1.807  0.00  0.00     0.007 A 
ATOM      3  C   UNL d   1      13.894  14.069  -3.055  0.00  0.00     0.103 A 
ATOM      4  C   UNL d   1      14.635  14.365  -1.623  0.00  0.00     0.026 A 
ATOM      5  C   UNL d   1      13.738  12.704  -2.693  0.00  0.00     0.047 A 
ATOM      6  C   UNL d   1      14.525  14.971  -2.165  0.00  0.00     0.103 A 
ATOM      7  O   UNL d   1      14.150  14.824  -2.891  0.00  0.00    -0.307 OA
ATOM      8  C   UNL d   1      13.523  13.924  -3.772  0.00  0.00     0.070 A 
ATOM      9  C   UNL d   1      13.366  12.541  -3.404  0.00  0.00     0.234 A 
ATOM     10  C   UNL d   1      13.254  13.149  -3.953  0.00  0.00     0.236 A 
ATOM     11  C   UNL d   1      15.008  14.531  -0.911  0.00  0.00     0.047 A 
ATOM     12  C   UNL d   1      14.790  15.746  -1.994  0.00  0.00     0.070 A 
ATOM     13  C   UNL d   1      15.279  15.301  -0.725  0.00  0.00     0.234 A 
ATOM     14  C   UNL d   1      15.163  15.905  -1.279  0.00  0.00     0.236 A 
ATOM     15  O   UNL d   1      12.881  12.978  -4.661  0.00  0.00    -0.283 OA
ATOM     16  O   UNL d   1      13.111  11.779  -3.562  0.00  0.00    -0.283 OA
ATOM     17  O   UNL d   1      15.650  15.459  -0.014  0.00  0.00    -0.283 OA
ATOM     18  O   UNL d   1      15.421  16.671  -1.117  0.00  0.00    -0.283 OA
ENDROOT
BRANCH   2  19
ATOM     19  C   UNL d   1      14.480  13.007  -1.265  0.00  0.00     0.039 A 
ATOM     20  C   UNL d   1      15.161  12.525  -1.315  0.00  0.00     0.196 A 
ATOM     21  O   UNL d   1      15.717  12.646  -1.891  0.00  0.00    -0.287 OA
ATOM     22  C   UNL d   1      15.272  11.915  -0.768  0.00  0.00     0.042 A 
ATOM     23  C   UNL d   1      14.703  11.780  -0.166  0.00  0.00     0.003 A 
ATOM     24  C   UNL d   1      14.034  12.263  -0.127  0.00  0.00     0.000 A 
ATOM     25  C   UNL d   1      13.932  12.871  -0.679  0.00  0.00     0.003 A 
ENDBRANCH   2  19
TORSDOF 1
ENDMDL
