MODEL 1
REMARK VINA RESULT:      60.7      0.000      0.000
REMARK  4 active torsions:
REMARK  status: ('A' for Active; 'I' for Inactive)
REMARK    1  A    between atoms: C_7  and  N_1 
REMARK    2  A    between atoms: C_10  and  C_5 
REMARK    3  A    between atoms: N_6  and  C_9 
REMARK    4  A    between atoms: O_18  and  C_13 
ROOT
ATOM      1  N   UNL d   1     -50.691  26.302  33.957  0.00  0.00    -0.279 N 
ATOM      2  C   UNL d   1     -51.102  26.984  33.740  0.00  0.00     0.206 A 
ATOM      3  N   UNL d   1     -50.685  27.616  34.015  0.00  0.00    -0.217 NA
ATOM      4  C   UNL d   1     -50.021  26.538  34.367  0.00  0.00     0.101 A 
ATOM      5  C   UNL d   1     -50.038  27.341  34.390  0.00  0.00     0.101 A 
ATOM      6  S   UNL d   1     -51.828  27.001  33.307  0.00  0.00    -0.038 SA
ENDROOT
BRANCH   5   7
ATOM      7  C   UNL d   1     -49.439  27.747  34.765  0.00  0.00     0.019 A 
ATOM      8  C   UNL d   1     -49.076  27.635  35.489  0.00  0.00     0.003 A 
ATOM      9  C   UNL d   1     -48.461  28.147  35.742  0.00  0.00     0.024 A 
ATOM     10  C   UNL d   1     -48.223  28.763  35.263  0.00  0.00     0.127 A 
ATOM     11  C   UNL d   1     -48.598  28.875  34.521  0.00  0.00     0.024 A 
ATOM     12  C   UNL d   1     -49.201  28.363  34.285  0.00  0.00     0.003 A 
BRANCH  10  13
ATOM     13  N   UNL d   1     -47.618  29.268  35.510  0.00  0.00    -0.114 N 
ATOM     14  O   UNL d   1     -46.862  29.178  35.216  0.00  0.00    -0.532 OA
ATOM     15  O   UNL d   1     -47.781  29.869  36.057  0.00  0.00    -0.532 OA
ENDBRANCH  10  13
ENDBRANCH   5   7
BRANCH   1  16
ATOM     16  C   UNL d   1     -50.976  25.541  33.755  0.00  0.00     0.088 A 
ATOM     17  C   UNL d   1     -50.456  24.950  33.505  0.00  0.00     0.110 A 
ATOM     18  C   UNL d   1     -50.737  24.220  33.312  0.00  0.00     0.026 A 
ATOM     19  C   UNL d   1     -51.550  24.045  33.358  0.00  0.00     0.002 A 
ATOM     20  C   UNL d   1     -52.083  24.627  33.607  0.00  0.00     0.002 A 
ATOM     21  C   UNL d   1     -51.778  25.388  33.807  0.00  0.00     0.020 A 
BRANCH  17  22
ATOM     22  O   UNL d   1     -49.620  25.141  33.460  0.00  0.00    -0.327 OA
ATOM     23  C   UNL d   1     -49.082  24.516  33.307  0.00  0.00     0.181 C 
ENDBRANCH  17  22
ENDBRANCH   1  16
TORSDOF 4
ENDMDL
