MODEL 1
REMARK VINA RESULT:      -4.0      0.000      0.000
REMARK  6 active torsions:
REMARK  status: ('A' for Active; 'I' for Inactive)
REMARK    1  A    between atoms: C_2  and  S_1 
REMARK    2  A    between atoms: N_10  and  S_1 
REMARK    3  A    between atoms: O_16  and  C_7 
REMARK    4  A    between atoms: C_13  and  N_10 
REMARK    5  A    between atoms: N_11  and  C_17 
REMARK    6  A    between atoms: C_17  and  C_13 
ROOT
ATOM      1  S   UNL d   1     -41.643-122.667 -51.462  0.00  0.00     0.286 S 
ATOM      2  O   UNL d   1     -41.795-123.458 -51.661  0.00  0.00    -0.198 OA
ATOM      3  O   UNL d   1     -41.494-121.890 -51.267  0.00  0.00    -0.198 OA
ENDROOT
BRANCH   1   4
ATOM      4  C   UNL d   1     -42.026-122.775 -50.741  0.00  0.00     0.117 A 
ATOM      5  C   UNL d   1     -42.675-122.303 -50.543  0.00  0.00     0.027 A 
ATOM      6  C   UNL d   1     -43.059-122.411 -49.821  0.00  0.00     0.081 A 
ATOM      7 CL   UNL d   1     -43.712-121.938 -49.621  0.00  0.00    -0.080 Cl
ATOM      8  C   UNL d   1     -42.794-122.990 -49.296  0.00  0.00     0.105 A 
ATOM      9  C   UNL d   1     -42.152-123.454 -49.495  0.00  0.00     0.037 A 
ATOM     10  C   UNL d   1     -41.768-123.346 -50.217  0.00  0.00     0.072 A 
ATOM     11 CL   UNL d   1     -41.123-123.817 -50.411  0.00  0.00    -0.082 Cl
BRANCH   8  12
ATOM     12  O   UNL d   1     -43.178-123.098 -48.573  0.00  0.00    -0.327 OA
ATOM     13  C   UNL d   1     -42.772-123.430 -47.936  0.00  0.00     0.181 C 
ENDBRANCH   8  12
ENDBRANCH   1   4
BRANCH   1  14
ATOM     14  N   UNL d   1     -41.259-122.559 -52.184  0.00  0.00    -0.155 NA
BRANCH  14  15
ATOM     15  C   UNL d   1     -41.687-122.563 -52.878  0.00  0.00     0.131 C 
BRANCH  15  16
ATOM     16  C   UNL d   1     -41.300-122.474 -53.602  0.00  0.00     0.102 C 
BRANCH  16  17
ATOM     17  N   UNL d   1     -41.734-122.304 -54.283  0.00  0.00    -0.298 N 
ATOM     18  C   UNL d   1     -41.684-122.803 -54.938  0.00  0.00     0.107 A 
ATOM     19  C   UNL d   1     -42.118-122.632 -55.619  0.00  0.00     0.142 A 
ATOM     20  O   UNL d   1     -42.604-121.961 -55.647  0.00  0.00    -0.300 OA
ATOM     21  C   UNL d   1     -42.654-121.463 -54.992  0.00  0.00     0.142 A 
ATOM     22  C   UNL d   1     -42.217-121.635 -54.308  0.00  0.00     0.107 A 
ENDBRANCH  16  17
ENDBRANCH  15  16
ENDBRANCH  14  15
ENDBRANCH   1  14
TORSDOF 6
ENDMDL
