MODEL 1
REMARK VINA RESULT:      -8.9      0.000      0.000
REMARK  3 active torsions:
REMARK  status: ('A' for Active; 'I' for Inactive)
REMARK    1  A    between atoms: C_4  and  C_1 
REMARK    2  A    between atoms: C_12  and  N_3 
REMARK    3  A    between atoms: C_14  and  C_7 
ROOT
ATOM      1  N   UNL d   1     -47.829  12.405  22.603  0.00  0.00    -0.165 NA
ATOM      2  N   UNL d   1     -48.469  12.903  22.608  0.00  0.00    -0.230 N 
ATOM      3  C   UNL d   1     -47.169  12.798  22.813  0.00  0.00     0.108 A 
ATOM      4  C   UNL d   1     -48.183  13.669  22.840  0.00  0.00     0.084 A 
ATOM      5  C   UNL d   1     -47.374  13.603  22.968  0.00  0.00     0.040 A 
ENDROOT
BRANCH   3   6
ATOM      6  C   UNL d   1     -46.434  12.442  22.859  0.00  0.00     0.083 A 
ATOM      7  C   UNL d   1     -45.776  12.818  22.519  0.00  0.00     0.302 A 
ATOM      8  O   UNL d   1     -45.027  12.456  22.564  0.00  0.00    -0.273 OA
ATOM      9  O   UNL d   1     -45.874  13.552  22.137  0.00  0.00    -0.259 OA
ATOM     10  C   UNL d   1     -44.937  11.733  22.941  0.00  0.00     0.103 A 
ATOM     11  C   UNL d   1     -45.595  11.357  23.281  0.00  0.00     0.023 A 
ATOM     12  C   UNL d   1     -44.200  11.387  22.980  0.00  0.00     0.025 A 
ATOM     13  C   UNL d   1     -46.336  11.707  23.240  0.00  0.00     0.009 A 
ATOM     14  C   UNL d   1     -45.509  10.638  23.657  0.00  0.00     0.002 A 
ATOM     15  C   UNL d   1     -44.769  10.288  23.698  0.00  0.00     0.000 A 
ATOM     16  C   UNL d   1     -44.111  10.664  23.358  0.00  0.00     0.002 A 
ENDBRANCH   3   6
BRANCH   2  17
ATOM     17  C   UNL d   1     -49.233  12.680  22.419  0.00  0.00     0.083 A 
ATOM     18  C   UNL d   1     -49.736  12.401  23.011  0.00  0.00     0.019 A 
ATOM     19  C   UNL d   1     -50.512  12.172  22.828  0.00  0.00     0.002 A 
ATOM     20  C   UNL d   1     -50.778  12.228  22.035  0.00  0.00     0.000 A 
ATOM     21  C   UNL d   1     -50.275  12.507  21.443  0.00  0.00     0.002 A 
ATOM     22  C   UNL d   1     -49.492  12.737  21.633  0.00  0.00     0.019 A 
ENDBRANCH   2  17
BRANCH   4  23
ATOM     23  C   UNL d   1     -48.618  14.348  22.924  0.00  0.00     0.018 A 
ATOM     24  C   UNL d   1     -49.028  14.503  23.613  0.00  0.00     0.002 A 
ATOM     25  C   UNL d   1     -49.468  15.190  23.696  0.00  0.00     0.000 A 
ATOM     26  C   UNL d   1     -49.506  15.741  23.082  0.00  0.00     0.000 A 
ATOM     27  C   UNL d   1     -49.092  15.589  22.380  0.00  0.00     0.000 A 
ATOM     28  C   UNL d   1     -48.648  14.889  22.303  0.00  0.00     0.002 A 
ENDBRANCH   4  23
TORSDOF 3
ENDMDL
MODEL 2
REMARK VINA RESULT:      -8.6      0.923      2.474
REMARK  3 active torsions:
REMARK  status: ('A' for Active; 'I' for Inactive)
REMARK    1  A    between atoms: C_4  and  C_1 
REMARK    2  A    between atoms: C_12  and  N_3 
REMARK    3  A    between atoms: C_14  and  C_7 
ROOT
ATOM      1  N   UNL d   1     -47.477  13.755  22.722  0.00  0.00    -0.165 NA
ATOM      2  N   UNL d   1     -48.277  13.829  22.613  0.00  0.00    -0.230 N 
ATOM      3  C   UNL d   1     -47.229  13.036  22.483  0.00  0.00     0.108 A 
ATOM      4  C   UNL d   1     -48.548  13.096  22.279  0.00  0.00     0.084 A 
ATOM      5  C   UNL d   1     -47.896  12.603  22.199  0.00  0.00     0.040 A 
ENDROOT
BRANCH   3   6
ATOM      6  C   UNL d   1     -46.446  12.799  22.525  0.00  0.00     0.083 A 
ATOM      7  C   UNL d   1     -46.206  12.290  23.137  0.00  0.00     0.302 A 
ATOM      8  O   UNL d   1     -45.410  12.048  23.181  0.00  0.00    -0.273 OA
ATOM      9  O   UNL d   1     -46.765  12.030  23.698  0.00  0.00    -0.259 OA
ATOM     10  C   UNL d   1     -44.866  12.308  22.626  0.00  0.00     0.103 A 
ATOM     11  C   UNL d   1     -45.106  12.817  22.014  0.00  0.00     0.023 A 
ATOM     12  C   UNL d   1     -44.089  12.065  22.677  0.00  0.00     0.025 A 
ATOM     13  C   UNL d   1     -45.888  13.060  21.964  0.00  0.00     0.009 A 
ATOM     14  C   UNL d   1     -44.567  13.077  21.461  0.00  0.00     0.002 A 
ATOM     15  C   UNL d   1     -43.785  12.834  21.510  0.00  0.00     0.000 A 
ATOM     16  C   UNL d   1     -43.545  12.325  22.122  0.00  0.00     0.002 A 
ENDBRANCH   3   6
BRANCH   2  17
ATOM     17  C   UNL d   1     -48.711  14.496  22.800  0.00  0.00     0.083 A 
ATOM     18  C   UNL d   1     -48.717  15.139  22.283  0.00  0.00     0.019 A 
ATOM     19  C   UNL d   1     -49.154  15.820  22.465  0.00  0.00     0.002 A 
ATOM     20  C   UNL d   1     -49.590  15.845  23.181  0.00  0.00     0.000 A 
ATOM     21  C   UNL d   1     -49.585  15.202  23.698  0.00  0.00     0.002 A 
ATOM     22  C   UNL d   1     -49.141  14.517  23.509  0.00  0.00     0.019 A 
ENDBRANCH   2  17
BRANCH   4  23
ATOM     23  C   UNL d   1     -49.309  12.906  22.073  0.00  0.00     0.018 A 
ATOM     24  C   UNL d   1     -49.604  13.089  21.335  0.00  0.00     0.002 A 
ATOM     25  C   UNL d   1     -50.374  12.896  21.128  0.00  0.00     0.000 A 
ATOM     26  C   UNL d   1     -50.868  12.510  21.666  0.00  0.00     0.000 A 
ATOM     27  C   UNL d   1     -50.574  12.322  22.417  0.00  0.00     0.000 A 
ATOM     28  C   UNL d   1     -49.791  12.521  22.620  0.00  0.00     0.002 A 
ENDBRANCH   4  23
TORSDOF 3
ENDMDL
MODEL 3
REMARK VINA RESULT:      -7.4      8.718      9.703
REMARK  3 active torsions:
REMARK  status: ('A' for Active; 'I' for Inactive)
REMARK    1  A    between atoms: C_4  and  C_1 
REMARK    2  A    between atoms: C_12  and  N_3 
REMARK    3  A    between atoms: C_14  and  C_7 
ROOT
ATOM      1  N   UNL d   1     -38.646  14.137  19.417  0.00  0.00    -0.165 NA
ATOM      2  N   UNL d   1     -38.963  14.215  18.675  0.00  0.00    -0.230 N 
ATOM      3  C   UNL d   1     -39.028  14.609  19.933  0.00  0.00     0.108 A 
ATOM      4  C   UNL d   1     -39.595  14.781  18.734  0.00  0.00     0.084 A 
ATOM      5  C   UNL d   1     -39.634  15.026  19.518  0.00  0.00     0.040 A 
ENDROOT
BRANCH   3   6
ATOM      6  C   UNL d   1     -38.832  14.651  20.727  0.00  0.00     0.083 A 
ATOM      7  C   UNL d   1     -38.413  15.311  21.009  0.00  0.00     0.302 A 
ATOM      8  O   UNL d   1     -38.213  15.355  21.817  0.00  0.00    -0.273 OA
ATOM      9  O   UNL d   1     -38.199  15.919  20.481  0.00  0.00    -0.259 OA
ATOM     10  C   UNL d   1     -38.427  14.753  22.331  0.00  0.00     0.103 A 
ATOM     11  C   UNL d   1     -38.846  14.093  22.049  0.00  0.00     0.023 A 
ATOM     12  C   UNL d   1     -38.226  14.805  23.120  0.00  0.00     0.025 A 
ATOM     13  C   UNL d   1     -39.046  14.043  21.255  0.00  0.00     0.009 A 
ATOM     14  C   UNL d   1     -39.060  13.493  22.558  0.00  0.00     0.002 A 
ATOM     15  C   UNL d   1     -38.859  13.543  23.352  0.00  0.00     0.000 A 
ATOM     16  C   UNL d   1     -38.440  14.203  23.634  0.00  0.00     0.002 A 
ENDBRANCH   3   6
BRANCH   2  17
ATOM     17  C   UNL d   1     -38.702  13.810  18.014  0.00  0.00     0.083 A 
ATOM     18  C   UNL d   1     -38.934  13.027  17.895  0.00  0.00     0.019 A 
ATOM     19  C   UNL d   1     -38.674  12.609  17.228  0.00  0.00     0.002 A 
ATOM     20  C   UNL d   1     -38.172  12.993  16.676  0.00  0.00     0.000 A 
ATOM     21  C   UNL d   1     -37.940  13.776  16.795  0.00  0.00     0.002 A 
ATOM     22  C   UNL d   1     -38.206  14.193  17.470  0.00  0.00     0.019 A 
ENDBRANCH   2  17
BRANCH   4  23
ATOM     23  C   UNL d   1     -40.076  15.040  18.136  0.00  0.00     0.018 A 
ATOM     24  C   UNL d   1     -39.852  15.660  17.654  0.00  0.00     0.002 A 
ATOM     25  C   UNL d   1     -40.340  15.921  17.049  0.00  0.00     0.000 A 
ATOM     26  C   UNL d   1     -41.071  15.560  16.914  0.00  0.00     0.000 A 
ATOM     27  C   UNL d   1     -41.303  14.931  17.400  0.00  0.00     0.000 A 
ATOM     28  C   UNL d   1     -40.802  14.671  18.013  0.00  0.00     0.002 A 
ENDBRANCH   4  23
TORSDOF 3
ENDMDL
MODEL 4
REMARK VINA RESULT:      -7.1      8.664      9.910
REMARK  3 active torsions:
REMARK  status: ('A' for Active; 'I' for Inactive)
REMARK    1  A    between atoms: C_4  and  C_1 
REMARK    2  A    between atoms: C_12  and  N_3 
REMARK    3  A    between atoms: C_14  and  C_7 
ROOT
ATOM      1  N   UNL d   1     -39.462  14.920  19.395  0.00  0.00    -0.165 NA
ATOM      2  N   UNL d   1     -39.467  14.739  18.604  0.00  0.00    -0.230 N 
ATOM      3  C   UNL d   1     -38.829  14.594  19.751  0.00  0.00     0.108 A 
ATOM      4  C   UNL d   1     -38.780  14.260  18.458  0.00  0.00     0.084 A 
ATOM      5  C   UNL d   1     -38.384  14.170  19.172  0.00  0.00     0.040 A 
ENDROOT
BRANCH   3   6
ATOM      6  C   UNL d   1     -38.675  14.680  20.550  0.00  0.00     0.083 A 
ATOM      7  C   UNL d   1     -38.236  15.336  20.812  0.00  0.00     0.302 A 
ATOM      8  O   UNL d   1     -38.078  15.426  21.626  0.00  0.00    -0.273 OA
ATOM      9  O   UNL d   1     -37.962  15.895  20.259  0.00  0.00    -0.259 OA
ATOM     10  C   UNL d   1     -38.352  14.872  22.165  0.00  0.00     0.103 A 
ATOM     11  C   UNL d   1     -38.790  14.216  21.903  0.00  0.00     0.023 A 
ATOM     12  C   UNL d   1     -38.191  14.968  22.959  0.00  0.00     0.025 A 
ATOM     13  C   UNL d   1     -38.949  14.121  21.104  0.00  0.00     0.009 A 
ATOM     14  C   UNL d   1     -39.063  13.664  22.437  0.00  0.00     0.002 A 
ATOM     15  C   UNL d   1     -38.903  13.759  23.236  0.00  0.00     0.000 A 
ATOM     16  C   UNL d   1     -38.465  14.414  23.499  0.00  0.00     0.002 A 
ENDBRANCH   3   6
BRANCH   2  17
ATOM     17  C   UNL d   1     -40.040  14.985  18.075  0.00  0.00     0.083 A 
ATOM     18  C   UNL d   1     -40.736  14.551  17.993  0.00  0.00     0.019 A 
ATOM     19  C   UNL d   1     -41.322  14.794  17.459  0.00  0.00     0.002 A 
ATOM     20  C   UNL d   1     -41.196  15.487  17.003  0.00  0.00     0.000 A 
ATOM     21  C   UNL d   1     -40.499  15.922  17.085  0.00  0.00     0.002 A 
ATOM     22  C   UNL d   1     -39.911  15.671  17.626  0.00  0.00     0.019 A 
ENDBRANCH   2  17
BRANCH   4  23
ATOM     23  C   UNL d   1     -38.549  13.944  17.748  0.00  0.00     0.018 A 
ATOM     24  C   UNL d   1     -38.176  14.402  17.185  0.00  0.00     0.002 A 
ATOM     25  C   UNL d   1     -37.942  14.081  16.467  0.00  0.00     0.000 A 
ATOM     26  C   UNL d   1     -38.079  13.284  16.299  0.00  0.00     0.000 A 
ATOM     27  C   UNL d   1     -38.457  12.814  16.868  0.00  0.00     0.000 A 
ATOM     28  C   UNL d   1     -38.692  13.147  17.594  0.00  0.00     0.002 A 
ENDBRANCH   4  23
TORSDOF 3
ENDMDL
