MODEL 1
REMARK VINA RESULT:      35.8      0.000      0.000
REMARK  2 active torsions:
REMARK  status: ('A' for Active; 'I' for Inactive)
REMARK    1  A    between atoms: C_7  and  C_1 
REMARK    2  A    between atoms: O_15  and  C_11 
ROOT
ATOM      1  C   UNL d   1      14.195  13.700  -2.432  0.00  0.00     0.103 A 
ATOM      2  C   UNL d   1      14.164  14.521  -2.511  0.00  0.00     0.067 A 
ATOM      3  O   UNL d   1      14.567  13.376  -1.796  0.00  0.00    -0.307 OA
ATOM      4  C   UNL d   1      14.505  15.017  -1.954  0.00  0.00     0.200 A 
ATOM      5  C   UNL d   1      14.892  14.665  -1.293  0.00  0.00     0.062 A 
ATOM      6  C   UNL d   1      14.922  13.844  -1.214  0.00  0.00     0.103 A 
ATOM      7  O   UNL d   1      14.461  15.835  -2.054  0.00  0.00    -0.286 OA
ATOM      8  C   UNL d   1      15.235  15.162  -0.731  0.00  0.00     0.005 A 
ATOM      9  C   UNL d   1      15.297  13.520  -0.574  0.00  0.00     0.025 A 
ATOM     10  C   UNL d   1      15.608  14.806  -0.093  0.00  0.00     0.000 A 
ATOM     11  C   UNL d   1      15.639  13.986  -0.015  0.00  0.00     0.002 A 
ENDROOT
BRANCH   1  12
ATOM     12  C   UNL d   1      13.850  13.234  -2.996  0.00  0.00     0.023 A 
ATOM     13  C   UNL d   1      13.639  12.448  -2.829  0.00  0.00     0.004 A 
ATOM     14  C   UNL d   1      13.288  11.957  -3.388  0.00  0.00     0.024 A 
ATOM     15  C   UNL d   1      13.144  12.282  -4.155  0.00  0.00     0.094 A 
ATOM     16  C   UNL d   1      13.354  13.069  -4.322  0.00  0.00     0.024 A 
ATOM     17  C   UNL d   1      13.698  13.539  -3.765  0.00  0.00     0.004 A 
BRANCH  15  18
ATOM     18  O   UNL d   1      12.776  11.786  -4.757  0.00  0.00    -0.328 OA
ATOM     19  C   UNL d   1      13.100  11.795  -5.528  0.00  0.00     0.181 C 
ENDBRANCH  15  18
ENDBRANCH   1  12
TORSDOF 2
ENDMDL
