MODEL 1
REMARK VINA RESULT:      -0.6      0.000      0.000
REMARK  9 active torsions:
REMARK  status: ('A' for Active; 'I' for Inactive)
REMARK    1  A    between atoms: N_2  and  S_1 
REMARK    2  A    between atoms: C_12  and  S_1 
REMARK    3  A    between atoms: C_4  and  N_2 
REMARK    4  A    between atoms: N_6  and  C_8 
REMARK       I    between atoms: C_9  and  N_6 
REMARK    5  A    between atoms: O_22  and  C_7 
REMARK    6  A    between atoms: C_8  and  N_15 
REMARK    7  A    between atoms: C_16  and  C_9 
REMARK    8  A    between atoms: O_23  and  C_10 
REMARK    9  A    between atoms: N_15  and  C_21 
ROOT
ATOM      1  C   UNL d   1     -41.134-122.740 -51.132  0.00  0.00     0.105 A 
ATOM      2  C   UNL d   1     -41.138-121.944 -51.273  0.00  0.00     0.015 A 
ATOM      3  C   UNL d   1     -41.126-123.272 -51.758  0.00  0.00     0.015 A 
ATOM      4  C   UNL d   1     -41.127-122.194 -52.679  0.00  0.00     0.084 A 
ATOM      5  C   UNL d   1     -41.135-121.649 -52.030  0.00  0.00     0.020 A 
ATOM      6  C   UNL d   1     -41.123-122.996 -52.521  0.00  0.00     0.020 A 
ENDROOT
BRANCH   1   7
ATOM      7  S   UNL d   1     -41.137-123.037 -50.351  0.00  0.00     0.287 S 
ATOM      8  O   UNL d   1     -41.126-123.816 -50.662  0.00  0.00    -0.198 OA
ATOM      9  O   UNL d   1     -41.147-122.270 -50.056  0.00  0.00    -0.198 OA
BRANCH   7  10
ATOM     10  N   UNL d   1     -41.140-123.356 -49.582  0.00  0.00    -0.139 NA
BRANCH  10  11
ATOM     11  C   UNL d   1     -41.845-123.467 -49.160  0.00  0.00     0.182 A 
ATOM     12  N   UNL d   1     -41.836-123.484 -48.362  0.00  0.00    -0.185 NA
ATOM     13  C   UNL d   1     -42.532-123.594 -47.930  0.00  0.00     0.274 A 
ATOM     14  N   UNL d   1     -43.229-123.687 -48.312  0.00  0.00    -0.181 NA
ATOM     15  C   UNL d   1     -43.269-123.674 -49.128  0.00  0.00     0.185 A 
ATOM     16  C   UNL d   1     -42.532-123.558 -49.570  0.00  0.00     0.084 A 
BRANCH  13  17
ATOM     17  O   UNL d   1     -42.524-123.612 -47.087  0.00  0.00    -0.297 OA
ATOM     18  C   UNL d   1     -41.835-123.780 -46.676  0.00  0.00     0.185 C 
ENDBRANCH  13  17
BRANCH  15  19
ATOM     19  O   UNL d   1     -44.005-123.773 -49.491  0.00  0.00    -0.312 OA
ATOM     20  C   UNL d   1     -44.425-123.115 -49.756  0.00  0.00     0.183 C 
ENDBRANCH  15  19
ENDBRANCH  10  11
ENDBRANCH   7  10
ENDBRANCH   1   7
BRANCH   4  21
ATOM     21  N   UNL d   1     -41.123-121.932 -53.464  0.00  0.00    -0.217 NA
BRANCH  21  22
ATOM     22  C   UNL d   1     -41.808-121.939 -53.890  0.00  0.00     0.223 C 
ATOM     23  S   UNL d   1     -42.523-122.182 -53.533  0.00  0.00    -0.037 SA
BRANCH  22  24
ATOM     24  N   UNL d   1     -41.799-121.708 -54.672  0.00  0.00    -0.183 NA
ATOM     25  C   UNL d   1     -42.274-122.077 -55.227  0.00  0.00     0.257 C 
ATOM     26  O   UNL d   1     -42.779-122.708 -54.979  0.00  0.00    -0.270 OA
BRANCH  25  27
ATOM     27  C   UNL d   1     -42.265-121.843 -56.018  0.00  0.00     0.073 C 
ATOM     28  C   UNL d   1     -41.433-121.786 -55.991  0.00  0.00     0.009 C 
ATOM     29  C   UNL d   1     -43.095-121.900 -56.044  0.00  0.00     0.009 C 
ATOM     30  C   UNL d   1     -42.256-121.607 -56.815  0.00  0.00     0.009 C 
ENDBRANCH  25  27
ENDBRANCH  22  24
ENDBRANCH  21  22
ENDBRANCH   4  21
TORSDOF 9
ENDMDL
MODEL 2
REMARK VINA RESULT:       2.1      1.279      6.042
REMARK  9 active torsions:
REMARK  status: ('A' for Active; 'I' for Inactive)
REMARK    1  A    between atoms: N_2  and  S_1 
REMARK    2  A    between atoms: C_12  and  S_1 
REMARK    3  A    between atoms: C_4  and  N_2 
REMARK    4  A    between atoms: N_6  and  C_8 
REMARK       I    between atoms: C_9  and  N_6 
REMARK    5  A    between atoms: O_22  and  C_7 
REMARK    6  A    between atoms: C_8  and  N_15 
REMARK    7  A    between atoms: C_16  and  C_9 
REMARK    8  A    between atoms: O_23  and  C_10 
REMARK    9  A    between atoms: N_15  and  C_21 
ROOT
ATOM      1  C   UNL d   1     -41.422-122.891 -52.458  0.00  0.00     0.105 A 
ATOM      2  C   UNL d   1     -41.427-122.286 -51.921  0.00  0.00     0.015 A 
ATOM      3  C   UNL d   1     -41.565-123.662 -52.216  0.00  0.00     0.015 A 
ATOM      4  C   UNL d   1     -41.721-123.217 -50.879  0.00  0.00     0.084 A 
ATOM      5  C   UNL d   1     -41.573-122.422 -51.134  0.00  0.00     0.020 A 
ATOM      6  C   UNL d   1     -41.712-123.817 -51.433  0.00  0.00     0.020 A 
ENDROOT
BRANCH   1   7
ATOM      7  S   UNL d   1     -41.272-122.744 -53.267  0.00  0.00     0.287 S 
ATOM      8  O   UNL d   1     -41.308-123.570 -53.410  0.00  0.00    -0.198 OA
ATOM      9  O   UNL d   1     -41.238-121.937 -53.118  0.00  0.00    -0.198 OA
BRANCH   7  10
ATOM     10  N   UNL d   1     -41.123-122.622 -54.077  0.00  0.00    -0.139 NA
BRANCH  10  11
ATOM     11  C   UNL d   1     -41.680-122.258 -54.572  0.00  0.00     0.182 A 
ATOM     12  N   UNL d   1     -41.520-122.154 -55.346  0.00  0.00    -0.185 NA
ATOM     13  C   UNL d   1     -42.067-121.793 -55.851  0.00  0.00     0.274 A 
ATOM     14  N   UNL d   1     -42.771-121.541 -55.562  0.00  0.00    -0.181 NA
ATOM     15  C   UNL d   1     -42.962-121.634 -54.773  0.00  0.00     0.185 A 
ATOM     16  C   UNL d   1     -42.379-122.014 -54.255  0.00  0.00     0.084 A 
BRANCH  13  17
ATOM     17  O   UNL d   1     -41.900-121.682 -56.669  0.00  0.00    -0.297 OA
ATOM     18  C   UNL d   1     -41.897-120.933 -57.001  0.00  0.00     0.185 C 
ENDBRANCH  13  17
BRANCH  15  19
ATOM     19  O   UNL d   1     -43.696-121.363 -54.508  0.00  0.00    -0.312 OA
ATOM     20  C   UNL d   1     -44.271-121.901 -54.265  0.00  0.00     0.183 C 
ENDBRANCH  15  19
ENDBRANCH  10  11
ENDBRANCH   7  10
ENDBRANCH   1   7
BRANCH   4  21
ATOM     21  N   UNL d   1     -41.873-123.396 -50.085  0.00  0.00    -0.217 NA
BRANCH  21  22
ATOM     22  C   UNL d   1     -42.305-122.884 -49.636  0.00  0.00     0.223 C 
ATOM     23  S   UNL d   1     -42.975-122.504 -49.959  0.00  0.00    -0.037 SA
BRANCH  22  24
ATOM     24  N   UNL d   1     -42.085-122.740 -48.865  0.00  0.00    -0.183 NA
ATOM     25  C   UNL d   1     -42.438-123.139 -48.244  0.00  0.00     0.257 C 
ATOM     26  O   UNL d   1     -43.038-123.708 -48.411  0.00  0.00    -0.270 OA
BRANCH  25  27
ATOM     27  C   UNL d   1     -42.215-122.992 -47.463  0.00  0.00     0.073 C 
ATOM     28  C   UNL d   1     -42.866-122.477 -47.373  0.00  0.00     0.009 C 
ATOM     29  C   UNL d   1     -41.566-123.505 -47.552  0.00  0.00     0.009 C 
ATOM     30  C   UNL d   1     -41.990-122.844 -46.676  0.00  0.00     0.009 C 
ENDBRANCH  25  27
ENDBRANCH  22  24
ENDBRANCH  21  22
ENDBRANCH   4  21
TORSDOF 9
ENDMDL
