MODEL 1
REMARK VINA RESULT:      43.4      0.000      0.000
REMARK  5 active torsions:
REMARK  status: ('A' for Active; 'I' for Inactive)
REMARK    1  A    between atoms: C_7  and  N_2 
REMARK    2  A    between atoms: C_15  and  C_7 
REMARK    3  A    between atoms: C_8  and  O_14 
REMARK    4  A    between atoms: O_17  and  C_9 
REMARK    5  A    between atoms: O_14  and  C_15 
ROOT
ATOM      1  C   UNL d   1     -51.384  25.619  33.812  0.00  0.00     0.110 C 
ENDROOT
BRANCH   1   2
ATOM      2  N   UNL d   1     -51.504  24.821  33.627  0.00  0.00    -0.266 N 
ATOM      3  C   UNL d   1     -50.941  24.234  33.456  0.00  0.00     0.296 A 
ATOM      4  S   UNL d   1     -51.348  23.524  33.308  0.00  0.00    -0.025 SA
ATOM      5  O   UNL d   1     -50.123  24.344  33.437  0.00  0.00    -0.259 OA
ATOM      6  C   UNL d   1     -52.159  23.677  33.388  0.00  0.00     0.050 A 
ATOM      7  C   UNL d   1     -52.831  23.189  33.308  0.00  0.00     0.008 A 
ATOM      8  C   UNL d   1     -52.256  24.472  33.584  0.00  0.00     0.074 A 
ATOM      9  C   UNL d   1     -53.584  23.501  33.424  0.00  0.00     0.001 A 
ATOM     10  C   UNL d   1     -53.678  24.296  33.620  0.00  0.00     0.002 A 
ATOM     11  C   UNL d   1     -53.018  24.781  33.700  0.00  0.00     0.018 A 
ENDBRANCH   1   2
BRANCH   1  12
ATOM     12  C   UNL d   1     -50.678  25.988  33.611  0.00  0.00     0.142 C 
BRANCH  12  13
ATOM     13  O   UNL d   1     -50.635  26.821  33.584  0.00  0.00    -0.304 OA
BRANCH  13  14
ATOM     14  C   UNL d   1     -50.014  27.211  33.970  0.00  0.00     0.100 A 
ATOM     15  C   UNL d   1     -49.475  27.643  33.541  0.00  0.00     0.027 A 
ATOM     16  C   UNL d   1     -48.855  28.033  33.925  0.00  0.00     0.026 A 
ATOM     17  C   UNL d   1     -48.788  27.980  34.747  0.00  0.00     0.094 A 
ATOM     18  C   UNL d   1     -49.344  27.537  35.172  0.00  0.00     0.026 A 
ATOM     19  C   UNL d   1     -49.953  27.155  34.781  0.00  0.00     0.027 A 
BRANCH  17  20
ATOM     20  O   UNL d   1     -48.175  28.364  35.134  0.00  0.00    -0.328 OA
ATOM     21  C   UNL d   1     -48.079  29.179  35.050  0.00  0.00     0.181 C 
ENDBRANCH  17  20
ENDBRANCH  13  14
ENDBRANCH  12  13
ENDBRANCH   1  12
TORSDOF 5
ENDMDL
MODEL 2
REMARK VINA RESULT:      45.9      1.416      2.131
REMARK  5 active torsions:
REMARK  status: ('A' for Active; 'I' for Inactive)
REMARK    1  A    between atoms: C_7  and  N_2 
REMARK    2  A    between atoms: C_15  and  C_7 
REMARK    3  A    between atoms: C_8  and  O_14 
REMARK    4  A    between atoms: O_17  and  C_9 
REMARK    5  A    between atoms: O_14  and  C_15 
ROOT
ATOM      1  C   UNL d   1     -49.707  26.930  33.323  0.00  0.00     0.110 C 
ENDROOT
BRANCH   1   2
ATOM      2  N   UNL d   1     -50.213  26.276  33.318  0.00  0.00    -0.266 N 
ATOM      3  C   UNL d   1     -50.021  25.467  33.315  0.00  0.00     0.296 A 
ATOM      4  S   UNL d   1     -50.731  25.035  33.310  0.00  0.00    -0.025 SA
ATOM      5  O   UNL d   1     -49.257  25.154  33.317  0.00  0.00    -0.259 OA
ATOM      6  C   UNL d   1     -51.357  25.578  33.310  0.00  0.00     0.050 A 
ATOM      7  C   UNL d   1     -52.186  25.479  33.306  0.00  0.00     0.008 A 
ATOM      8  C   UNL d   1     -51.040  26.340  33.314  0.00  0.00     0.074 A 
ATOM      9  C   UNL d   1     -52.681  26.136  33.306  0.00  0.00     0.001 A 
ATOM     10  C   UNL d   1     -52.361  26.897  33.311  0.00  0.00     0.002 A 
ATOM     11  C   UNL d   1     -51.545  27.000  33.315  0.00  0.00     0.018 A 
ENDBRANCH   1   2
BRANCH   1  12
ATOM     12  C   UNL d   1     -49.471  27.265  34.035  0.00  0.00     0.142 C 
BRANCH  12  13
ATOM     13  O   UNL d   1     -48.661  27.395  34.188  0.00  0.00    -0.304 OA
BRANCH  13  14
ATOM     14  C   UNL d   1     -48.428  28.057  34.626  0.00  0.00     0.100 A 
ATOM     15  C   UNL d   1     -48.168  27.969  35.392  0.00  0.00     0.027 A 
ATOM     16  C   UNL d   1     -47.935  28.631  35.831  0.00  0.00     0.026 A 
ATOM     17  C   UNL d   1     -47.970  29.382  35.485  0.00  0.00     0.094 A 
ATOM     18  C   UNL d   1     -48.237  29.457  34.705  0.00  0.00     0.026 A 
ATOM     19  C   UNL d   1     -48.465  28.795  34.280  0.00  0.00     0.027 A 
BRANCH  17  20
ATOM     20  O   UNL d   1     -47.741  30.042  35.914  0.00  0.00    -0.328 OA
ATOM     21  C   UNL d   1     -47.219  30.589  35.585  0.00  0.00     0.181 C 
ENDBRANCH  17  20
ENDBRANCH  13  14
ENDBRANCH  12  13
ENDBRANCH   1  12
TORSDOF 5
ENDMDL
