MODEL 1
REMARK VINA RESULT:      47.2      0.000      0.000
REMARK  6 active torsions:
REMARK  status: ('A' for Active; 'I' for Inactive)
REMARK    1  A    between atoms: N_2  and  S_1 
REMARK    2  A    between atoms: C_4  and  S_1 
REMARK    3  A    between atoms: C_3  and  N_2 
REMARK    4  A    between atoms: N_7  and  C_3 
REMARK    5  A    between atoms: C_11  and  N_7 
REMARK    6  A    between atoms: C_15  and  C_14 
ROOT
ATOM      1  S   UNL d   1      59.437  49.399  50.736  0.00  0.00     0.287 S 
ATOM      2  O   UNL d   1      59.164  49.120  51.463  0.00  0.00    -0.198 OA
ATOM      3  O   UNL d   1      59.710  49.679  50.005  0.00  0.00    -0.198 OA
ENDROOT
BRANCH   1   4
ATOM      4  N   UNL d   1      60.219  49.322  51.000  0.00  0.00    -0.128 NA
BRANCH   4   5
ATOM      5  C   UNL d   1      60.853  48.831  51.194  0.00  0.00     0.232 C 
ATOM      6  S   UNL d   1      61.082  48.738  51.981  0.00  0.00    -0.036 SA
BRANCH   5   7
ATOM      7  N   UNL d   1      61.257  48.434  50.596  0.00  0.00    -0.217 NA
BRANCH   7   8
ATOM      8  C   UNL d   1      61.281  47.607  50.604  0.00  0.00     0.084 A 
ATOM      9  C   UNL d   1      61.418  47.200  49.902  0.00  0.00     0.019 A 
ATOM     10  C   UNL d   1      61.443  46.378  49.902  0.00  0.00     0.002 A 
ATOM     11  C   UNL d   1      61.333  45.965  50.598  0.00  0.00     0.000 A 
ATOM     12  C   UNL d   1      61.197  46.378  51.300  0.00  0.00     0.002 A 
ATOM     13  C   UNL d   1      61.171  47.194  51.301  0.00  0.00     0.019 A 
ENDBRANCH   7   8
ENDBRANCH   5   7
ENDBRANCH   4   5
ENDBRANCH   1   4
BRANCH   1  14
ATOM     14  C   UNL d   1      58.650  49.475  50.471  0.00  0.00     0.105 A 
ATOM     15  C   UNL d   1      58.048  49.605  51.020  0.00  0.00     0.013 A 
ATOM     16  C   UNL d   1      57.260  49.681  50.755  0.00  0.00     0.001 A 
ATOM     17  C   UNL d   1      57.081  49.628  49.942  0.00  0.00     0.000 A 
ATOM     18  C   UNL d   1      57.692  49.498  49.395  0.00  0.00     0.001 A 
ATOM     19  C   UNL d   1      58.470  49.422  49.658  0.00  0.00     0.013 A 
BRANCH  17  20
ATOM     20  C   UNL d   1      56.299  49.705  49.691  0.00  0.00     0.000 C 
ATOM     21  C   UNL d   1      56.059  49.377  48.980  0.00  0.00     0.000 C 
ENDBRANCH  17  20
ENDBRANCH   1  14
TORSDOF 6
ENDMDL
