MODEL 1
REMARK VINA RESULT:      -7.6      0.000      0.000
REMARK  4 active torsions:
REMARK  status: ('A' for Active; 'I' for Inactive)
REMARK    1  A    between atoms: C_15  and  C_2 
REMARK    2  A    between atoms: C_5  and  S_13 
REMARK       I    between atoms: C_11  and  N_8 
REMARK    3  A    between atoms: C_18  and  C_11 
REMARK    4  A    between atoms: S_13  and  C_18 
ROOT
ATOM      1  N   UNL d   1     -47.755  12.046  23.386  0.00  0.00    -0.272 N 
ATOM      2  C   UNL d   1     -47.287  11.388  23.489  0.00  0.00     0.271 C 
ATOM      3  C   UNL d   1     -48.686  13.391  23.172  0.00  0.00     0.023 A 
ATOM      4  C   UNL d   1     -48.571  12.011  23.488  0.00  0.00     0.083 A 
ATOM      5  C   UNL d   1     -47.401  12.767  23.173  0.00  0.00     0.083 A 
ATOM      6  O   UNL d   1     -47.624  10.677  23.697  0.00  0.00    -0.266 OA
ATOM      7  C   UNL d   1     -49.037  12.683  23.381  0.00  0.00     0.021 A 
ATOM      8  C   UNL d   1     -47.875  13.438  23.068  0.00  0.00     0.021 A 
ENDROOT
BRANCH   2   9
ATOM      9  C   UNL d   1     -46.463  11.439  23.382  0.00  0.00     0.099 C 
BRANCH   9  10
ATOM     10  S   UNL d   1     -45.980  10.809  23.611  0.00  0.00    -0.054 SA
BRANCH  10  11
ATOM     11  C   UNL d   1     -45.154  10.836  23.479  0.00  0.00     0.164 A 
ATOM     12  S   UNL d   1     -44.607  10.257  23.695  0.00  0.00    -0.039 SA
ATOM     13  C   UNL d   1     -43.854  10.517  23.455  0.00  0.00     0.134 A 
ATOM     14  C   UNL d   1     -43.138  10.102  23.563  0.00  0.00     0.030 C 
ATOM     15  N   UNL d   1     -43.940  11.261  23.089  0.00  0.00    -0.140 NA
ATOM     16  N   UNL d   1     -44.751  11.461  23.103  0.00  0.00    -0.134 NA
ENDBRANCH  10  11
ENDBRANCH   9  10
ENDBRANCH   2   9
BRANCH   3  17
ATOM     17  C   UNL d   1     -49.142  14.059  23.066  0.00  0.00     0.110 A 
ATOM     18  N   UNL d   1     -49.080  14.750  23.491  0.00  0.00    -0.126 NA
ATOM     19  O   UNL d   1     -49.642  15.285  23.208  0.00  0.00    -0.211 OA
ATOM     20  C   UNL d   1     -50.048  14.918  22.608  0.00  0.00     0.127 A 
ATOM     21  C   UNL d   1     -50.664  15.166  22.119  0.00  0.00     0.029 A 
ATOM     22  C   UNL d   1     -49.739  14.154  22.516  0.00  0.00     0.047 A 
ATOM     23  C   UNL d   1     -50.966  14.668  21.554  0.00  0.00     0.032 A 
ATOM     24  C   UNL d   1     -50.665  13.900  21.453  0.00  0.00     0.140 A 
ATOM     25  C   UNL d   1     -50.041  13.657  21.951  0.00  0.00     0.033 A 
ATOM     26  F   UNL d   1     -50.967  13.402  20.888  0.00  0.00    -0.204 F 
ENDBRANCH   3  17
TORSDOF 4
ENDMDL
MODEL 2
REMARK VINA RESULT:      -7.0      1.234      1.443
REMARK  4 active torsions:
REMARK  status: ('A' for Active; 'I' for Inactive)
REMARK    1  A    between atoms: C_15  and  C_2 
REMARK    2  A    between atoms: C_5  and  S_13 
REMARK       I    between atoms: C_11  and  N_8 
REMARK    3  A    between atoms: C_18  and  C_11 
REMARK    4  A    between atoms: S_13  and  C_18 
ROOT
ATOM      1  N   UNL d   1     -46.703  13.512  22.767  0.00  0.00    -0.272 N 
ATOM      2  C   UNL d   1     -45.936  13.247  22.693  0.00  0.00     0.271 C 
ATOM      3  C   UNL d   1     -48.261  14.030  22.925  0.00  0.00     0.023 A 
ATOM      4  C   UNL d   1     -46.926  14.256  22.495  0.00  0.00     0.083 A 
ATOM      5  C   UNL d   1     -47.271  13.021  23.123  0.00  0.00     0.083 A 
ATOM      6  O   UNL d   1     -45.373  13.721  22.346  0.00  0.00    -0.266 OA
ATOM      7  C   UNL d   1     -47.706  14.516  22.574  0.00  0.00     0.021 A 
ATOM      8  C   UNL d   1     -48.050  13.288  23.199  0.00  0.00     0.021 A 
ENDROOT
BRANCH   2   9
ATOM      9  C   UNL d   1     -45.726  12.492  22.973  0.00  0.00     0.099 C 
BRANCH   9  10
ATOM     10  S   UNL d   1     -45.071  12.103  22.651  0.00  0.00    -0.054 SA
BRANCH  10  11
ATOM     11  C   UNL d   1     -44.777  11.403  23.002  0.00  0.00     0.164 A 
ATOM     12  S   UNL d   1     -44.002  11.124  22.955  0.00  0.00    -0.039 SA
ATOM     13  C   UNL d   1     -43.962  10.412  23.385  0.00  0.00     0.134 A 
ATOM     14  C   UNL d   1     -43.281   9.940  23.485  0.00  0.00     0.030 C 
ATOM     15  N   UNL d   1     -44.719  10.255  23.698  0.00  0.00    -0.140 NA
ATOM     16  N   UNL d   1     -45.228  10.872  23.459  0.00  0.00    -0.134 NA
ENDBRANCH  10  11
ENDBRANCH   9  10
ENDBRANCH   2   9
BRANCH   3  17
ATOM     17  C   UNL d   1     -49.033  14.282  23.006  0.00  0.00     0.110 A 
ATOM     18  N   UNL d   1     -49.328  14.720  23.625  0.00  0.00    -0.126 NA
ATOM     19  O   UNL d   1     -50.132  14.855  23.492  0.00  0.00    -0.211 OA
ATOM     20  C   UNL d   1     -50.327  14.499  22.789  0.00  0.00     0.127 A 
ATOM     21  C   UNL d   1     -51.035  14.443  22.369  0.00  0.00     0.029 A 
ATOM     22  C   UNL d   1     -49.645  14.141  22.483  0.00  0.00     0.047 A 
ATOM     23  C   UNL d   1     -51.064  14.042  21.665  0.00  0.00     0.032 A 
ATOM     24  C   UNL d   1     -50.388  13.679  21.348  0.00  0.00     0.140 A 
ATOM     25  C   UNL d   1     -49.675  13.740  21.779  0.00  0.00     0.033 A 
ATOM     26  F   UNL d   1     -50.417  13.278  20.644  0.00  0.00    -0.204 F 
ENDBRANCH   3  17
TORSDOF 4
ENDMDL
MODEL 3
REMARK VINA RESULT:      -6.7      1.624      1.724
REMARK  4 active torsions:
REMARK  status: ('A' for Active; 'I' for Inactive)
REMARK    1  A    between atoms: C_15  and  C_2 
REMARK    2  A    between atoms: C_5  and  S_13 
REMARK       I    between atoms: C_11  and  N_8 
REMARK    3  A    between atoms: C_18  and  C_11 
REMARK    4  A    between atoms: S_13  and  C_18 
ROOT
ATOM      1  N   UNL d   1     -46.867  13.087  22.975  0.00  0.00    -0.272 N 
ATOM      2  C   UNL d   1     -46.183  12.658  23.083  0.00  0.00     0.271 C 
ATOM      3  C   UNL d   1     -48.243  13.967  22.739  0.00  0.00     0.023 A 
ATOM      4  C   UNL d   1     -47.512  12.998  23.479  0.00  0.00     0.083 A 
ATOM      5  C   UNL d   1     -46.913  13.626  22.344  0.00  0.00     0.083 A 
ATOM      6  O   UNL d   1     -46.128  12.128  23.698  0.00  0.00    -0.266 OA
ATOM      7  C   UNL d   1     -48.200  13.438  23.361  0.00  0.00     0.021 A 
ATOM      8  C   UNL d   1     -47.607  14.063  22.232  0.00  0.00     0.021 A 
ENDROOT
BRANCH   2   9
ATOM      9  C   UNL d   1     -45.539  12.759  22.566  0.00  0.00     0.099 C 
BRANCH   9  10
ATOM     10  S   UNL d   1     -44.985  12.152  22.477  0.00  0.00    -0.054 SA
BRANCH  10  11
ATOM     11  C   UNL d   1     -44.236  12.306  22.135  0.00  0.00     0.164 A 
ATOM     12  S   UNL d   1     -44.047  12.942  21.645  0.00  0.00    -0.039 SA
ATOM     13  C   UNL d   1     -43.243  12.871  21.438  0.00  0.00     0.134 A 
ATOM     14  C   UNL d   1     -42.818  13.396  20.948  0.00  0.00     0.030 C 
ATOM     15  N   UNL d   1     -42.940  12.186  21.804  0.00  0.00    -0.140 NA
ATOM     16  N   UNL d   1     -43.558  11.833  22.240  0.00  0.00    -0.134 NA
ENDBRANCH  10  11
ENDBRANCH   9  10
ENDBRANCH   2   9
BRANCH   3  17
ATOM     17  C   UNL d   1     -48.920  14.403  22.619  0.00  0.00     0.110 A 
ATOM     18  N   UNL d   1     -49.045  15.167  22.872  0.00  0.00    -0.126 NA
ATOM     19  O   UNL d   1     -49.802  15.403  22.635  0.00  0.00    -0.211 OA
ATOM     20  C   UNL d   1     -50.138  14.780  22.237  0.00  0.00     0.127 A 
ATOM     21  C   UNL d   1     -50.872  14.681  21.875  0.00  0.00     0.029 A 
ATOM     22  C   UNL d   1     -49.592  14.156  22.224  0.00  0.00     0.047 A 
ATOM     23  C   UNL d   1     -51.060  13.981  21.511  0.00  0.00     0.032 A 
ATOM     24  C   UNL d   1     -50.521  13.348  21.491  0.00  0.00     0.140 A 
ATOM     25  C   UNL d   1     -49.780  13.456  21.860  0.00  0.00     0.033 A 
ATOM     26  F   UNL d   1     -50.709  12.649  21.127  0.00  0.00    -0.204 F 
ENDBRANCH   3  17
TORSDOF 4
ENDMDL
MODEL 4
REMARK VINA RESULT:      -6.6      1.882      2.015
REMARK  4 active torsions:
REMARK  status: ('A' for Active; 'I' for Inactive)
REMARK    1  A    between atoms: C_15  and  C_2 
REMARK    2  A    between atoms: C_5  and  S_13 
REMARK       I    between atoms: C_11  and  N_8 
REMARK    3  A    between atoms: C_18  and  C_11 
REMARK    4  A    between atoms: S_13  and  C_18 
ROOT
ATOM      1  N   UNL d   1     -47.202  12.557  22.825  0.00  0.00    -0.272 N 
ATOM      2  C   UNL d   1     -46.449  12.312  23.016  0.00  0.00     0.271 C 
ATOM      3  C   UNL d   1     -48.720  13.062  22.420  0.00  0.00     0.023 A 
ATOM      4  C   UNL d   1     -47.848  12.360  23.296  0.00  0.00     0.083 A 
ATOM      5  C   UNL d   1     -47.320  13.014  22.141  0.00  0.00     0.083 A 
ATOM      6  O   UNL d   1     -46.323  11.864  23.683  0.00  0.00    -0.266 OA
ATOM      7  C   UNL d   1     -48.607  12.612  23.094  0.00  0.00     0.021 A 
ATOM      8  C   UNL d   1     -48.084  13.264  21.945  0.00  0.00     0.021 A 
ENDROOT
BRANCH   2   9
ATOM      9  C   UNL d   1     -45.806  12.519  22.530  0.00  0.00     0.099 C 
BRANCH   9  10
ATOM     10  S   UNL d   1     -45.039  12.513  22.840  0.00  0.00    -0.054 SA
BRANCH  10  11
ATOM     11  C   UNL d   1     -44.375  12.494  22.331  0.00  0.00     0.164 A 
ATOM     12  S   UNL d   1     -44.151  13.084  21.801  0.00  0.00    -0.039 SA
ATOM     13  C   UNL d   1     -43.459  12.828  21.413  0.00  0.00     0.134 A 
ATOM     14  C   UNL d   1     -43.041  13.254  20.830  0.00  0.00     0.030 C 
ATOM     15  N   UNL d   1     -43.260  12.075  21.710  0.00  0.00    -0.140 NA
ATOM     16  N   UNL d   1     -43.830  11.865  22.283  0.00  0.00    -0.134 NA
ENDBRANCH  10  11
ENDBRANCH   9  10
ENDBRANCH   2   9
BRANCH   3  17
ATOM     17  C   UNL d   1     -49.467  13.314  22.216  0.00  0.00     0.110 A 
ATOM     18  N   UNL d   1     -49.998  12.904  21.754  0.00  0.00    -0.126 NA
ATOM     19  O   UNL d   1     -50.688  13.354  21.682  0.00  0.00    -0.211 OA
ATOM     20  C   UNL d   1     -50.576  14.040  22.103  0.00  0.00     0.127 A 
ATOM     21  C   UNL d   1     -51.058  14.695  22.238  0.00  0.00     0.029 A 
ATOM     22  C   UNL d   1     -49.818  14.018  22.437  0.00  0.00     0.047 A 
ATOM     23  C   UNL d   1     -50.794  15.313  22.691  0.00  0.00     0.032 A 
ATOM     24  C   UNL d   1     -50.036  15.304  23.031  0.00  0.00     0.140 A 
ATOM     25  C   UNL d   1     -49.553  14.636  22.891  0.00  0.00     0.033 A 
ATOM     26  F   UNL d   1     -49.771  15.922  23.485  0.00  0.00    -0.204 F 
ENDBRANCH   3  17
TORSDOF 4
ENDMDL
MODEL 5
REMARK VINA RESULT:      -6.6      8.993     10.392
REMARK  4 active torsions:
REMARK  status: ('A' for Active; 'I' for Inactive)
REMARK    1  A    between atoms: C_15  and  C_2 
REMARK    2  A    between atoms: C_5  and  S_13 
REMARK       I    between atoms: C_11  and  N_8 
REMARK    3  A    between atoms: C_18  and  C_11 
REMARK    4  A    between atoms: S_13  and  C_18 
ROOT
ATOM      1  N   UNL d   1     -39.923  14.514  19.311  0.00  0.00    -0.272 N 
ATOM      2  C   UNL d   1     -40.078  14.353  18.528  0.00  0.00     0.271 C 
ATOM      3  C   UNL d   1     -39.588  14.845  20.892  0.00  0.00     0.023 A 
ATOM      4  C   UNL d   1     -40.494  14.400  19.893  0.00  0.00     0.083 A 
ATOM      5  C   UNL d   1     -39.172  14.798  19.527  0.00  0.00     0.083 A 
ATOM      6  O   UNL d   1     -40.810  14.074  18.307  0.00  0.00    -0.266 OA
ATOM      7  C   UNL d   1     -40.327  14.565  20.684  0.00  0.00     0.021 A 
ATOM      8  C   UNL d   1     -39.012  14.962  20.322  0.00  0.00     0.021 A 
ENDROOT
BRANCH   2   9
ATOM      9  C   UNL d   1     -39.490  14.473  17.951  0.00  0.00     0.099 C 
BRANCH   9  10
ATOM     10  S   UNL d   1     -39.697  14.484  17.151  0.00  0.00    -0.054 SA
BRANCH  10  11
ATOM     11  C   UNL d   1     -39.115  14.613  16.563  0.00  0.00     0.164 A 
ATOM     12  S   UNL d   1     -38.913  15.341  16.231  0.00  0.00    -0.039 SA
ATOM     13  C   UNL d   1     -38.310  15.205  15.672  0.00  0.00     0.134 A 
ATOM     14  C   UNL d   1     -37.940  15.789  15.204  0.00  0.00     0.030 C 
ATOM     15  N   UNL d   1     -38.144  14.389  15.662  0.00  0.00    -0.140 NA
ATOM     16  N   UNL d   1     -38.645  14.018  16.217  0.00  0.00    -0.134 NA
ENDBRANCH  10  11
ENDBRANCH   9  10
ENDBRANCH   2   9
BRANCH   3  17
ATOM     17  C   UNL d   1     -39.418  15.010  21.672  0.00  0.00     0.110 A 
ATOM     18  N   UNL d   1     -39.575  15.711  22.055  0.00  0.00    -0.126 NA
ATOM     19  O   UNL d   1     -39.315  15.648  22.837  0.00  0.00    -0.211 OA
ATOM     20  C   UNL d   1     -38.998  14.906  22.930  0.00  0.00     0.127 A 
ATOM     21  C   UNL d   1     -38.655  14.523  23.575  0.00  0.00     0.029 A 
ATOM     22  C   UNL d   1     -39.060  14.506  22.207  0.00  0.00     0.047 A 
ATOM     23  C   UNL d   1     -38.380  13.764  23.503  0.00  0.00     0.032 A 
ATOM     24  C   UNL d   1     -38.436  13.352  22.784  0.00  0.00     0.140 A 
ATOM     25  C   UNL d   1     -38.785  13.746  22.135  0.00  0.00     0.033 A 
ATOM     26  F   UNL d   1     -38.162  12.593  22.712  0.00  0.00    -0.204 F 
ENDBRANCH   3  17
TORSDOF 4
ENDMDL
MODEL 6
REMARK VINA RESULT:      -5.0      7.598      9.666
REMARK  4 active torsions:
REMARK  status: ('A' for Active; 'I' for Inactive)
REMARK    1  A    between atoms: C_15  and  C_2 
REMARK    2  A    between atoms: C_5  and  S_13 
REMARK       I    between atoms: C_11  and  N_8 
REMARK    3  A    between atoms: C_18  and  C_11 
REMARK    4  A    between atoms: S_13  and  C_18 
ROOT
ATOM      1  N   UNL d   1     -40.542  14.556  19.699  0.00  0.00    -0.272 N 
ATOM      2  C   UNL d   1     -40.882  14.470  20.434  0.00  0.00     0.271 C 
ATOM      3  C   UNL d   1     -39.871  14.716  18.200  0.00  0.00     0.023 A 
ATOM      4  C   UNL d   1     -39.883  15.035  19.585  0.00  0.00     0.083 A 
ATOM      5  C   UNL d   1     -40.870  14.151  19.051  0.00  0.00     0.083 A 
ATOM      6  O   UNL d   1     -40.568  14.862  21.075  0.00  0.00    -0.266 OA
ATOM      7  C   UNL d   1     -39.547  15.115  18.835  0.00  0.00     0.021 A 
ATOM      8  C   UNL d   1     -40.527  14.237  18.303  0.00  0.00     0.021 A 
ENDROOT
BRANCH   2   9
ATOM      9  C   UNL d   1     -41.548  13.983  20.534  0.00  0.00     0.099 C 
BRANCH   9  10
ATOM     10  S   UNL d   1     -41.834  13.829  21.294  0.00  0.00    -0.054 SA
BRANCH  10  11
ATOM     11  C   UNL d   1     -42.497  13.331  21.407  0.00  0.00     0.164 A 
ATOM     12  S   UNL d   1     -43.288  13.566  21.397  0.00  0.00    -0.039 SA
ATOM     13  C   UNL d   1     -43.755  12.890  21.534  0.00  0.00     0.134 A 
ATOM     14  C   UNL d   1     -44.589  12.873  21.569  0.00  0.00     0.030 C 
ATOM     15  N   UNL d   1     -43.246  12.237  21.627  0.00  0.00    -0.140 NA
ATOM     16  N   UNL d   1     -42.461  12.511  21.549  0.00  0.00    -0.134 NA
ENDBRANCH  10  11
ENDBRANCH   9  10
ENDBRANCH   2   9
BRANCH   3  17
ATOM     17  C   UNL d   1     -39.543  14.792  17.458  0.00  0.00     0.110 A 
ATOM     18  N   UNL d   1     -39.656  15.418  16.950  0.00  0.00    -0.126 NA
ATOM     19  O   UNL d   1     -39.226  15.276  16.258  0.00  0.00    -0.211 OA
ATOM     20  C   UNL d   1     -38.850  14.562  16.346  0.00  0.00     0.127 A 
ATOM     21  C   UNL d   1     -38.349  14.131  15.852  0.00  0.00     0.029 A 
ATOM     22  C   UNL d   1     -39.045  14.257  17.092  0.00  0.00     0.047 A 
ATOM     23  C   UNL d   1     -38.051  13.416  16.093  0.00  0.00     0.032 A 
ATOM     24  C   UNL d   1     -38.239  13.100  16.838  0.00  0.00     0.140 A 
ATOM     25  C   UNL d   1     -38.746  13.542  17.332  0.00  0.00     0.033 A 
ATOM     26  F   UNL d   1     -37.940  12.386  17.079  0.00  0.00    -0.204 F 
ENDBRANCH   3  17
TORSDOF 4
ENDMDL
MODEL 7
REMARK VINA RESULT:      -5.0      2.697      5.949
REMARK  4 active torsions:
REMARK  status: ('A' for Active; 'I' for Inactive)
REMARK    1  A    between atoms: C_15  and  C_2 
REMARK    2  A    between atoms: C_5  and  S_13 
REMARK       I    between atoms: C_11  and  N_8 
REMARK    3  A    between atoms: C_18  and  C_11 
REMARK    4  A    between atoms: S_13  and  C_18 
ROOT
ATOM      1  N   UNL d   1     -46.702  13.487  22.990  0.00  0.00    -0.272 N 
ATOM      2  C   UNL d   1     -47.015  14.228  22.861  0.00  0.00     0.271 C 
ATOM      3  C   UNL d   1     -46.088  11.980  23.261  0.00  0.00     0.023 A 
ATOM      4  C   UNL d   1     -45.917  13.317  22.811  0.00  0.00     0.083 A 
ATOM      5  C   UNL d   1     -47.186  12.892  23.311  0.00  0.00     0.083 A 
ATOM      6  O   UNL d   1     -46.550  14.817  22.548  0.00  0.00    -0.266 OA
ATOM      7  C   UNL d   1     -45.609  12.563  22.946  0.00  0.00     0.021 A 
ATOM      8  C   UNL d   1     -46.871  12.139  23.443  0.00  0.00     0.021 A 
ENDROOT
BRANCH   2   9
ATOM      9  C   UNL d   1     -47.811  14.385  23.047  0.00  0.00     0.099 C 
BRANCH   9  10
ATOM     10  S   UNL d   1     -48.185  15.046  22.722  0.00  0.00    -0.054 SA
BRANCH  10  11
ATOM     11  C   UNL d   1     -49.020  15.108  22.728  0.00  0.00     0.164 A 
ATOM     12  S   UNL d   1     -49.492  15.264  23.386  0.00  0.00    -0.039 SA
ATOM     13  C   UNL d   1     -50.285  15.275  23.133  0.00  0.00     0.134 A 
ATOM     14  C   UNL d   1     -50.950  15.413  23.619  0.00  0.00     0.030 C 
ATOM     15  N   UNL d   1     -50.298  15.125  22.313  0.00  0.00    -0.140 NA
ATOM     16  N   UNL d   1     -49.509  15.021  22.059  0.00  0.00    -0.134 NA
ENDBRANCH  10  11
ENDBRANCH   9  10
ENDBRANCH   2   9
BRANCH   3  17
ATOM     17  C   UNL d   1     -45.789  11.234  23.397  0.00  0.00     0.110 A 
ATOM     18  N   UNL d   1     -46.222  10.581  23.618  0.00  0.00    -0.126 NA
ATOM     19  O   UNL d   1     -45.709   9.938  23.697  0.00  0.00    -0.211 OA
ATOM     20  C   UNL d   1     -44.960  10.201  23.523  0.00  0.00     0.127 A 
ATOM     21  C   UNL d   1     -44.227   9.824  23.506  0.00  0.00     0.029 A 
ATOM     22  C   UNL d   1     -45.006  11.007  23.336  0.00  0.00     0.047 A 
ATOM     23  C   UNL d   1     -43.557  10.236  23.307  0.00  0.00     0.032 A 
ATOM     24  C   UNL d   1     -43.591  11.044  23.117  0.00  0.00     0.140 A 
ATOM     25  C   UNL d   1     -44.337  11.420  23.137  0.00  0.00     0.033 A 
ATOM     26  F   UNL d   1     -42.921  11.457  22.919  0.00  0.00    -0.204 F 
ENDBRANCH   3  17
TORSDOF 4
ENDMDL
