MODEL 1
REMARK VINA RESULT:      -3.3      0.000      0.000
REMARK  6 active torsions:
REMARK  status: ('A' for Active; 'I' for Inactive)
REMARK    1  A    between atoms: O_4  and  C_1 
REMARK    2  A    between atoms: C_9  and  C_2 
REMARK    3  A    between atoms: C_5  and  O_4 
REMARK    4  A    between atoms: C_11  and  C_5 
REMARK    5  A    between atoms: N_10  and  C_9 
REMARK    6  A    between atoms: O_19  and  C_17 
ROOT
ATOM      1  C   UNL d   1     -46.636  12.921  22.739  0.00  0.00     0.122 A 
ATOM      2  C   UNL d   1     -46.910  12.349  23.267  0.00  0.00     0.043 A 
ATOM      3  C   UNL d   1     -45.871  12.868  22.436  0.00  0.00     0.105 A 
ATOM      4  C   UNL d   1     -45.381  12.244  22.660  0.00  0.00     0.030 A 
ATOM      5  C   UNL d   1     -45.661  11.680  23.185  0.00  0.00     0.059 A 
ATOM      6  C   UNL d   1     -46.420  11.726  23.491  0.00  0.00     0.015 A 
ATOM      7  N   UNL d   1     -45.603  13.436  21.913  0.00  0.00    -0.242 NA
ATOM      8 CL   UNL d   1     -45.146  11.058  23.398  0.00  0.00    -0.082 Cl
ATOM      9  C   UNL d   1     -44.627  12.196  22.359  0.00  0.00     0.004 A 
ATOM     10  C   UNL d   1     -44.838  13.383  21.609  0.00  0.00     0.099 A 
ATOM     11  C   UNL d   1     -44.348  12.760  21.834  0.00  0.00     0.021 A 
ENDROOT
BRANCH   1  12
ATOM     12  O   UNL d   1     -47.073  13.490  22.530  0.00  0.00    -0.271 OA
BRANCH  12  13
ATOM     13  C   UNL d   1     -47.283  14.399  22.770  0.00  0.00     0.300 C 
ATOM     14  O   UNL d   1     -46.559  14.864  23.289  0.00  0.00    -0.259 OA
BRANCH  13  15
ATOM     15  C   UNL d   1     -48.000  14.744  22.558  0.00  0.00     0.066 A 
ATOM     16  C   UNL d   1     -48.509  15.037  23.146  0.00  0.00     0.029 A 
ATOM     17  C   UNL d   1     -49.234  15.386  22.928  0.00  0.00     0.094 A 
ATOM     18  C   UNL d   1     -49.452  15.442  22.123  0.00  0.00     0.024 A 
ATOM     19  C   UNL d   1     -48.941  15.148  21.539  0.00  0.00     0.002 A 
ATOM     20  C   UNL d   1     -48.216  14.800  21.758  0.00  0.00     0.005 A 
BRANCH  17  21
ATOM     21  O   UNL d   1     -49.683  15.653  23.583  0.00  0.00    -0.328 OA
ATOM     22  C   UNL d   1     -50.464  15.497  23.299  0.00  0.00     0.181 C 
ENDBRANCH  17  21
ENDBRANCH  13  15
ENDBRANCH  12  13
ENDBRANCH   1  12
BRANCH   2  23
ATOM     23  C   UNL d   1     -47.705  12.241  23.698  0.00  0.00     0.082 C 
BRANCH  23  24
ATOM     24  N   UNL d   1     -48.321  11.855  23.318  0.00  0.00    -0.299 N 
ATOM     25  C   UNL d   1     -49.083  11.921  23.593  0.00  0.00     0.107 A 
ATOM     26  C   UNL d   1     -49.699  11.536  23.216  0.00  0.00     0.142 A 
ATOM     27  O   UNL d   1     -49.540  11.074  22.546  0.00  0.00    -0.300 OA
ATOM     28  C   UNL d   1     -48.777  11.003  22.264  0.00  0.00     0.142 A 
ATOM     29  C   UNL d   1     -48.167  11.399  22.658  0.00  0.00     0.107 A 
ENDBRANCH  23  24
ENDBRANCH   2  23
TORSDOF 6
ENDMDL
MODEL 2
REMARK VINA RESULT:      -2.9      0.914      2.878
REMARK  6 active torsions:
REMARK  status: ('A' for Active; 'I' for Inactive)
REMARK    1  A    between atoms: O_4  and  C_1 
REMARK    2  A    between atoms: C_9  and  C_2 
REMARK    3  A    between atoms: C_5  and  O_4 
REMARK    4  A    between atoms: C_11  and  C_5 
REMARK    5  A    between atoms: N_10  and  C_9 
REMARK    6  A    between atoms: O_19  and  C_17 
ROOT
ATOM      1  C   UNL d   1     -47.392  12.890  22.914  0.00  0.00     0.122 A 
ATOM      2  C   UNL d   1     -46.571  12.816  22.912  0.00  0.00     0.043 A 
ATOM      3  C   UNL d   1     -47.861  12.263  23.176  0.00  0.00     0.105 A 
ATOM      4  C   UNL d   1     -47.509  11.565  23.436  0.00  0.00     0.030 A 
ATOM      5  C   UNL d   1     -46.692  11.499  23.431  0.00  0.00     0.059 A 
ATOM      6  C   UNL d   1     -46.219  12.117  23.172  0.00  0.00     0.015 A 
ATOM      7  N   UNL d   1     -48.675  12.340  23.177  0.00  0.00    -0.242 NA
ATOM      8 CL   UNL d   1     -46.358  10.782  23.698  0.00  0.00    -0.082 Cl
ATOM      9  C   UNL d   1     -47.975  10.950  23.693  0.00  0.00     0.004 A 
ATOM     10  C   UNL d   1     -49.144  11.714  23.438  0.00  0.00     0.099 A 
ATOM     11  C   UNL d   1     -48.792  11.016  23.698  0.00  0.00     0.021 A 
ENDROOT
BRANCH   1  12
ATOM     12  O   UNL d   1     -47.721  13.518  22.681  0.00  0.00    -0.271 OA
BRANCH  12  13
ATOM     13  C   UNL d   1     -47.871  14.430  22.956  0.00  0.00     0.300 C 
ATOM     14  O   UNL d   1     -47.145  14.809  23.536  0.00  0.00    -0.259 OA
BRANCH  13  15
ATOM     15  C   UNL d   1     -48.545  14.843  22.722  0.00  0.00     0.066 A 
ATOM     16  C   UNL d   1     -49.147  14.999  23.274  0.00  0.00     0.029 A 
ATOM     17  C   UNL d   1     -49.828  15.417  23.035  0.00  0.00     0.094 A 
ATOM     18  C   UNL d   1     -49.908  15.679  22.245  0.00  0.00     0.024 A 
ATOM     19  C   UNL d   1     -49.305  15.521  21.698  0.00  0.00     0.002 A 
ATOM     20  C   UNL d   1     -48.625  15.103  21.938  0.00  0.00     0.005 A 
BRANCH  17  21
ATOM     21  O   UNL d   1     -50.381  15.529  23.654  0.00  0.00    -0.328 OA
ATOM     22  C   UNL d   1     -51.064  15.174  23.305  0.00  0.00     0.181 C 
ENDBRANCH  17  21
ENDBRANCH  13  15
ENDBRANCH  12  13
ENDBRANCH   1  12
BRANCH   2  23
ATOM     23  C   UNL d   1     -45.904  13.383  22.666  0.00  0.00     0.082 C 
BRANCH  23  24
ATOM     24  N   UNL d   1     -45.283  13.102  22.209  0.00  0.00    -0.299 N 
ATOM     25  C   UNL d   1     -45.352  13.059  21.399  0.00  0.00     0.107 A 
ATOM     26  C   UNL d   1     -44.734  12.778  20.941  0.00  0.00     0.142 A 
ATOM     27  O   UNL d   1     -44.031  12.538  21.310  0.00  0.00    -0.300 OA
ATOM     28  C   UNL d   1     -43.955  12.579  22.121  0.00  0.00     0.142 A 
ATOM     29  C   UNL d   1     -44.589  12.865  22.569  0.00  0.00     0.107 A 
ENDBRANCH  23  24
ENDBRANCH   2  23
TORSDOF 6
ENDMDL
MODEL 3
REMARK VINA RESULT:      -2.7      1.704      3.875
REMARK  6 active torsions:
REMARK  status: ('A' for Active; 'I' for Inactive)
REMARK    1  A    between atoms: O_4  and  C_1 
REMARK    2  A    between atoms: C_9  and  C_2 
REMARK    3  A    between atoms: C_5  and  O_4 
REMARK    4  A    between atoms: C_11  and  C_5 
REMARK    5  A    between atoms: N_10  and  C_9 
REMARK    6  A    between atoms: O_19  and  C_17 
ROOT
ATOM      1  C   UNL d   1     -47.618  13.439  22.325  0.00  0.00     0.122 A 
ATOM      2  C   UNL d   1     -48.370  13.135  22.178  0.00  0.00     0.043 A 
ATOM      3  C   UNL d   1     -47.517  14.248  22.448  0.00  0.00     0.105 A 
ATOM      4  C   UNL d   1     -48.168  14.753  22.424  0.00  0.00     0.030 A 
ATOM      5  C   UNL d   1     -48.913  14.443  22.277  0.00  0.00     0.059 A 
ATOM      6  C   UNL d   1     -49.021  13.640  22.154  0.00  0.00     0.015 A 
ATOM      7  N   UNL d   1     -46.769  14.546  22.593  0.00  0.00    -0.242 NA
ATOM      8 CL   UNL d   1     -49.558  14.974  22.258  0.00  0.00    -0.082 Cl
ATOM      9  C   UNL d   1     -48.065  15.550  22.545  0.00  0.00     0.004 A 
ATOM     10  C   UNL d   1     -46.669  15.355  22.716  0.00  0.00     0.099 A 
ATOM     11  C   UNL d   1     -47.320  15.860  22.692  0.00  0.00     0.021 A 
ENDROOT
BRANCH   1  12
ATOM     12  O   UNL d   1     -47.021  12.990  22.348  0.00  0.00    -0.271 OA
BRANCH  12  13
ATOM     13  C   UNL d   1     -46.338  12.623  21.776  0.00  0.00     0.300 C 
ATOM     14  O   UNL d   1     -46.597  12.574  20.807  0.00  0.00    -0.259 OA
BRANCH  13  15
ATOM     15  C   UNL d   1     -45.612  12.378  22.078  0.00  0.00     0.066 A 
ATOM     16  C   UNL d   1     -45.587  11.826  22.699  0.00  0.00     0.029 A 
ATOM     17  C   UNL d   1     -44.850  11.579  23.003  0.00  0.00     0.094 A 
ATOM     18  C   UNL d   1     -44.139  11.883  22.687  0.00  0.00     0.024 A 
ATOM     19  C   UNL d   1     -44.168  12.434  22.067  0.00  0.00     0.002 A 
ATOM     20  C   UNL d   1     -44.905  12.680  21.764  0.00  0.00     0.005 A 
BRANCH  17  21
ATOM     21  O   UNL d   1     -44.919  11.023  23.625  0.00  0.00    -0.328 OA
ATOM     22  C   UNL d   1     -44.399  10.421  23.341  0.00  0.00     0.181 C 
ENDBRANCH  17  21
ENDBRANCH  13  15
ENDBRANCH  12  13
ENDBRANCH   1  12
BRANCH   2  23
ATOM     23  C   UNL d   1     -48.672  12.291  22.022  0.00  0.00     0.082 C 
BRANCH  23  24
ATOM     24  N   UNL d   1     -49.174  11.935  22.566  0.00  0.00    -0.299 N 
ATOM     25  C   UNL d   1     -48.874  11.459  23.154  0.00  0.00     0.107 A 
ATOM     26  C   UNL d   1     -49.372  11.102  23.698  0.00  0.00     0.142 A 
ATOM     27  O   UNL d   1     -50.190  11.230  23.644  0.00  0.00    -0.300 OA
ATOM     28  C   UNL d   1     -50.496  11.706  23.057  0.00  0.00     0.142 A 
ATOM     29  C   UNL d   1     -49.979  12.059  22.516  0.00  0.00     0.107 A 
ENDBRANCH  23  24
ENDBRANCH   2  23
TORSDOF 6
ENDMDL
MODEL 4
REMARK VINA RESULT:      -1.8      1.382      3.152
REMARK  6 active torsions:
REMARK  status: ('A' for Active; 'I' for Inactive)
REMARK    1  A    between atoms: O_4  and  C_1 
REMARK    2  A    between atoms: C_9  and  C_2 
REMARK    3  A    between atoms: C_5  and  O_4 
REMARK    4  A    between atoms: C_11  and  C_5 
REMARK    5  A    between atoms: N_10  and  C_9 
REMARK    6  A    between atoms: O_19  and  C_17 
ROOT
ATOM      1  C   UNL d   1     -47.213  13.325  22.664  0.00  0.00     0.122 A 
ATOM      2  C   UNL d   1     -47.354  14.039  23.051  0.00  0.00     0.043 A 
ATOM      3  C   UNL d   1     -46.469  13.172  22.341  0.00  0.00     0.105 A 
ATOM      4  C   UNL d   1     -45.869  13.732  22.404  0.00  0.00     0.030 A 
ATOM      5  C   UNL d   1     -46.018  14.441  22.790  0.00  0.00     0.059 A 
ATOM      6  C   UNL d   1     -46.754  14.600  23.114  0.00  0.00     0.015 A 
ATOM      7  N   UNL d   1     -46.333  12.462  21.958  0.00  0.00    -0.242 NA
ATOM      8 CL   UNL d   1     -45.394  14.994  22.841  0.00  0.00    -0.082 Cl
ATOM      9  C   UNL d   1     -45.138  13.578  22.084  0.00  0.00     0.004 A 
ATOM     10  C   UNL d   1     -45.590  12.309  21.635  0.00  0.00     0.099 A 
ATOM     11  C   UNL d   1     -44.989  12.870  21.698  0.00  0.00     0.021 A 
ENDROOT
BRANCH   1  12
ATOM     12  O   UNL d   1     -47.750  12.809  22.602  0.00  0.00    -0.271 OA
BRANCH  12  13
ATOM     13  C   UNL d   1     -48.150  12.082  23.092  0.00  0.00     0.300 C 
ATOM     14  O   UNL d   1     -47.510  11.588  23.687  0.00  0.00    -0.259 OA
BRANCH  13  15
ATOM     15  C   UNL d   1     -48.949  11.900  23.013  0.00  0.00     0.066 A 
ATOM     16  C   UNL d   1     -49.333  12.029  22.287  0.00  0.00     0.029 A 
ATOM     17  C   UNL d   1     -50.143  11.844  22.210  0.00  0.00     0.094 A 
ATOM     18  C   UNL d   1     -50.568  11.529  22.856  0.00  0.00     0.024 A 
ATOM     19  C   UNL d   1     -50.181  11.401  23.579  0.00  0.00     0.002 A 
ATOM     20  C   UNL d   1     -49.372  11.587  23.654  0.00  0.00     0.005 A 
BRANCH  17  21
ATOM     21  O   UNL d   1     -50.447  12.006  21.446  0.00  0.00    -0.328 OA
ATOM     22  C   UNL d   1     -51.031  12.585  21.642  0.00  0.00     0.181 C 
ENDBRANCH  17  21
ENDBRANCH  13  15
ENDBRANCH  12  13
ENDBRANCH   1  12
BRANCH   2  23
ATOM     23  C   UNL d   1     -48.092  14.380  23.461  0.00  0.00     0.082 C 
BRANCH  23  24
ATOM     24  N   UNL d   1     -48.583  14.892  23.048  0.00  0.00    -0.299 N 
ATOM     25  C   UNL d   1     -48.396  15.123  22.292  0.00  0.00     0.107 A 
ATOM     26  C   UNL d   1     -48.885  15.634  21.877  0.00  0.00     0.142 A 
ATOM     27  O   UNL d   1     -49.577  15.916  22.238  0.00  0.00    -0.300 OA
ATOM     28  C   UNL d   1     -49.769  15.687  22.997  0.00  0.00     0.142 A 
ATOM     29  C   UNL d   1     -49.265  15.171  23.401  0.00  0.00     0.107 A 
ENDBRANCH  23  24
ENDBRANCH   2  23
TORSDOF 6
ENDMDL
