MODEL 1
REMARK VINA RESULT:      -6.2      0.000      0.000
REMARK  6 active torsions:
REMARK  status: ('A' for Active; 'I' for Inactive)
REMARK    1  A    between atoms: C_7  and  C_1 
REMARK    2  A    between atoms: C_19  and  N_2 
REMARK    3  A    between atoms: C_18  and  N_3 
REMARK    4  A    between atoms: C_13  and  C_9 
REMARK    5  A    between atoms: O_20  and  C_13 
REMARK    6  A    between atoms: C_23  and  O_20 
ROOT
ATOM      1  C   UNL d   1     -39.494  14.610  18.451  0.00  0.00     0.013 A 
ATOM      2  C   UNL d   1     -39.886  15.115  17.924  0.00  0.00     0.030 A 
ATOM      3  C   UNL d   1     -39.854  14.984  17.114  0.00  0.00     0.163 A 
ATOM      4  O   UNL d   1     -39.424  14.338  16.813  0.00  0.00    -0.302 OA
ATOM      5  C   UNL d   1     -39.064  13.965  18.160  0.00  0.00     0.023 A 
ATOM      6  C   UNL d   1     -39.029  13.830  17.339  0.00  0.00     0.100 A 
ATOM      7  C   UNL d   1     -38.670  13.455  18.677  0.00  0.00     0.002 A 
ATOM      8  C   UNL d   1     -38.597  13.181  17.047  0.00  0.00     0.025 A 
ATOM      9  C   UNL d   1     -38.242  12.813  18.387  0.00  0.00     0.000 A 
ATOM     10  C   UNL d   1     -38.205  12.675  17.565  0.00  0.00     0.002 A 
ENDROOT
BRANCH   1  11
ATOM     11  C   UNL d   1     -39.529  14.744  19.264  0.00  0.00     0.113 A 
ATOM     12  C   UNL d   1     -40.132  14.397  19.711  0.00  0.00     0.271 A 
ATOM     13  N   UNL d   1     -40.171  14.527  20.521  0.00  0.00    -0.250 N 
ATOM     14  O   UNL d   1     -40.695  13.919  19.342  0.00  0.00    -0.266 OA
ATOM     15  C   UNL d   1     -39.610  15.003  20.888  0.00  0.00     0.196 A 
ATOM     16  N   UNL d   1     -39.006  15.351  20.440  0.00  0.00    -0.250 N 
ATOM     17  S   UNL d   1     -39.645  15.138  21.704  0.00  0.00    -0.039 SA
ATOM     18  C   UNL d   1     -38.960  15.224  19.624  0.00  0.00     0.271 A 
ATOM     19  O   UNL d   1     -38.359  15.569  19.179  0.00  0.00    -0.266 OA
BRANCH  13  20
ATOM     20  C   UNL d   1     -40.772  14.182  20.967  0.00  0.00     0.085 C 
ATOM     21  C   UNL d   1     -41.558  14.297  20.758  0.00  0.00     0.021 C 
ENDBRANCH  13  20
BRANCH  16  22
ATOM     22  C   UNL d   1     -38.444  15.828  20.814  0.00  0.00     0.085 C 
ATOM     23  C   UNL d   1     -38.027  15.548  21.465  0.00  0.00     0.021 C 
ENDBRANCH  16  22
ENDBRANCH   1  11
BRANCH   3  24
ATOM     24  C   UNL d   1     -40.245  15.489  16.598  0.00  0.00     0.323 C 
ATOM     25  O   UNL d   1     -39.820  15.900  16.024  0.00  0.00    -0.257 OA
BRANCH  24  26
ATOM     26  O   UNL d   1     -41.060  15.587  16.655  0.00  0.00    -0.270 OA
BRANCH  26  27
ATOM     27  C   UNL d   1     -41.479  15.918  16.029  0.00  0.00     0.126 C 
ATOM     28  C   UNL d   1     -42.302  15.918  16.034  0.00  0.00     0.029 C 
ENDBRANCH  26  27
ENDBRANCH  24  26
ENDBRANCH   3  24
TORSDOF 6
ENDMDL
MODEL 2
REMARK VINA RESULT:      -5.8      7.077      9.447
REMARK  6 active torsions:
REMARK  status: ('A' for Active; 'I' for Inactive)
REMARK    1  A    between atoms: C_7  and  C_1 
REMARK    2  A    between atoms: C_19  and  N_2 
REMARK    3  A    between atoms: C_18  and  N_3 
REMARK    4  A    between atoms: C_13  and  C_9 
REMARK    5  A    between atoms: O_20  and  C_13 
REMARK    6  A    between atoms: C_23  and  O_20 
ROOT
ATOM      1  C   UNL d   1     -47.346  12.962  22.515  0.00  0.00     0.013 A 
ATOM      2  C   UNL d   1     -46.629  13.315  22.293  0.00  0.00     0.030 A 
ATOM      3  C   UNL d   1     -45.912  12.950  22.459  0.00  0.00     0.163 A 
ATOM      4  O   UNL d   1     -45.899  12.218  22.854  0.00  0.00    -0.302 OA
ATOM      5  C   UNL d   1     -47.341  12.234  22.909  0.00  0.00     0.023 A 
ATOM      6  C   UNL d   1     -46.616  11.862  23.078  0.00  0.00     0.100 A 
ATOM      7  C   UNL d   1     -48.050  11.874  23.134  0.00  0.00     0.002 A 
ATOM      8  C   UNL d   1     -46.611  11.130  23.474  0.00  0.00     0.025 A 
ATOM      9  C   UNL d   1     -48.045  11.149  23.526  0.00  0.00     0.000 A 
ATOM     10  C   UNL d   1     -47.319  10.773  23.697  0.00  0.00     0.002 A 
ENDROOT
BRANCH   1  11
ATOM     11  C   UNL d   1     -48.064  13.331  22.347  0.00  0.00     0.113 A 
ATOM     12  C   UNL d   1     -48.363  13.902  22.867  0.00  0.00     0.271 A 
ATOM     13  N   UNL d   1     -49.078  14.272  22.704  0.00  0.00    -0.250 N 
ATOM     14  O   UNL d   1     -47.941  14.098  23.548  0.00  0.00    -0.266 OA
ATOM     15  C   UNL d   1     -49.496  14.075  22.024  0.00  0.00     0.196 A 
ATOM     16  N   UNL d   1     -49.198  13.504  21.505  0.00  0.00    -0.250 N 
ATOM     17  S   UNL d   1     -50.218  14.446  21.856  0.00  0.00    -0.039 SA
ATOM     18  C   UNL d   1     -48.478  13.127  21.662  0.00  0.00     0.271 A 
ATOM     19  O   UNL d   1     -48.181  12.558  21.145  0.00  0.00    -0.266 OA
BRANCH  13  20
ATOM     20  C   UNL d   1     -49.375  14.840  23.221  0.00  0.00     0.085 C 
ATOM     21  C   UNL d   1     -48.909  15.480  23.442  0.00  0.00     0.021 C 
ENDBRANCH  13  20
BRANCH  16  22
ATOM     22  C   UNL d   1     -49.623  13.309  20.823  0.00  0.00     0.085 C 
ATOM     23  C   UNL d   1     -50.385  13.005  20.881  0.00  0.00     0.021 C 
ENDBRANCH  16  22
ENDBRANCH   1  11
BRANCH   3  24
ATOM     24  C   UNL d   1     -45.207  13.306  22.235  0.00  0.00     0.323 C 
ATOM     25  O   UNL d   1     -45.139  14.128  22.250  0.00  0.00    -0.257 OA
BRANCH  24  26
ATOM     26  O   UNL d   1     -44.569  12.846  21.996  0.00  0.00    -0.270 OA
BRANCH  26  27
ATOM     27  C   UNL d   1     -43.844  13.200  21.834  0.00  0.00     0.126 C 
ATOM     28  C   UNL d   1     -43.526  13.165  21.076  0.00  0.00     0.029 C 
ENDBRANCH  26  27
ENDBRANCH  24  26
ENDBRANCH   3  24
TORSDOF 6
ENDMDL
MODEL 3
REMARK VINA RESULT:      -5.6      1.694      3.947
REMARK  6 active torsions:
REMARK  status: ('A' for Active; 'I' for Inactive)
REMARK    1  A    between atoms: C_7  and  C_1 
REMARK    2  A    between atoms: C_19  and  N_2 
REMARK    3  A    between atoms: C_18  and  N_3 
REMARK    4  A    between atoms: C_13  and  C_9 
REMARK    5  A    between atoms: O_20  and  C_13 
REMARK    6  A    between atoms: C_23  and  O_20 
ROOT
ATOM      1  C   UNL d   1     -39.716  14.827  19.723  0.00  0.00     0.013 A 
ATOM      2  C   UNL d   1     -40.481  14.599  19.948  0.00  0.00     0.030 A 
ATOM      3  C   UNL d   1     -40.751  14.730  20.713  0.00  0.00     0.163 A 
ATOM      4  O   UNL d   1     -40.256  15.096  21.273  0.00  0.00    -0.302 OA
ATOM      5  C   UNL d   1     -39.217  15.191  20.274  0.00  0.00     0.023 A 
ATOM      6  C   UNL d   1     -39.488  15.326  21.050  0.00  0.00     0.100 A 
ATOM      7  C   UNL d   1     -38.453  15.423  20.061  0.00  0.00     0.002 A 
ATOM      8  C   UNL d   1     -38.986  15.692  21.604  0.00  0.00     0.025 A 
ATOM      9  C   UNL d   1     -37.957  15.785  20.609  0.00  0.00     0.000 A 
ATOM     10  C   UNL d   1     -38.225  15.921  21.388  0.00  0.00     0.002 A 
ENDROOT
BRANCH   1  11
ATOM     11  C   UNL d   1     -39.448  14.694  18.956  0.00  0.00     0.113 A 
ATOM     12  C   UNL d   1     -39.619  15.244  18.361  0.00  0.00     0.271 A 
ATOM     13  N   UNL d   1     -39.354  15.116  17.594  0.00  0.00    -0.250 N 
ATOM     14  O   UNL d   1     -40.055  15.921  18.540  0.00  0.00    -0.266 OA
ATOM     15  C   UNL d   1     -38.919  14.441  17.417  0.00  0.00     0.196 A 
ATOM     16  N   UNL d   1     -38.749  13.891  18.012  0.00  0.00    -0.250 N 
ATOM     17  S   UNL d   1     -38.651  14.308  16.645  0.00  0.00    -0.039 SA
ATOM     18  C   UNL d   1     -39.012  14.013  18.786  0.00  0.00     0.271 A 
ATOM     19  O   UNL d   1     -38.842  13.465  19.378  0.00  0.00    -0.266 OA
BRANCH  13  20
ATOM     20  C   UNL d   1     -39.524  15.663  17.002  0.00  0.00     0.085 C 
ATOM     21  C   UNL d   1     -40.241  15.629  16.602  0.00  0.00     0.021 C 
ENDBRANCH  13  20
BRANCH  16  22
ATOM     22  C   UNL d   1     -38.311  13.214  17.828  0.00  0.00     0.085 C 
ATOM     23  C   UNL d   1     -38.692  12.499  17.684  0.00  0.00     0.021 C 
ENDBRANCH  16  22
ENDBRANCH   1  11
BRANCH   3  24
ATOM     24  C   UNL d   1     -41.510  14.501  20.927  0.00  0.00     0.323 C 
ATOM     25  O   UNL d   1     -42.099  15.069  21.020  0.00  0.00    -0.257 OA
BRANCH  24  26
ATOM     26  O   UNL d   1     -41.682  13.706  21.049  0.00  0.00    -0.270 OA
BRANCH  26  27
ATOM     27  C   UNL d   1     -42.465  13.460  21.115  0.00  0.00     0.126 C 
ATOM     28  C   UNL d   1     -42.644  12.733  21.457  0.00  0.00     0.029 C 
ENDBRANCH  26  27
ENDBRANCH  24  26
ENDBRANCH   3  24
TORSDOF 6
ENDMDL
MODEL 4
REMARK VINA RESULT:      -5.0      0.315      1.579
REMARK  6 active torsions:
REMARK  status: ('A' for Active; 'I' for Inactive)
REMARK    1  A    between atoms: C_7  and  C_1 
REMARK    2  A    between atoms: C_19  and  N_2 
REMARK    3  A    between atoms: C_18  and  N_3 
REMARK    4  A    between atoms: C_13  and  C_9 
REMARK    5  A    between atoms: O_20  and  C_13 
REMARK    6  A    between atoms: C_23  and  O_20 
ROOT
ATOM      1  C   UNL d   1     -39.392  14.463  18.653  0.00  0.00     0.013 A 
ATOM      2  C   UNL d   1     -39.781  14.986  18.141  0.00  0.00     0.030 A 
ATOM      3  C   UNL d   1     -39.767  14.866  17.328  0.00  0.00     0.163 A 
ATOM      4  O   UNL d   1     -39.361  14.213  17.010  0.00  0.00    -0.302 OA
ATOM      5  C   UNL d   1     -38.986  13.811  18.345  0.00  0.00     0.023 A 
ATOM      6  C   UNL d   1     -38.971  13.687  17.521  0.00  0.00     0.100 A 
ATOM      7  C   UNL d   1     -38.596  13.283  18.846  0.00  0.00     0.002 A 
ATOM      8  C   UNL d   1     -38.562  13.031  17.211  0.00  0.00     0.025 A 
ATOM      9  C   UNL d   1     -38.191  12.634  18.539  0.00  0.00     0.000 A 
ATOM     10  C   UNL d   1     -38.174  12.507  17.714  0.00  0.00     0.002 A 
ENDROOT
BRANCH   1  11
ATOM     11  C   UNL d   1     -39.408  14.586  19.468  0.00  0.00     0.113 A 
ATOM     12  C   UNL d   1     -38.802  15.021  19.828  0.00  0.00     0.271 A 
ATOM     13  N   UNL d   1     -38.813  15.146  20.640  0.00  0.00    -0.250 N 
ATOM     14  O   UNL d   1     -38.188  15.328  19.370  0.00  0.00    -0.266 OA
ATOM     15  C   UNL d   1     -39.425  14.839  21.095  0.00  0.00     0.196 A 
ATOM     16  N   UNL d   1     -40.031  14.404  20.735  0.00  0.00    -0.250 N 
ATOM     17  S   UNL d   1     -39.440  14.964  21.913  0.00  0.00    -0.039 SA
ATOM     18  C   UNL d   1     -40.027  14.274  19.918  0.00  0.00     0.271 A 
ATOM     19  O   UNL d   1     -40.629  13.841  19.559  0.00  0.00    -0.266 OA
BRANCH  13  20
ATOM     20  C   UNL d   1     -38.210  15.579  20.998  0.00  0.00     0.085 C 
ATOM     21  C   UNL d   1     -38.332  15.922  21.735  0.00  0.00     0.021 C 
ENDBRANCH  13  20
BRANCH  16  22
ATOM     22  C   UNL d   1     -40.644  14.098  21.197  0.00  0.00     0.085 C 
ATOM     23  C   UNL d   1     -41.396  14.430  21.163  0.00  0.00     0.021 C 
ENDBRANCH  16  22
ENDBRANCH   1  11
BRANCH   3  24
ATOM     24  C   UNL d   1     -40.155  15.389  16.828  0.00  0.00     0.323 C 
ATOM     25  O   UNL d   1     -39.738  15.767  16.226  0.00  0.00    -0.257 OA
BRANCH  24  26
ATOM     26  O   UNL d   1     -40.957  15.538  16.927  0.00  0.00    -0.270 OA
BRANCH  26  27
ATOM     27  C   UNL d   1     -41.469  15.480  16.285  0.00  0.00     0.126 C 
ATOM     28  C   UNL d   1     -42.164  15.921  16.267  0.00  0.00     0.029 C 
ENDBRANCH  26  27
ENDBRANCH  24  26
ENDBRANCH   3  24
TORSDOF 6
ENDMDL
MODEL 5
REMARK VINA RESULT:      -4.7      1.155      3.068
REMARK  6 active torsions:
REMARK  status: ('A' for Active; 'I' for Inactive)
REMARK    1  A    between atoms: C_7  and  C_1 
REMARK    2  A    between atoms: C_19  and  N_2 
REMARK    3  A    between atoms: C_18  and  N_3 
REMARK    4  A    between atoms: C_13  and  C_9 
REMARK    5  A    between atoms: O_20  and  C_13 
REMARK    6  A    between atoms: C_23  and  O_20 
ROOT
ATOM      1  C   UNL d   1     -39.345  14.176  18.748  0.00  0.00     0.013 A 
ATOM      2  C   UNL d   1     -38.951  13.448  18.799  0.00  0.00     0.030 A 
ATOM      3  C   UNL d   1     -38.706  13.054  18.121  0.00  0.00     0.163 A 
ATOM      4  O   UNL d   1     -38.853  13.384  17.371  0.00  0.00    -0.302 OA
ATOM      5  C   UNL d   1     -39.496  14.511  18.006  0.00  0.00     0.023 A 
ATOM      6  C   UNL d   1     -39.249  14.113  17.317  0.00  0.00     0.100 A 
ATOM      7  C   UNL d   1     -39.888  15.235  17.943  0.00  0.00     0.002 A 
ATOM      8  C   UNL d   1     -39.400  14.450  16.571  0.00  0.00     0.025 A 
ATOM      9  C   UNL d   1     -40.037  15.568  17.205  0.00  0.00     0.000 A 
ATOM     10  C   UNL d   1     -39.791  15.172  16.512  0.00  0.00     0.002 A 
ENDROOT
BRANCH   1  11
ATOM     11  C   UNL d   1     -39.589  14.569  19.430  0.00  0.00     0.113 A 
ATOM     12  C   UNL d   1     -39.054  15.050  19.840  0.00  0.00     0.271 A 
ATOM     13  N   UNL d   1     -39.293  15.443  20.520  0.00  0.00    -0.250 N 
ATOM     14  O   UNL d   1     -38.281  15.133  19.563  0.00  0.00    -0.266 OA
ATOM     15  C   UNL d   1     -40.063  15.360  20.794  0.00  0.00     0.196 A 
ATOM     16  N   UNL d   1     -40.599  14.879  20.384  0.00  0.00    -0.250 N 
ATOM     17  S   UNL d   1     -40.308  15.755  21.479  0.00  0.00    -0.039 SA
ATOM     18  C   UNL d   1     -40.366  14.479  19.698  0.00  0.00     0.271 A 
ATOM     19  O   UNL d   1     -40.898  14.000  19.291  0.00  0.00    -0.266 OA
BRANCH  13  20
ATOM     20  C   UNL d   1     -38.760  15.922  20.928  0.00  0.00     0.085 C 
ATOM     21  C   UNL d   1     -38.494  15.700  21.672  0.00  0.00     0.021 C 
ENDBRANCH  13  20
BRANCH  16  22
ATOM     22  C   UNL d   1     -41.372  14.798  20.664  0.00  0.00     0.085 C 
ATOM     23  C   UNL d   1     -41.609  14.105  21.038  0.00  0.00     0.021 C 
ENDBRANCH  16  22
ENDBRANCH   1  11
BRANCH   3  24
ATOM     24  C   UNL d   1     -38.316  12.334  18.181  0.00  0.00     0.323 C 
ATOM     25  O   UNL d   1     -37.940  12.128  18.885  0.00  0.00    -0.257 OA
BRANCH  24  26
ATOM     26  O   UNL d   1     -38.300  11.819  17.541  0.00  0.00    -0.270 OA
BRANCH  26  27
ATOM     27  C   UNL d   1     -37.974  11.068  17.625  0.00  0.00     0.126 C 
ATOM     28  C   UNL d   1     -38.275  10.434  17.195  0.00  0.00     0.029 C 
ENDBRANCH  26  27
ENDBRANCH  24  26
ENDBRANCH   3  24
TORSDOF 6
ENDMDL
MODEL 6
REMARK VINA RESULT:      -4.5      7.413      9.703
REMARK  6 active torsions:
REMARK  status: ('A' for Active; 'I' for Inactive)
REMARK    1  A    between atoms: C_7  and  C_1 
REMARK    2  A    between atoms: C_19  and  N_2 
REMARK    3  A    between atoms: C_18  and  N_3 
REMARK    4  A    between atoms: C_13  and  C_9 
REMARK    5  A    between atoms: O_20  and  C_13 
REMARK    6  A    between atoms: C_23  and  O_20 
ROOT
ATOM      1  C   UNL d   1     -48.018  13.333  22.541  0.00  0.00     0.013 A 
ATOM      2  C   UNL d   1     -48.216  14.029  22.947  0.00  0.00     0.030 A 
ATOM      3  C   UNL d   1     -48.953  14.378  22.850  0.00  0.00     0.163 A 
ATOM      4  O   UNL d   1     -49.513  14.034  22.339  0.00  0.00    -0.302 OA
ATOM      5  C   UNL d   1     -48.570  12.985  22.031  0.00  0.00     0.023 A 
ATOM      6  C   UNL d   1     -49.318  13.336  21.930  0.00  0.00     0.100 A 
ATOM      7  C   UNL d   1     -48.384  12.292  21.622  0.00  0.00     0.002 A 
ATOM      8  C   UNL d   1     -49.872  12.986  21.418  0.00  0.00     0.025 A 
ATOM      9  C   UNL d   1     -48.932  11.945  21.114  0.00  0.00     0.000 A 
ATOM     10  C   UNL d   1     -49.683  12.295  21.011  0.00  0.00     0.002 A 
ENDROOT
BRANCH   1  11
ATOM     11  C   UNL d   1     -47.278  12.986  22.641  0.00  0.00     0.113 A 
ATOM     12  C   UNL d   1     -46.619  13.307  22.255  0.00  0.00     0.271 A 
ATOM     13  N   UNL d   1     -45.879  12.964  22.351  0.00  0.00    -0.250 N 
ATOM     14  O   UNL d   1     -46.708  13.972  21.774  0.00  0.00    -0.266 OA
ATOM     15  C   UNL d   1     -45.793  12.302  22.831  0.00  0.00     0.196 A 
ATOM     16  N   UNL d   1     -46.451  11.981  23.216  0.00  0.00    -0.250 N 
ATOM     17  S   UNL d   1     -45.048  11.953  22.930  0.00  0.00    -0.039 SA
ATOM     18  C   UNL d   1     -47.200  12.321  23.124  0.00  0.00     0.271 A 
ATOM     19  O   UNL d   1     -47.855  12.001  23.508  0.00  0.00    -0.266 OA
BRANCH  13  20
ATOM     20  C   UNL d   1     -45.224  13.283  21.967  0.00  0.00     0.085 C 
ATOM     21  C   UNL d   1     -44.897  12.897  21.319  0.00  0.00     0.021 C 
ENDBRANCH  13  20
BRANCH  16  22
ATOM     22  C   UNL d   1     -46.358  11.315  23.697  0.00  0.00     0.085 C 
ATOM     23  C   UNL d   1     -46.156  10.589  23.368  0.00  0.00     0.021 C 
ENDBRANCH  16  22
ENDBRANCH   1  11
BRANCH   3  24
ATOM     24  C   UNL d   1     -49.140  15.067  23.256  0.00  0.00     0.323 C 
ATOM     25  O   UNL d   1     -48.607  15.695  23.264  0.00  0.00    -0.257 OA
BRANCH  24  26
ATOM     26  O   UNL d   1     -49.856  15.130  23.654  0.00  0.00    -0.270 OA
BRANCH  26  27
ATOM     27  C   UNL d   1     -50.240  15.857  23.698  0.00  0.00     0.126 C 
ATOM     28  C   UNL d   1     -51.061  15.895  23.660  0.00  0.00     0.029 C 
ENDBRANCH  26  27
ENDBRANCH  24  26
ENDBRANCH   3  24
TORSDOF 6
ENDMDL
MODEL 7
REMARK VINA RESULT:      -4.5      7.366      9.790
REMARK  6 active torsions:
REMARK  status: ('A' for Active; 'I' for Inactive)
REMARK    1  A    between atoms: C_7  and  C_1 
REMARK    2  A    between atoms: C_19  and  N_2 
REMARK    3  A    between atoms: C_18  and  N_3 
REMARK    4  A    between atoms: C_13  and  C_9 
REMARK    5  A    between atoms: O_20  and  C_13 
REMARK    6  A    between atoms: C_23  and  O_20 
ROOT
ATOM      1  C   UNL d   1     -47.672  13.339  22.394  0.00  0.00     0.013 A 
ATOM      2  C   UNL d   1     -46.985  12.875  22.383  0.00  0.00     0.030 A 
ATOM      3  C   UNL d   1     -46.244  13.219  22.464  0.00  0.00     0.163 A 
ATOM      4  O   UNL d   1     -46.174  14.042  22.559  0.00  0.00    -0.302 OA
ATOM      5  C   UNL d   1     -47.612  14.160  22.488  0.00  0.00     0.023 A 
ATOM      6  C   UNL d   1     -46.861  14.511  22.571  0.00  0.00     0.100 A 
ATOM      7  C   UNL d   1     -48.289  14.632  22.500  0.00  0.00     0.002 A 
ATOM      8  C   UNL d   1     -46.801  15.336  22.665  0.00  0.00     0.025 A 
ATOM      9  C   UNL d   1     -48.229  15.449  22.594  0.00  0.00     0.000 A 
ATOM     10  C   UNL d   1     -47.478  15.804  22.677  0.00  0.00     0.002 A 
ENDROOT
BRANCH   1  11
ATOM     11  C   UNL d   1     -48.415  12.992  22.312  0.00  0.00     0.113 A 
ATOM     12  C   UNL d   1     -48.772  12.630  22.965  0.00  0.00     0.271 A 
ATOM     13  N   UNL d   1     -49.512  12.281  22.889  0.00  0.00    -0.250 N 
ATOM     14  O   UNL d   1     -48.383  12.619  23.693  0.00  0.00    -0.266 OA
ATOM     15  C   UNL d   1     -49.898  12.293  22.163  0.00  0.00     0.196 A 
ATOM     16  N   UNL d   1     -49.540  12.655  21.509  0.00  0.00    -0.250 N 
ATOM     17  S   UNL d   1     -50.644  11.943  22.081  0.00  0.00    -0.039 SA
ATOM     18  C   UNL d   1     -48.795  13.007  21.579  0.00  0.00     0.271 A 
ATOM     19  O   UNL d   1     -48.440  13.367  20.929  0.00  0.00    -0.266 OA
BRANCH  13  20
ATOM     20  C   UNL d   1     -49.868  11.921  23.539  0.00  0.00     0.085 C 
ATOM     21  C   UNL d   1     -49.736  11.124  23.691  0.00  0.00     0.021 C 
ENDBRANCH  13  20
BRANCH  16  22
ATOM     22  C   UNL d   1     -49.933  12.663  20.782  0.00  0.00     0.085 C 
ATOM     23  C   UNL d   1     -50.697  12.962  20.725  0.00  0.00     0.021 C 
ENDBRANCH  16  22
ENDBRANCH   1  11
BRANCH   3  24
ATOM     24  C   UNL d   1     -45.569  12.751  22.452  0.00  0.00     0.323 C 
ATOM     25  O   UNL d   1     -45.406  12.250  23.086  0.00  0.00    -0.257 OA
BRANCH  24  26
ATOM     26  O   UNL d   1     -45.057  12.781  21.810  0.00  0.00    -0.270 OA
BRANCH  26  27
ATOM     27  C   UNL d   1     -44.245  12.833  21.933  0.00  0.00     0.126 C 
ATOM     28  C   UNL d   1     -43.726  12.811  21.295  0.00  0.00     0.029 C 
ENDBRANCH  26  27
ENDBRANCH  24  26
ENDBRANCH   3  24
TORSDOF 6
ENDMDL
MODEL 8
REMARK VINA RESULT:      -3.8      0.876      2.272
REMARK  6 active torsions:
REMARK  status: ('A' for Active; 'I' for Inactive)
REMARK    1  A    between atoms: C_7  and  C_1 
REMARK    2  A    between atoms: C_19  and  N_2 
REMARK    3  A    between atoms: C_18  and  N_3 
REMARK    4  A    between atoms: C_13  and  C_9 
REMARK    5  A    between atoms: O_20  and  C_13 
REMARK    6  A    between atoms: C_23  and  O_20 
ROOT
ATOM      1  C   UNL d   1     -39.727  14.515  18.530  0.00  0.00     0.013 A 
ATOM      2  C   UNL d   1     -39.188  13.995  18.174  0.00  0.00     0.030 A 
ATOM      3  C   UNL d   1     -39.159  13.913  17.358  0.00  0.00     0.163 A 
ATOM      4  O   UNL d   1     -39.673  14.356  16.876  0.00  0.00    -0.302 OA
ATOM      5  C   UNL d   1     -40.243  14.959  18.058  0.00  0.00     0.023 A 
ATOM      6  C   UNL d   1     -40.215  14.878  17.229  0.00  0.00     0.100 A 
ATOM      7  C   UNL d   1     -40.783  15.480  18.401  0.00  0.00     0.002 A 
ATOM      8  C   UNL d   1     -40.733  15.324  16.755  0.00  0.00     0.025 A 
ATOM      9  C   UNL d   1     -41.296  15.922  17.931  0.00  0.00     0.000 A 
ATOM     10  C   UNL d   1     -41.271  15.843  17.100  0.00  0.00     0.002 A 
ENDROOT
BRANCH   1  11
ATOM     11  C   UNL d   1     -39.754  14.595  19.350  0.00  0.00     0.113 A 
ATOM     12  C   UNL d   1     -40.281  14.131  19.789  0.00  0.00     0.271 A 
ATOM     13  N   UNL d   1     -40.312  14.207  20.606  0.00  0.00    -0.250 N 
ATOM     14  O   UNL d   1     -40.775  13.594  19.404  0.00  0.00    -0.266 OA
ATOM     15  C   UNL d   1     -39.819  14.743  20.988  0.00  0.00     0.196 A 
ATOM     16  N   UNL d   1     -39.292  15.206  20.548  0.00  0.00    -0.250 N 
ATOM     17  S   UNL d   1     -39.847  14.822  21.812  0.00  0.00    -0.039 SA
ATOM     18  C   UNL d   1     -39.255  15.136  19.725  0.00  0.00     0.271 A 
ATOM     19  O   UNL d   1     -38.731  15.597  19.288  0.00  0.00    -0.266 OA
BRANCH  13  20
ATOM     20  C   UNL d   1     -40.836  13.746  21.044  0.00  0.00     0.085 C 
ATOM     21  C   UNL d   1     -41.585  14.032  21.224  0.00  0.00     0.021 C 
ENDBRANCH  13  20
BRANCH  16  22
ATOM     22  C   UNL d   1     -38.799  15.744  20.938  0.00  0.00     0.085 C 
ATOM     23  C   UNL d   1     -38.788  15.779  21.759  0.00  0.00     0.021 C 
ENDBRANCH  16  22
ENDBRANCH   1  11
BRANCH   3  24
ATOM     24  C   UNL d   1     -38.622  13.396  17.014  0.00  0.00     0.323 C 
ATOM     25  O   UNL d   1     -38.555  12.625  17.298  0.00  0.00    -0.257 OA
BRANCH  24  26
ATOM     26  O   UNL d   1     -38.151  13.645  16.388  0.00  0.00    -0.270 OA
BRANCH  26  27
ATOM     27  C   UNL d   1     -38.189  13.255  15.664  0.00  0.00     0.126 C 
ATOM     28  C   UNL d   1     -37.940  13.632  14.976  0.00  0.00     0.029 C 
ENDBRANCH  26  27
ENDBRANCH  24  26
ENDBRANCH   3  24
TORSDOF 6
ENDMDL
MODEL 9
REMARK VINA RESULT:      -3.8      1.799      3.087
REMARK  6 active torsions:
REMARK  status: ('A' for Active; 'I' for Inactive)
REMARK    1  A    between atoms: C_7  and  C_1 
REMARK    2  A    between atoms: C_19  and  N_2 
REMARK    3  A    between atoms: C_18  and  N_3 
REMARK    4  A    between atoms: C_13  and  C_9 
REMARK    5  A    between atoms: O_20  and  C_13 
REMARK    6  A    between atoms: C_23  and  O_20 
ROOT
ATOM      1  C   UNL d   1     -39.287  14.498  20.496  0.00  0.00     0.013 A 
ATOM      2  C   UNL d   1     -38.814  14.619  19.826  0.00  0.00     0.030 A 
ATOM      3  C   UNL d   1     -39.143  14.610  19.073  0.00  0.00     0.163 A 
ATOM      4  O   UNL d   1     -39.959  14.479  18.976  0.00  0.00    -0.302 OA
ATOM      5  C   UNL d   1     -40.100  14.367  20.409  0.00  0.00     0.023 A 
ATOM      6  C   UNL d   1     -40.436  14.357  19.647  0.00  0.00     0.100 A 
ATOM      7  C   UNL d   1     -40.579  14.245  21.070  0.00  0.00     0.002 A 
ATOM      8  C   UNL d   1     -41.252  14.225  19.558  0.00  0.00     0.025 A 
ATOM      9  C   UNL d   1     -41.388  14.114  20.983  0.00  0.00     0.000 A 
ATOM     10  C   UNL d   1     -41.728  14.104  20.220  0.00  0.00     0.002 A 
ENDROOT
BRANCH   1  11
ATOM     11  C   UNL d   1     -38.954  14.507  21.250  0.00  0.00     0.113 A 
ATOM     12  C   UNL d   1     -38.957  15.208  21.691  0.00  0.00     0.271 A 
ATOM     13  N   UNL d   1     -38.627  15.223  22.443  0.00  0.00    -0.250 N 
ATOM     14  O   UNL d   1     -39.293  15.892  21.373  0.00  0.00    -0.266 OA
ATOM     15  C   UNL d   1     -38.293  14.540  22.758  0.00  0.00     0.196 A 
ATOM     16  N   UNL d   1     -38.290  13.839  22.317  0.00  0.00    -0.250 N 
ATOM     17  S   UNL d   1     -37.958  14.551  23.515  0.00  0.00    -0.039 SA
ATOM     18  C   UNL d   1     -38.621  13.817  21.559  0.00  0.00     0.271 A 
ATOM     19  O   UNL d   1     -38.618  13.120  21.120  0.00  0.00    -0.266 OA
BRANCH  13  20
ATOM     20  C   UNL d   1     -38.630  15.920  22.881  0.00  0.00     0.085 C 
ATOM     21  C   UNL d   1     -38.750  15.895  23.694  0.00  0.00     0.021 C 
ENDBRANCH  13  20
BRANCH  16  22
ATOM     22  C   UNL d   1     -37.953  13.157  22.639  0.00  0.00     0.085 C 
ATOM     23  C   UNL d   1     -38.341  12.742  23.233  0.00  0.00     0.021 C 
ENDBRANCH  16  22
ENDBRANCH   1  11
BRANCH   3  24
ATOM     24  C   UNL d   1     -38.668  14.731  18.414  0.00  0.00     0.323 C 
ATOM     25  O   UNL d   1     -38.092  15.320  18.426  0.00  0.00    -0.257 OA
BRANCH  24  26
ATOM     26  O   UNL d   1     -38.766  14.266  17.744  0.00  0.00    -0.270 OA
BRANCH  26  27
ATOM     27  C   UNL d   1     -38.216  14.303  17.133  0.00  0.00     0.126 C 
ATOM     28  C   UNL d   1     -38.403  14.009  16.387  0.00  0.00     0.029 C 
ENDBRANCH  26  27
ENDBRANCH  24  26
ENDBRANCH   3  24
TORSDOF 6
ENDMDL
