MODEL 1
REMARK VINA RESULT:      58.9      0.000      0.000
REMARK  11 active torsions:
REMARK  status: ('A' for Active; 'I' for Inactive)
REMARK    1  A    between atoms: S_2  and  N_15 
REMARK    2  A    between atoms: C_10  and  S_2 
REMARK    3  A    between atoms: C_14  and  C_4 
REMARK    4  A    between atoms: N_16  and  C_8 
REMARK    5  A    between atoms: C_19  and  C_14 
REMARK    6  A    between atoms: N_15  and  C_19 
REMARK    7  A    between atoms: C_24  and  N_16 
REMARK    8  A    between atoms: N_20  and  C_25 
REMARK    9  A    between atoms: C_26  and  N_20 
REMARK   10  A    between atoms: C_27  and  N_20 
REMARK   11  A    between atoms: C_25  and  C_24 
ROOT
ATOM      1  N   UNL d   1     -49.930  26.297  33.451  0.00  0.00    -0.190 N 
ATOM      2  C   UNL d   1     -49.766  25.493  33.372  0.00  0.00     0.187 A 
ATOM      3  C   UNL d   1     -49.205  26.702  33.505  0.00  0.00     0.188 A 
ATOM      4  N   UNL d   1     -50.711  26.557  33.462  0.00  0.00    -0.143 NA
ATOM      5  N   UNL d   1     -48.936  25.404  33.379  0.00  0.00    -0.127 NA
ATOM      6  N   UNL d   1     -48.601  26.147  33.460  0.00  0.00    -0.127 NA
ATOM      7  C   UNL d   1     -51.330  26.013  33.396  0.00  0.00     0.182 A 
ATOM      8  C   UNL d   1     -50.384  24.950  33.306  0.00  0.00     0.044 A 
ATOM      9  C   UNL d   1     -51.165  25.210  33.317  0.00  0.00     0.044 A 
ENDROOT
BRANCH   3  10
ATOM     10  C   UNL d   1     -49.108  27.513  33.589  0.00  0.00     0.062 C 
BRANCH  10  11
ATOM     11  C   UNL d   1     -48.506  27.811  34.062  0.00  0.00     0.115 C 
BRANCH  11  12
ATOM     12  N   UNL d   1     -48.698  28.174  34.777  0.00  0.00    -0.157 NA
BRANCH  12  13
ATOM     13  S   UNL d   1     -48.351  28.887  34.986  0.00  0.00     0.285 S 
ATOM     14  O   UNL d   1     -48.588  28.777  35.771  0.00  0.00    -0.198 OA
ATOM     15  O   UNL d   1     -48.109  29.006  34.203  0.00  0.00    -0.198 OA
BRANCH  13  16
ATOM     16  C   UNL d   1     -48.005  29.602  35.202  0.00  0.00     0.105 A 
ATOM     17  C   UNL d   1     -48.231  30.307  34.824  0.00  0.00     0.013 A 
ATOM     18  C   UNL d   1     -47.886  31.013  35.039  0.00  0.00     0.001 A 
ATOM     19  C   UNL d   1     -47.312  31.030  35.634  0.00  0.00     0.000 A 
ATOM     20  C   UNL d   1     -47.084  30.346  36.009  0.00  0.00     0.001 A 
ATOM     21  C   UNL d   1     -46.964  31.758  35.848  0.00  0.00     0.000 C 
ATOM     22  C   UNL d   1     -47.422  29.626  35.803  0.00  0.00     0.013 A 
ENDBRANCH  13  16
ENDBRANCH  12  13
ENDBRANCH  11  12
ENDBRANCH  10  11
ENDBRANCH   3  10
BRANCH   7  23
ATOM     23  N   UNL d   1     -52.120  26.266  33.406  0.00  0.00    -0.222 NA
BRANCH  23  24
ATOM     24  C   UNL d   1     -52.726  25.698  33.544  0.00  0.00     0.120 C 
BRANCH  24  25
ATOM     25  C   UNL d   1     -52.521  24.932  33.754  0.00  0.00     0.101 C 
BRANCH  25  26
ATOM     26  N   UNL d   1     -53.108  24.355  33.836  0.00  0.00    -0.301 N 
BRANCH  26  27
ATOM     27  C   UNL d   1     -53.082  23.657  33.393  0.00  0.00     0.080 C 
ATOM     28  C   UNL d   1     -53.773  23.198  33.309  0.00  0.00     0.021 C 
ENDBRANCH  26  27
BRANCH  26  29
ATOM     29  C   UNL d   1     -53.737  24.475  34.370  0.00  0.00     0.080 C 
ATOM     30  C   UNL d   1     -53.677  24.171  35.141  0.00  0.00     0.021 C 
ENDBRANCH  26  29
ENDBRANCH  25  26
ENDBRANCH  24  25
ENDBRANCH  23  24
ENDBRANCH   7  23
TORSDOF 11
ENDMDL
MODEL 2
REMARK VINA RESULT:      59.7      3.105      5.101
REMARK  11 active torsions:
REMARK  status: ('A' for Active; 'I' for Inactive)
REMARK    1  A    between atoms: S_2  and  N_15 
REMARK    2  A    between atoms: C_10  and  S_2 
REMARK    3  A    between atoms: C_14  and  C_4 
REMARK    4  A    between atoms: N_16  and  C_8 
REMARK    5  A    between atoms: C_19  and  C_14 
REMARK    6  A    between atoms: N_15  and  C_19 
REMARK    7  A    between atoms: C_24  and  N_16 
REMARK    8  A    between atoms: N_20  and  C_25 
REMARK    9  A    between atoms: C_26  and  N_20 
REMARK   10  A    between atoms: C_27  and  N_20 
REMARK   11  A    between atoms: C_25  and  C_24 
ROOT
ATOM      1  N   UNL d   1     -53.193  23.805  34.955  0.00  0.00    -0.190 N 
ATOM      2  C   UNL d   1     -53.798  23.477  34.502  0.00  0.00     0.187 A 
ATOM      3  C   UNL d   1     -53.411  23.744  35.755  0.00  0.00     0.188 A 
ATOM      4  N   UNL d   1     -52.525  24.115  34.585  0.00  0.00    -0.143 NA
ATOM      5  N   UNL d   1     -54.391  23.213  35.027  0.00  0.00    -0.127 NA
ATOM      6  N   UNL d   1     -54.146  23.380  35.791  0.00  0.00    -0.127 NA
ATOM      7  C   UNL d   1     -52.463  24.097  33.761  0.00  0.00     0.182 A 
ATOM      8  C   UNL d   1     -53.735  23.459  33.678  0.00  0.00     0.044 A 
ATOM      9  C   UNL d   1     -53.068  23.769  33.309  0.00  0.00     0.044 A 
ENDROOT
BRANCH   3  10
ATOM     10  C   UNL d   1     -52.970  24.002  36.398  0.00  0.00     0.062 C 
BRANCH  10  11
ATOM     11  C   UNL d   1     -53.196  24.674  36.812  0.00  0.00     0.115 C 
BRANCH  11  12
ATOM     12  N   UNL d   1     -52.986  24.748  37.607  0.00  0.00    -0.157 NA
BRANCH  12  13
ATOM     13  S   UNL d   1     -52.483  25.348  37.848  0.00  0.00     0.285 S 
ATOM     14  O   UNL d   1     -52.777  25.840  37.251  0.00  0.00    -0.198 OA
ATOM     15  O   UNL d   1     -52.182  24.864  38.448  0.00  0.00    -0.198 OA
BRANCH  13  16
ATOM     16  C   UNL d   1     -51.980  25.955  38.085  0.00  0.00     0.105 A 
ATOM     17  C   UNL d   1     -51.666  26.481  37.522  0.00  0.00     0.013 A 
ATOM     18  C   UNL d   1     -51.168  27.081  37.760  0.00  0.00     0.001 A 
ATOM     19  C   UNL d   1     -50.974  27.168  38.559  0.00  0.00     0.000 A 
ATOM     20  C   UNL d   1     -51.275  26.659  39.116  0.00  0.00     0.001 A 
ATOM     21  C   UNL d   1     -50.463  27.786  38.792  0.00  0.00     0.000 C 
ATOM     22  C   UNL d   1     -51.779  26.048  38.892  0.00  0.00     0.013 A 
ENDBRANCH  13  16
ENDBRANCH  12  13
ENDBRANCH  11  12
ENDBRANCH  10  11
ENDBRANCH   3  10
BRANCH   7  23
ATOM     23  N   UNL d   1     -51.794  24.406  33.379  0.00  0.00    -0.222 NA
BRANCH  23  24
ATOM     24  C   UNL d   1     -51.352  25.012  33.761  0.00  0.00     0.120 C 
BRANCH  24  25
ATOM     25  C   UNL d   1     -50.798  25.438  33.333  0.00  0.00     0.101 C 
BRANCH  25  26
ATOM     26  N   UNL d   1     -50.260  25.928  33.726  0.00  0.00    -0.301 N 
BRANCH  26  27
ATOM     27  C   UNL d   1     -49.465  25.711  33.803  0.00  0.00     0.080 C 
ATOM     28  C   UNL d   1     -49.197  25.004  33.453  0.00  0.00     0.021 C 
ENDBRANCH  26  27
BRANCH  26  29
ATOM     29  C   UNL d   1     -50.518  26.652  34.051  0.00  0.00     0.080 C 
ATOM     30  C   UNL d   1     -50.102  27.348  33.871  0.00  0.00     0.021 C 
ENDBRANCH  26  29
ENDBRANCH  25  26
ENDBRANCH  24  25
ENDBRANCH  23  24
ENDBRANCH   7  23
TORSDOF 11
ENDMDL
MODEL 3
REMARK VINA RESULT:      61.2      2.664      4.361
REMARK  11 active torsions:
REMARK  status: ('A' for Active; 'I' for Inactive)
REMARK    1  A    between atoms: S_2  and  N_15 
REMARK    2  A    between atoms: C_10  and  S_2 
REMARK    3  A    between atoms: C_14  and  C_4 
REMARK    4  A    between atoms: N_16  and  C_8 
REMARK    5  A    between atoms: C_19  and  C_14 
REMARK    6  A    between atoms: N_15  and  C_19 
REMARK    7  A    between atoms: C_24  and  N_16 
REMARK    8  A    between atoms: N_20  and  C_25 
REMARK    9  A    between atoms: C_26  and  N_20 
REMARK   10  A    between atoms: C_27  and  N_20 
REMARK   11  A    between atoms: C_25  and  C_24 
ROOT
ATOM      1  N   UNL d   1     -49.939  27.296  34.991  0.00  0.00    -0.190 N 
ATOM      2  C   UNL d   1     -49.343  27.601  34.510  0.00  0.00     0.187 A 
ATOM      3  C   UNL d   1     -49.767  27.508  35.777  0.00  0.00     0.188 A 
ATOM      4  N   UNL d   1     -50.558  26.868  34.656  0.00  0.00    -0.143 NA
ATOM      5  N   UNL d   1     -48.801  28.002  35.004  0.00  0.00    -0.127 NA
ATOM      6  N   UNL d   1     -49.068  27.940  35.775  0.00  0.00    -0.127 NA
ATOM      7  C   UNL d   1     -50.581  26.744  33.839  0.00  0.00     0.182 A 
ATOM      8  C   UNL d   1     -49.366  27.477  33.694  0.00  0.00     0.044 A 
ATOM      9  C   UNL d   1     -49.985  27.049  33.359  0.00  0.00     0.044 A 
ENDROOT
BRANCH   3  10
ATOM     10  C   UNL d   1     -50.214  27.319  36.438  0.00  0.00     0.062 C 
BRANCH  10  11
ATOM     11  C   UNL d   1     -49.926  27.475  37.191  0.00  0.00     0.115 C 
BRANCH  11  12
ATOM     12  N   UNL d   1     -50.458  27.558  37.817  0.00  0.00    -0.157 NA
BRANCH  12  13
ATOM     13  S   UNL d   1     -50.979  26.953  38.000  0.00  0.00     0.285 S 
ATOM     14  O   UNL d   1     -50.373  26.541  38.385  0.00  0.00    -0.198 OA
ATOM     15  O   UNL d   1     -51.592  27.356  37.618  0.00  0.00    -0.198 OA
BRANCH  13  16
ATOM     16  C   UNL d   1     -51.498  26.341  38.187  0.00  0.00     0.105 A 
ATOM     17  C   UNL d   1     -52.189  26.227  37.738  0.00  0.00     0.013 A 
ATOM     18  C   UNL d   1     -52.700  25.621  37.925  0.00  0.00     0.001 A 
ATOM     19  C   UNL d   1     -52.535  25.119  38.560  0.00  0.00     0.000 A 
ATOM     20  C   UNL d   1     -51.862  25.222  39.005  0.00  0.00     0.001 A 
ATOM     21  C   UNL d   1     -53.064  24.501  38.744  0.00  0.00     0.000 C 
ATOM     22  C   UNL d   1     -51.336  25.829  38.829  0.00  0.00     0.013 A 
ENDBRANCH  13  16
ENDBRANCH  12  13
ENDBRANCH  11  12
ENDBRANCH  10  11
ENDBRANCH   3  10
BRANCH   7  23
ATOM     23  N   UNL d   1     -51.200  26.315  33.492  0.00  0.00    -0.222 NA
BRANCH  23  24
ATOM     24  C   UNL d   1     -51.233  25.482  33.610  0.00  0.00     0.120 C 
BRANCH  24  25
ATOM     25  C   UNL d   1     -51.902  25.068  33.381  0.00  0.00     0.101 C 
BRANCH  25  26
ATOM     26  N   UNL d   1     -51.924  24.245  33.457  0.00  0.00    -0.301 N 
BRANCH  26  27
ATOM     27  C   UNL d   1     -52.628  23.826  33.340  0.00  0.00     0.080 C 
ATOM     28  C   UNL d   1     -52.816  23.190  33.845  0.00  0.00     0.021 C 
ENDBRANCH  26  27
BRANCH  26  29
ATOM     29  C   UNL d   1     -51.230  23.827  33.653  0.00  0.00     0.080 C 
ATOM     30  C   UNL d   1     -50.510  24.053  33.307  0.00  0.00     0.021 C 
ENDBRANCH  26  29
ENDBRANCH  25  26
ENDBRANCH  24  25
ENDBRANCH  23  24
ENDBRANCH   7  23
TORSDOF 11
ENDMDL
