MODEL 1
REMARK VINA RESULT:      -7.7      0.000      0.000
REMARK  4 active torsions:
REMARK  status: ('A' for Active; 'I' for Inactive)
REMARK    1  A    between atoms: C_6  and  C_1 
REMARK    2  A    between atoms: C_8  and  C_5 
REMARK    3  A    between atoms: C_9  and  C_8 
REMARK    4  A    between atoms: C_13  and  C_9 
ROOT
ATOM      1  C   UNL d   1      53.365  33.010  53.895  0.00  0.00     0.210 A 
ATOM      2  N   UNL d   1      53.322  32.357  53.390  0.00  0.00    -0.120 NA
ATOM      3  O   UNL d   1      52.702  33.448  53.819  0.00  0.00    -0.268 OA
ATOM      4  N   UNL d   1      52.595  32.420  53.000  0.00  0.00    -0.121 NA
ATOM      5  C   UNL d   1      52.189  33.069  53.233  0.00  0.00     0.205 A 
ENDROOT
BRANCH   5   6
ATOM      6  C   UNL d   1      51.450  33.288  52.950  0.00  0.00     0.046 C 
BRANCH   6   7
ATOM      7  C   UNL d   1      51.324  34.053  52.693  0.00  0.00     0.004 C 
BRANCH   7   8
ATOM      8  C   UNL d   1      50.577  34.288  52.425  0.00  0.00     0.000 A 
ATOM      9  C   UNL d   1      50.352  34.158  51.624  0.00  0.00     0.002 A 
ATOM     10  C   UNL d   1      49.603  34.394  51.356  0.00  0.00     0.030 A 
ATOM     11  C   UNL d   1      49.083  34.756  51.881  0.00  0.00     0.140 A 
ATOM     12  C   UNL d   1      49.304  34.888  52.684  0.00  0.00     0.030 A 
ATOM     13  F   UNL d   1      48.331  34.994  51.615  0.00  0.00    -0.204 F 
ATOM     14  C   UNL d   1      50.047  34.649  52.934  0.00  0.00     0.002 A 
ENDBRANCH   7   8
ENDBRANCH   6   7
ENDBRANCH   5   6
BRANCH   1  15
ATOM     15  C   UNL d   1      53.996  33.189  54.405  0.00  0.00     0.072 A 
ATOM     16  S   UNL d   1      54.051  33.009  55.211  0.00  0.00    -0.083 SA
ATOM     17  C   UNL d   1      54.775  33.293  55.489  0.00  0.00     0.035 A 
ATOM     18  C   UNL d   1      55.168  33.649  54.859  0.00  0.00     0.008 A 
ATOM     19  C   UNL d   1      54.682  33.584  54.185  0.00  0.00     0.011 A 
ENDBRANCH   1  15
TORSDOF 4
ENDMDL
MODEL 2
REMARK VINA RESULT:      -7.4      2.818      3.602
REMARK  4 active torsions:
REMARK  status: ('A' for Active; 'I' for Inactive)
REMARK    1  A    between atoms: C_6  and  C_1 
REMARK    2  A    between atoms: C_8  and  C_5 
REMARK    3  A    between atoms: C_9  and  C_8 
REMARK    4  A    between atoms: C_13  and  C_9 
ROOT
ATOM      1  C   UNL d   1      53.152  30.354  53.615  0.00  0.00     0.210 A 
ATOM      2  N   UNL d   1      52.843  30.381  52.849  0.00  0.00    -0.120 NA
ATOM      3  O   UNL d   1      53.313  31.096  53.861  0.00  0.00    -0.268 OA
ATOM      4  N   UNL d   1      52.823  31.181  52.639  0.00  0.00    -0.121 NA
ATOM      5  C   UNL d   1      53.100  31.648  53.228  0.00  0.00     0.205 A 
ENDROOT
BRANCH   5   6
ATOM      6  C   UNL d   1      53.153  32.467  53.194  0.00  0.00     0.046 C 
BRANCH   6   7
ATOM      7  C   UNL d   1      52.573  32.926  53.539  0.00  0.00     0.004 C 
BRANCH   7   8
ATOM      8  C   UNL d   1      52.720  33.719  53.724  0.00  0.00     0.000 A 
ATOM      9  C   UNL d   1      53.111  33.924  54.441  0.00  0.00     0.002 A 
ATOM     10  C   UNL d   1      53.257  34.720  54.624  0.00  0.00     0.030 A 
ATOM     11  C   UNL d   1      53.016  35.305  54.099  0.00  0.00     0.140 A 
ATOM     12  C   UNL d   1      52.625  35.105  53.380  0.00  0.00     0.030 A 
ATOM     13  F   UNL d   1      53.162  36.104  54.282  0.00  0.00    -0.204 F 
ATOM     14  C   UNL d   1      52.487  34.315  53.213  0.00  0.00     0.002 A 
ENDBRANCH   7   8
ENDBRANCH   6   7
ENDBRANCH   5   6
BRANCH   1  15
ATOM     15  C   UNL d   1      53.279  29.668  54.064  0.00  0.00     0.072 A 
ATOM     16  S   UNL d   1      53.040  29.532  54.845  0.00  0.00    -0.083 SA
ATOM     17  C   UNL d   1      53.286  28.775  55.062  0.00  0.00     0.035 A 
ATOM     18  C   UNL d   1      53.677  28.440  54.419  0.00  0.00     0.008 A 
ATOM     19  C   UNL d   1      53.672  28.997  53.799  0.00  0.00     0.011 A 
ENDBRANCH   1  15
TORSDOF 4
ENDMDL
MODEL 3
REMARK VINA RESULT:      -7.4      2.802      4.813
REMARK  4 active torsions:
REMARK  status: ('A' for Active; 'I' for Inactive)
REMARK    1  A    between atoms: C_6  and  C_1 
REMARK    2  A    between atoms: C_8  and  C_5 
REMARK    3  A    between atoms: C_9  and  C_8 
REMARK    4  A    between atoms: C_13  and  C_9 
ROOT
ATOM      1  C   UNL d   1      51.106  34.067  52.725  0.00  0.00     0.210 A 
ATOM      2  N   UNL d   1      51.829  34.433  52.563  0.00  0.00    -0.120 NA
ATOM      3  O   UNL d   1      51.240  33.349  53.047  0.00  0.00    -0.268 OA
ATOM      4  N   UNL d   1      52.414  33.899  52.802  0.00  0.00    -0.121 NA
ATOM      5  C   UNL d   1      52.096  33.228  53.102  0.00  0.00     0.205 A 
ENDROOT
BRANCH   5   6
ATOM      6  C   UNL d   1      52.528  32.591  53.388  0.00  0.00     0.046 C 
BRANCH   6   7
ATOM      7  C   UNL d   1      52.749  31.990  52.882  0.00  0.00     0.004 C 
BRANCH   7   8
ATOM      8  C   UNL d   1      52.974  31.252  53.179  0.00  0.00     0.000 A 
ATOM      9  C   UNL d   1      52.585  30.551  52.919  0.00  0.00     0.002 A 
ATOM     10  C   UNL d   1      52.813  29.811  53.218  0.00  0.00     0.030 A 
ATOM     11  C   UNL d   1      53.420  29.769  53.771  0.00  0.00     0.140 A 
ATOM     12  C   UNL d   1      53.812  30.467  54.034  0.00  0.00     0.030 A 
ATOM     13  F   UNL d   1      53.649  29.028  54.072  0.00  0.00    -0.204 F 
ATOM     14  C   UNL d   1      53.577  31.191  53.730  0.00  0.00     0.002 A 
ENDBRANCH   7   8
ENDBRANCH   6   7
ENDBRANCH   5   6
BRANCH   1  15
ATOM     15  C   UNL d   1      50.355  34.389  52.580  0.00  0.00     0.072 A 
ATOM     16  S   UNL d   1      49.875  34.795  53.118  0.00  0.00    -0.083 SA
ATOM     17  C   UNL d   1      49.179  35.013  52.730  0.00  0.00     0.035 A 
ATOM     18  C   UNL d   1      49.227  34.743  51.953  0.00  0.00     0.008 A 
ATOM     19  C   UNL d   1      49.959  34.355  51.862  0.00  0.00     0.011 A 
ENDBRANCH   1  15
TORSDOF 4
ENDMDL
MODEL 4
REMARK VINA RESULT:      -7.2      3.058      5.188
REMARK  4 active torsions:
REMARK  status: ('A' for Active; 'I' for Inactive)
REMARK    1  A    between atoms: C_6  and  C_1 
REMARK    2  A    between atoms: C_8  and  C_5 
REMARK    3  A    between atoms: C_9  and  C_8 
REMARK    4  A    between atoms: C_13  and  C_9 
ROOT
ATOM      1  C   UNL d   1      48.810  35.244  52.503  0.00  0.00     0.210 A 
ATOM      2  N   UNL d   1      48.942  34.863  51.781  0.00  0.00    -0.120 NA
ATOM      3  O   UNL d   1      49.382  35.036  53.019  0.00  0.00    -0.268 OA
ATOM      4  N   UNL d   1      49.626  34.410  51.884  0.00  0.00    -0.121 NA
ATOM      5  C   UNL d   1      49.923  34.488  52.623  0.00  0.00     0.205 A 
ENDROOT
BRANCH   5   6
ATOM      6  C   UNL d   1      50.598  34.111  52.901  0.00  0.00     0.046 C 
BRANCH   6   7
ATOM      7  C   UNL d   1      51.328  34.304  52.591  0.00  0.00     0.004 C 
BRANCH   7   8
ATOM      8  C   UNL d   1      52.021  34.003  52.928  0.00  0.00     0.000 A 
ATOM      9  C   UNL d   1      52.185  33.177  52.898  0.00  0.00     0.002 A 
ATOM     10  C   UNL d   1      52.880  32.877  53.237  0.00  0.00     0.030 A 
ATOM     11  C   UNL d   1      53.406  33.393  53.602  0.00  0.00     0.140 A 
ATOM     12  C   UNL d   1      53.247  34.220  53.634  0.00  0.00     0.030 A 
ATOM     13  F   UNL d   1      54.104  33.093  53.942  0.00  0.00    -0.204 F 
ATOM     14  C   UNL d   1      52.556  34.502  53.295  0.00  0.00     0.002 A 
ENDBRANCH   7   8
ENDBRANCH   6   7
ENDBRANCH   5   6
BRANCH   1  15
ATOM     15  C   UNL d   1      48.184  35.762  52.671  0.00  0.00     0.072 A 
ATOM     16  S   UNL d   1      47.572  35.986  52.162  0.00  0.00    -0.083 SA
ATOM     17  C   UNL d   1      47.078  36.510  52.567  0.00  0.00     0.035 A 
ATOM     18  C   UNL d   1      47.382  36.611  53.326  0.00  0.00     0.008 A 
ATOM     19  C   UNL d   1      48.070  36.145  53.389  0.00  0.00     0.011 A 
ENDBRANCH   1  15
TORSDOF 4
ENDMDL
MODEL 5
REMARK VINA RESULT:      -7.1      3.059      4.330
REMARK  4 active torsions:
REMARK  status: ('A' for Active; 'I' for Inactive)
REMARK    1  A    between atoms: C_6  and  C_1 
REMARK    2  A    between atoms: C_8  and  C_5 
REMARK    3  A    between atoms: C_9  and  C_8 
REMARK    4  A    between atoms: C_13  and  C_9 
ROOT
ATOM      1  C   UNL d   1      52.628  33.730  53.438  0.00  0.00     0.210 A 
ATOM      2  N   UNL d   1      52.270  33.742  52.693  0.00  0.00    -0.120 NA
ATOM      3  O   UNL d   1      52.726  32.973  53.671  0.00  0.00    -0.268 OA
ATOM      4  N   UNL d   1      52.154  32.950  52.483  0.00  0.00    -0.121 NA
ATOM      5  C   UNL d   1      52.418  32.452  53.051  0.00  0.00     0.205 A 
ENDROOT
BRANCH   5   6
ATOM      6  C   UNL d   1      52.383  31.633  53.011  0.00  0.00     0.046 C 
BRANCH   6   7
ATOM      7  C   UNL d   1      53.074  31.199  52.970  0.00  0.00     0.004 C 
BRANCH   7   8
ATOM      8  C   UNL d   1      53.137  30.472  53.360  0.00  0.00     0.000 A 
ATOM      9  C   UNL d   1      52.630  29.832  53.153  0.00  0.00     0.002 A 
ATOM     10  C   UNL d   1      52.695  29.104  53.546  0.00  0.00     0.030 A 
ATOM     11  C   UNL d   1      53.258  29.014  54.139  0.00  0.00     0.140 A 
ATOM     12  C   UNL d   1      53.767  29.652  54.350  0.00  0.00     0.030 A 
ATOM     13  F   UNL d   1      53.324  28.285  54.534  0.00  0.00    -0.204 F 
ATOM     14  C   UNL d   1      53.692  30.365  53.953  0.00  0.00     0.002 A 
ENDBRANCH   7   8
ENDBRANCH   6   7
ENDBRANCH   5   6
BRANCH   1  15
ATOM     15  C   UNL d   1      52.852  34.395  53.880  0.00  0.00     0.072 A 
ATOM     16  S   UNL d   1      53.286  34.401  54.585  0.00  0.00    -0.083 SA
ATOM     17  C   UNL d   1      53.377  35.187  54.825  0.00  0.00     0.035 A 
ATOM     18  C   UNL d   1      53.002  35.667  54.270  0.00  0.00     0.008 A 
ATOM     19  C   UNL d   1      52.676  35.173  53.683  0.00  0.00     0.011 A 
ENDBRANCH   1  15
TORSDOF 4
ENDMDL
MODEL 6
REMARK VINA RESULT:      -5.3     10.178     10.795
REMARK  4 active torsions:
REMARK  status: ('A' for Active; 'I' for Inactive)
REMARK    1  A    between atoms: C_6  and  C_1 
REMARK    2  A    between atoms: C_8  and  C_5 
REMARK    3  A    between atoms: C_9  and  C_8 
REMARK    4  A    between atoms: C_13  and  C_9 
ROOT
ATOM      1  C   UNL d   1      44.703  30.342  60.094  0.00  0.00     0.210 A 
ATOM      2  N   UNL d   1      44.991  30.795  59.466  0.00  0.00    -0.120 NA
ATOM      3  O   UNL d   1      44.531  29.608  59.834  0.00  0.00    -0.268 OA
ATOM      4  N   UNL d   1      44.987  30.296  58.806  0.00  0.00    -0.121 NA
ATOM      5  C   UNL d   1      44.714  29.566  58.989  0.00  0.00     0.205 A 
ENDROOT
BRANCH   5   6
ATOM      6  C   UNL d   1      44.641  28.944  58.457  0.00  0.00     0.046 C 
BRANCH   6   7
ATOM      7  C   UNL d   1      45.310  28.597  58.144  0.00  0.00     0.004 C 
BRANCH   7   8
ATOM      8  C   UNL d   1      45.249  27.933  57.655  0.00  0.00     0.000 A 
ATOM      9  C   UNL d   1      44.920  28.002  56.882  0.00  0.00     0.002 A 
ATOM     10  C   UNL d   1      44.859  27.335  56.392  0.00  0.00     0.030 A 
ATOM     11  C   UNL d   1      45.122  26.607  56.669  0.00  0.00     0.140 A 
ATOM     12  C   UNL d   1      45.452  26.532  57.441  0.00  0.00     0.030 A 
ATOM     13  F   UNL d   1      45.062  25.936  56.179  0.00  0.00    -0.204 F 
ATOM     14  C   UNL d   1      45.506  27.199  57.913  0.00  0.00     0.002 A 
ENDBRANCH   7   8
ENDBRANCH   6   7
ENDBRANCH   5   6
BRANCH   1  15
ATOM     15  C   UNL d   1      44.604  30.604  60.876  0.00  0.00     0.072 A 
ATOM     16  S   UNL d   1      44.314  31.338  61.123  0.00  0.00    -0.083 SA
ATOM     17  C   UNL d   1      44.314  31.352  61.948  0.00  0.00     0.035 A 
ATOM     18  C   UNL d   1      44.603  30.628  62.214  0.00  0.00     0.008 A 
ATOM     19  C   UNL d   1      44.783  30.163  61.546  0.00  0.00     0.011 A 
ENDBRANCH   1  15
TORSDOF 4
ENDMDL
MODEL 7
REMARK VINA RESULT:      -5.3     10.396     10.928
REMARK  4 active torsions:
REMARK  status: ('A' for Active; 'I' for Inactive)
REMARK    1  A    between atoms: C_6  and  C_1 
REMARK    2  A    between atoms: C_8  and  C_5 
REMARK    3  A    between atoms: C_9  and  C_8 
REMARK    4  A    between atoms: C_13  and  C_9 
ROOT
ATOM      1  C   UNL d   1      44.709  29.984  61.763  0.00  0.00     0.210 A 
ATOM      2  N   UNL d   1      45.031  30.745  61.776  0.00  0.00    -0.120 NA
ATOM      3  O   UNL d   1      44.502  29.798  61.015  0.00  0.00    -0.268 OA
ATOM      4  N   UNL d   1      45.011  31.015  60.994  0.00  0.00    -0.121 NA
ATOM      5  C   UNL d   1      44.696  30.468  60.502  0.00  0.00     0.205 A 
ENDROOT
BRANCH   5   6
ATOM      6  C   UNL d   1      44.599  30.566  59.692  0.00  0.00     0.046 C 
BRANCH   6   7
ATOM      7  C   UNL d   1      45.128  30.222  59.175  0.00  0.00     0.004 C 
BRANCH   7   8
ATOM      8  C   UNL d   1      45.005  30.264  58.358  0.00  0.00     0.000 A 
ATOM      9  C   UNL d   1      44.968  29.560  57.896  0.00  0.00     0.002 A 
ATOM     10  C   UNL d   1      44.844  29.604  57.077  0.00  0.00     0.030 A 
ATOM     11  C   UNL d   1      44.759  30.340  56.721  0.00  0.00     0.140 A 
ATOM     12  C   UNL d   1      44.796  31.047  57.179  0.00  0.00     0.030 A 
ATOM     13  F   UNL d   1      44.635  30.386  55.899  0.00  0.00    -0.204 F 
ATOM     14  C   UNL d   1      44.918  30.988  57.986  0.00  0.00     0.002 A 
ENDBRANCH   7   8
ENDBRANCH   6   7
ENDBRANCH   5   6
BRANCH   1  15
ATOM     15  C   UNL d   1      44.612  29.486  62.420  0.00  0.00     0.072 A 
ATOM     16  S   UNL d   1      44.781  28.677  62.461  0.00  0.00    -0.083 SA
ATOM     17  C   UNL d   1      44.598  28.413  63.222  0.00  0.00     0.035 A 
ATOM     18  C   UNL d   1      44.315  29.057  63.653  0.00  0.00     0.008 A 
ATOM     19  C   UNL d   1      44.325  29.723  63.152  0.00  0.00     0.011 A 
ENDBRANCH   1  15
TORSDOF 4
ENDMDL
MODEL 8
REMARK VINA RESULT:      -5.3     10.613     11.378
REMARK  4 active torsions:
REMARK  status: ('A' for Active; 'I' for Inactive)
REMARK    1  A    between atoms: C_6  and  C_1 
REMARK    2  A    between atoms: C_8  and  C_5 
REMARK    3  A    between atoms: C_9  and  C_8 
REMARK    4  A    between atoms: C_13  and  C_9 
ROOT
ATOM      1  C   UNL d   1      45.074  29.183  58.595  0.00  0.00     0.210 A 
ATOM      2  N   UNL d   1      45.299  29.970  58.485  0.00  0.00    -0.120 NA
ATOM      3  O   UNL d   1      44.918  29.059  59.368  0.00  0.00    -0.268 OA
ATOM      4  N   UNL d   1      45.272  30.322  59.233  0.00  0.00    -0.121 NA
ATOM      5  C   UNL d   1      45.044  29.800  59.796  0.00  0.00     0.205 A 
ENDROOT
BRANCH   5   6
ATOM      6  C   UNL d   1      44.962  29.976  60.595  0.00  0.00     0.046 C 
BRANCH   6   7
ATOM      7  C   UNL d   1      44.404  30.521  60.836  0.00  0.00     0.004 C 
BRANCH   7   8
ATOM      8  C   UNL d   1      44.382  30.780  61.621  0.00  0.00     0.000 A 
ATOM      9  C   UNL d   1      44.375  30.223  62.253  0.00  0.00     0.002 A 
ATOM     10  C   UNL d   1      44.353  30.484  63.040  0.00  0.00     0.030 A 
ATOM     11  C   UNL d   1      44.337  31.292  63.196  0.00  0.00     0.140 A 
ATOM     12  C   UNL d   1      44.343  31.852  62.567  0.00  0.00     0.030 A 
ATOM     13  F   UNL d   1      44.314  31.555  63.985  0.00  0.00    -0.204 F 
ATOM     14  C   UNL d   1      44.365  31.580  61.796  0.00  0.00     0.002 A 
ENDBRANCH   7   8
ENDBRANCH   6   7
ENDBRANCH   5   6
BRANCH   1  15
ATOM     15  C   UNL d   1      45.018  28.606  58.001  0.00  0.00     0.072 A 
ATOM     16  S   UNL d   1      45.010  27.785  58.104  0.00  0.00    -0.083 SA
ATOM     17  C   UNL d   1      44.946  27.432  57.359  0.00  0.00     0.035 A 
ATOM     18  C   UNL d   1      44.914  28.033  56.796  0.00  0.00     0.008 A 
ATOM     19  C   UNL d   1      44.959  28.762  57.197  0.00  0.00     0.011 A 
ENDBRANCH   1  15
TORSDOF 4
ENDMDL
MODEL 9
REMARK VINA RESULT:      -5.0     10.373     11.113
REMARK  4 active torsions:
REMARK  status: ('A' for Active; 'I' for Inactive)
REMARK    1  A    between atoms: C_6  and  C_1 
REMARK    2  A    between atoms: C_8  and  C_5 
REMARK    3  A    between atoms: C_9  and  C_8 
REMARK    4  A    between atoms: C_13  and  C_9 
ROOT
ATOM      1  C   UNL d   1      44.603  25.056  56.063  0.00  0.00     0.210 A 
ATOM      2  N   UNL d   1      44.576  24.871  56.868  0.00  0.00    -0.120 NA
ATOM      3  O   UNL d   1      44.560  25.848  55.973  0.00  0.00    -0.268 OA
ATOM      4  N   UNL d   1      44.515  25.593  57.267  0.00  0.00    -0.121 NA
ATOM      5  C   UNL d   1      44.502  26.211  56.758  0.00  0.00     0.205 A 
ENDROOT
BRANCH   5   6
ATOM      6  C   UNL d   1      44.445  27.000  56.978  0.00  0.00     0.046 C 
BRANCH   6   7
ATOM      7  C   UNL d   1      45.099  27.486  56.922  0.00  0.00     0.004 C 
BRANCH   7   8
ATOM      8  C   UNL d   1      45.046  28.287  57.121  0.00  0.00     0.000 A 
ATOM      9  C   UNL d   1      45.146  28.534  57.920  0.00  0.00     0.002 A 
ATOM     10  C   UNL d   1      45.092  29.338  58.119  0.00  0.00     0.030 A 
ATOM     11  C   UNL d   1      44.941  29.889  57.528  0.00  0.00     0.140 A 
ATOM     12  C   UNL d   1      44.840  29.647  56.727  0.00  0.00     0.030 A 
ATOM     13  F   UNL d   1      44.886  30.696  57.726  0.00  0.00    -0.204 F 
ATOM     14  C   UNL d   1      44.896  28.850  56.546  0.00  0.00     0.002 A 
ENDBRANCH   7   8
ENDBRANCH   6   7
ENDBRANCH   5   6
BRANCH   1  15
ATOM     15  C   UNL d   1      44.664  24.511  55.441  0.00  0.00     0.072 A 
ATOM     16  S   UNL d   1      45.036  23.772  55.461  0.00  0.00    -0.083 SA
ATOM     17  C   UNL d   1      44.959  23.424  54.716  0.00  0.00     0.035 A 
ATOM     18  C   UNL d   1      44.540  23.945  54.234  0.00  0.00     0.008 A 
ATOM     19  C   UNL d   1      44.357  24.620  54.687  0.00  0.00     0.011 A 
ENDBRANCH   1  15
TORSDOF 4
ENDMDL
