MODEL 1
REMARK VINA RESULT:      58.5      0.000      0.000
REMARK  3 active torsions:
REMARK  status: ('A' for Active; 'I' for Inactive)
REMARK    1  A    between atoms: C_10  and  C_1 
REMARK    2  A    between atoms: C_8  and  N_5 
REMARK    3  A    between atoms: N_9  and  C_10 
ROOT
ATOM      1  C   UNL d   1      15.331  13.254  -0.800  0.00  0.00     0.084 C 
ENDROOT
BRANCH   1   2
ATOM      2  N   UNL d   1      15.370  14.078  -0.754  0.00  0.00    -0.300 N 
ATOM      3  C   UNL d   1      15.712  14.438  -0.098  0.00  0.00     0.100 A 
ATOM      4  C   UNL d   1      15.751  15.265  -0.050  0.00  0.00     0.101 A 
ATOM      5  N   UNL d   1      15.446  15.726  -0.662  0.00  0.00    -0.286 N 
ATOM      6  C   UNL d   1      15.097  15.365  -1.330  0.00  0.00     0.101 A 
ATOM      7  C   UNL d   1      15.061  14.528  -1.371  0.00  0.00     0.100 A 
BRANCH   5   8
ATOM      8  C   UNL d   1      15.477  16.545  -0.631  0.00  0.00     0.148 A 
ATOM      9  N   UNL d   1      14.783  16.980  -0.818  0.00  0.00    -0.227 NA
ATOM     10  C   UNL d   1      14.806  17.814  -0.789  0.00  0.00     0.101 A 
ATOM     11  C   UNL d   1      15.505  18.196  -0.578  0.00  0.00     0.021 A 
ATOM     12  C   UNL d   1      16.186  17.760  -0.395  0.00  0.00     0.005 A 
ATOM     13  C   UNL d   1      16.170  16.938  -0.421  0.00  0.00     0.037 A 
ENDBRANCH   5   8
ENDBRANCH   1   2
BRANCH   1  14
ATOM     14  C   UNL d   1      14.700  12.885  -1.192  0.00  0.00     0.059 A 
ATOM     15  C   UNL d   1      14.671  12.889  -2.031  0.00  0.00     0.214 A 
ATOM     16  C   UNL d   1      14.039  12.519  -2.403  0.00  0.00     0.121 A 
ATOM     17  O   UNL d   1      15.263  13.254  -2.465  0.00  0.00    -0.285 OA
ATOM     18  N   UNL d   1      14.006  12.520  -3.225  0.00  0.00    -0.241 NA
ATOM     19  C   UNL d   1      13.450  12.155  -1.970  0.00  0.00     0.032 A 
ATOM     20  C   UNL d   1      13.369  12.148  -3.627  0.00  0.00     0.099 A 
ATOM     21  C   UNL d   1      12.774  11.781  -3.191  0.00  0.00     0.021 A 
ATOM     22  C   UNL d   1      12.813  11.783  -2.359  0.00  0.00     0.004 A 
ATOM     23  C   UNL d   1      13.472  12.149  -1.152  0.00  0.00     0.059 A 
ATOM     24  C   UNL d   1      14.115  12.524  -0.753  0.00  0.00     0.016 A 
ATOM     25 CL   UNL d   1      12.874  11.780  -0.713  0.00  0.00    -0.082 Cl
ENDBRANCH   1  14
TORSDOF 3
ENDMDL
MODEL 2
REMARK VINA RESULT:      60.7      2.178      2.988
REMARK  3 active torsions:
REMARK  status: ('A' for Active; 'I' for Inactive)
REMARK    1  A    between atoms: C_10  and  C_1 
REMARK    2  A    between atoms: C_8  and  N_5 
REMARK    3  A    between atoms: N_9  and  C_10 
ROOT
ATOM      1  C   UNL d   1      14.965  15.472  -0.470  0.00  0.00     0.084 C 
ENDROOT
BRANCH   1   2
ATOM      2  N   UNL d   1      14.984  15.805  -1.225  0.00  0.00    -0.300 N 
ATOM      3  C   UNL d   1      14.562  15.457  -1.839  0.00  0.00     0.100 A 
ATOM      4  C   UNL d   1      14.579  15.790  -2.599  0.00  0.00     0.101 A 
ATOM      5  N   UNL d   1      15.022  16.471  -2.737  0.00  0.00    -0.286 N 
ATOM      6  C   UNL d   1      15.453  16.830  -2.117  0.00  0.00     0.101 A 
ATOM      7  C   UNL d   1      15.430  16.487  -1.352  0.00  0.00     0.100 A 
BRANCH   5   8
ATOM      8  C   UNL d   1      15.051  16.815  -3.482  0.00  0.00     0.148 A 
ATOM      9  N   UNL d   1      15.225  16.326  -4.142  0.00  0.00    -0.227 NA
ATOM     10  C   UNL d   1      15.256  16.668  -4.904  0.00  0.00     0.101 A 
ATOM     11  C   UNL d   1      15.116  17.475  -4.995  0.00  0.00     0.021 A 
ATOM     12  C   UNL d   1      14.945  17.951  -4.338  0.00  0.00     0.005 A 
ATOM     13  C   UNL d   1      14.912  17.620  -3.585  0.00  0.00     0.037 A 
ENDBRANCH   5   8
ENDBRANCH   1   2
BRANCH   1  14
ATOM     14  C   UNL d   1      14.952  14.648  -0.376  0.00  0.00     0.059 A 
ATOM     15  C   UNL d   1      14.218  14.248  -0.301  0.00  0.00     0.214 A 
ATOM     16  C   UNL d   1      14.225  13.432  -0.208  0.00  0.00     0.121 A 
ATOM     17  O   UNL d   1      13.514  14.667  -0.320  0.00  0.00    -0.285 OA
ATOM     18  N   UNL d   1      13.507  13.036  -0.134  0.00  0.00    -0.241 NA
ATOM     19  C   UNL d   1      14.926  13.015  -0.189  0.00  0.00     0.032 A 
ATOM     20  C   UNL d   1      13.488  12.202  -0.039  0.00  0.00     0.099 A 
ATOM     21  C   UNL d   1      14.196  11.780  -0.020  0.00  0.00     0.021 A 
ATOM     22  C   UNL d   1      14.919  12.187  -0.095  0.00  0.00     0.004 A 
ATOM     23  C   UNL d   1      15.645  13.400  -0.262  0.00  0.00     0.059 A 
ATOM     24  C   UNL d   1      15.658  14.239  -0.358  0.00  0.00     0.016 A 
ATOM     25 CL   UNL d   1      16.357  12.977  -0.243  0.00  0.00    -0.082 Cl
ENDBRANCH   1  14
TORSDOF 3
ENDMDL
MODEL 3
REMARK VINA RESULT:      60.8      2.832      3.821
REMARK  3 active torsions:
REMARK  status: ('A' for Active; 'I' for Inactive)
REMARK    1  A    between atoms: C_10  and  C_1 
REMARK    2  A    between atoms: C_8  and  N_5 
REMARK    3  A    between atoms: N_9  and  C_10 
ROOT
ATOM      1  C   UNL d   1      13.506  13.290  -3.259  0.00  0.00     0.084 C 
ENDROOT
BRANCH   1   2
ATOM      2  N   UNL d   1      13.588  13.949  -3.749  0.00  0.00    -0.300 N 
ATOM      3  C   UNL d   1      14.302  14.356  -3.775  0.00  0.00     0.100 A 
ATOM      4  C   UNL d   1      14.387  15.018  -4.267  0.00  0.00     0.101 A 
ATOM      5  N   UNL d   1      13.753  15.268  -4.731  0.00  0.00    -0.286 N 
ATOM      6  C   UNL d   1      13.025  14.858  -4.709  0.00  0.00     0.101 A 
ATOM      7  C   UNL d   1      12.947  14.189  -4.208  0.00  0.00     0.100 A 
BRANCH   5   8
ATOM      8  C   UNL d   1      13.819  15.921  -5.223  0.00  0.00     0.148 A 
ATOM      9  N   UNL d   1      14.367  16.523  -5.020  0.00  0.00    -0.227 NA
ATOM     10  C   UNL d   1      14.440  17.191  -5.516  0.00  0.00     0.101 A 
ATOM     11  C   UNL d   1      13.976  17.249  -6.194  0.00  0.00     0.021 A 
ATOM     12  C   UNL d   1      13.436  16.649  -6.389  0.00  0.00     0.005 A 
ATOM     13  C   UNL d   1      13.360  15.989  -5.904  0.00  0.00     0.037 A 
ENDBRANCH   5   8
ENDBRANCH   1   2
BRANCH   1  14
ATOM     14  C   UNL d   1      13.889  13.264  -2.524  0.00  0.00     0.059 A 
ATOM     15  C   UNL d   1      14.171  12.532  -2.225  0.00  0.00     0.214 A 
ATOM     16  C   UNL d   1      14.549  12.526  -1.496  0.00  0.00     0.121 A 
ATOM     17  O   UNL d   1      14.070  11.842  -2.655  0.00  0.00    -0.285 OA
ATOM     18  N   UNL d   1      14.827  11.811  -1.199  0.00  0.00    -0.241 NA
ATOM     19  C   UNL d   1      14.650  13.213  -1.067  0.00  0.00     0.032 A 
ATOM     20  C   UNL d   1      15.216  11.780  -0.455  0.00  0.00     0.099 A 
ATOM     21  C   UNL d   1      15.318  12.473  -0.023  0.00  0.00     0.021 A 
ATOM     22  C   UNL d   1      15.034  13.195  -0.328  0.00  0.00     0.004 A 
ATOM     23  C   UNL d   1      14.376  13.931  -1.353  0.00  0.00     0.059 A 
ATOM     24  C   UNL d   1      13.986  13.956  -2.102  0.00  0.00     0.016 A 
ATOM     25 CL   UNL d   1      14.479  14.628  -0.918  0.00  0.00    -0.082 Cl
ENDBRANCH   1  14
TORSDOF 3
ENDMDL
