MODEL 1
REMARK VINA RESULT:      82.7      0.000      0.000
REMARK  7 active torsions:
REMARK  status: ('A' for Active; 'I' for Inactive)
REMARK    1  A    between atoms: N_6  and  S_1 
REMARK    2  A    between atoms: C_9  and  S_1 
REMARK    3  A    between atoms: N_2  and  C_11 
REMARK    4  A    between atoms: C_14  and  C_3 
REMARK    5  A    between atoms: C_7  and  C_15 
REMARK       I    between atoms: N_10  and  C_7 
REMARK    6  A    between atoms: C_25  and  N_10 
REMARK    7  A    between atoms: O_33  and  C_26 
ROOT
ATOM      1  C   UNL d   1      15.108  13.913  -1.353  0.00  0.00     0.085 A 
ATOM      2  C   UNL d   1      14.391  14.314  -1.344  0.00  0.00     0.021 A 
ATOM      3  C   UNL d   1      15.753  14.214  -1.770  0.00  0.00     0.021 A 
ATOM      4  C   UNL d   1      14.953  15.334  -2.177  0.00  0.00     0.085 A 
ATOM      5  C   UNL d   1      14.309  15.030  -1.757  0.00  0.00     0.021 A 
ATOM      6  C   UNL d   1      15.683  14.921  -2.183  0.00  0.00     0.021 A 
ENDROOT
BRANCH   4   7
ATOM      7  N   UNL d   1      14.878  16.052  -2.594  0.00  0.00    -0.208 NA
ATOM      8  C   UNL d   1      14.947  16.054  -3.412  0.00  0.00     0.279 C 
ATOM      9  O   UNL d   1      15.090  15.356  -3.821  0.00  0.00    -0.265 OA
BRANCH   8  10
ATOM     10  C   UNL d   1      14.872  16.775  -3.837  0.00  0.00     0.058 A 
ATOM     11  C   UNL d   1      15.071  16.794  -4.624  0.00  0.00     0.005 A 
ATOM     12  C   UNL d   1      14.998  17.496  -5.040  0.00  0.00     0.013 A 
ATOM     13  C   UNL d   1      14.732  18.168  -4.674  0.00  0.00     0.104 A 
ATOM     14  C   UNL d   1      14.531  18.149  -3.879  0.00  0.00     0.013 A 
ATOM     15  C   UNL d   1      14.604  17.444  -3.461  0.00  0.00     0.005 A 
BRANCH  13  16
ATOM     16  S   UNL d   1      14.661  18.879  -5.104  0.00  0.00     0.271 S 
ATOM     17  O   UNL d   1      15.476  18.944  -5.122  0.00  0.00    -0.200 OA
ATOM     18  O   UNL d   1      13.846  18.803  -5.080  0.00  0.00    -0.200 OA
BRANCH  16  19
ATOM     19  N   UNL d   1      14.575  19.581  -5.530  0.00  0.00    -0.229 N 
ATOM     20  C   UNL d   1      15.216  20.063  -5.700  0.00  0.00     0.092 A 
ATOM     21  C   UNL d   1      15.115  20.770  -6.131  0.00  0.00     0.020 A 
ATOM     22  C   UNL d   1      14.371  20.988  -6.388  0.00  0.00     0.003 A 
ATOM     23  C   UNL d   1      13.715  20.511  -6.224  0.00  0.00     0.020 A 
ATOM     24  C   UNL d   1      13.817  19.804  -5.793  0.00  0.00     0.092 A 
ENDBRANCH  16  19
ENDBRANCH  13  16
ENDBRANCH   8  10
ENDBRANCH   4   7
BRANCH   1  25
ATOM     25  N   UNL d   1      15.190  13.197  -0.939  0.00  0.00    -0.211 N 
ATOM     26  C   UNL d   1      14.854  12.464  -1.148  0.00  0.00     0.105 A 
ATOM     27  C   UNL d   1      15.084  11.911  -0.578  0.00  0.00     0.143 A 
ATOM     28  N   UNL d   1      15.561  12.292  -0.015  0.00  0.00    -0.127 NA
ATOM     29  N   UNL d   1      15.627  13.088  -0.238  0.00  0.00    -0.060 NA
BRANCH  26  30
ATOM     30  C   UNL d   1      14.383  12.320  -1.799  0.00  0.00     0.019 A 
ATOM     31  C   UNL d   1      13.629  11.998  -1.698  0.00  0.00     0.004 A 
ATOM     32  C   UNL d   1      13.153  11.853  -2.356  0.00  0.00     0.024 A 
ATOM     33  C   UNL d   1      13.422  12.025  -3.108  0.00  0.00     0.094 A 
ATOM     34  C   UNL d   1      14.183  12.350  -3.211  0.00  0.00     0.024 A 
ATOM     35  C   UNL d   1      14.662  12.497  -2.556  0.00  0.00     0.004 A 
BRANCH  33  36
ATOM     36  O   UNL d   1      12.954  11.883  -3.767  0.00  0.00    -0.328 OA
ATOM     37  C   UNL d   1      13.198  12.115  -4.516  0.00  0.00     0.181 C 
ENDBRANCH  33  36
ENDBRANCH  26  30
ENDBRANCH   1  25
TORSDOF 7
ENDMDL
MODEL 2
REMARK VINA RESULT:      83.4      1.857      2.657
REMARK  7 active torsions:
REMARK  status: ('A' for Active; 'I' for Inactive)
REMARK    1  A    between atoms: N_6  and  S_1 
REMARK    2  A    between atoms: C_9  and  S_1 
REMARK    3  A    between atoms: N_2  and  C_11 
REMARK    4  A    between atoms: C_14  and  C_3 
REMARK    5  A    between atoms: C_7  and  C_15 
REMARK       I    between atoms: N_10  and  C_7 
REMARK    6  A    between atoms: C_25  and  N_10 
REMARK    7  A    between atoms: O_33  and  C_26 
ROOT
ATOM      1  C   UNL d   1      13.382  13.834  -4.283  0.00  0.00     0.085 A 
ATOM      2  C   UNL d   1      14.146  14.084  -4.452  0.00  0.00     0.021 A 
ATOM      3  C   UNL d   1      12.769  14.381  -4.199  0.00  0.00     0.021 A 
ATOM      4  C   UNL d   1      13.697  15.445  -4.456  0.00  0.00     0.085 A 
ATOM      5  C   UNL d   1      14.309  14.894  -4.540  0.00  0.00     0.021 A 
ATOM      6  C   UNL d   1      12.919  15.184  -4.284  0.00  0.00     0.021 A 
ENDROOT
BRANCH   4   7
ATOM      7  N   UNL d   1      13.854  16.258  -4.543  0.00  0.00    -0.208 NA
ATOM      8  C   UNL d   1      13.992  16.567  -5.291  0.00  0.00     0.279 C 
ATOM      9  O   UNL d   1      13.977  16.081  -5.953  0.00  0.00    -0.265 OA
BRANCH   8  10
ATOM     10  C   UNL d   1      14.150  17.387  -5.384  0.00  0.00     0.058 A 
ATOM     11  C   UNL d   1      14.729  17.734  -4.931  0.00  0.00     0.005 A 
ATOM     12  C   UNL d   1      14.884  18.532  -5.021  0.00  0.00     0.013 A 
ATOM     13  C   UNL d   1      14.467  18.978  -5.554  0.00  0.00     0.104 A 
ATOM     14  C   UNL d   1      13.882  18.628  -6.011  0.00  0.00     0.013 A 
ATOM     15  C   UNL d   1      13.727  17.826  -5.921  0.00  0.00     0.005 A 
BRANCH  13  16
ATOM     16  S   UNL d   1      14.631  19.792  -5.639  0.00  0.00     0.271 S 
ATOM     17  O   UNL d   1      13.828  19.946  -5.664  0.00  0.00    -0.200 OA
ATOM     18  O   UNL d   1      15.432  19.624  -5.612  0.00  0.00    -0.200 OA
BRANCH  16  19
ATOM     19  N   UNL d   1      14.809  20.594  -5.722  0.00  0.00    -0.229 N 
ATOM     20  C   UNL d   1      15.527  20.903  -5.479  0.00  0.00     0.092 A 
ATOM     21  C   UNL d   1      15.693  21.716  -5.569  0.00  0.00     0.020 A 
ATOM     22  C   UNL d   1      15.136  22.211  -5.904  0.00  0.00     0.003 A 
ATOM     23  C   UNL d   1      14.406  21.911  -6.154  0.00  0.00     0.020 A 
ATOM     24  C   UNL d   1      14.241  21.099  -6.063  0.00  0.00     0.092 A 
ENDBRANCH  16  19
ENDBRANCH  13  16
ENDBRANCH   8  10
ENDBRANCH   4   7
BRANCH   1  25
ATOM     25  N   UNL d   1      13.219  13.025  -4.195  0.00  0.00    -0.211 N 
ATOM     26  C   UNL d   1      13.435  12.543  -3.551  0.00  0.00     0.105 A 
ATOM     27  C   UNL d   1      13.157  11.780  -3.702  0.00  0.00     0.143 A 
ATOM     28  N   UNL d   1      12.769  11.780  -4.437  0.00  0.00    -0.127 NA
ATOM     29  N   UNL d   1      12.807  12.549  -4.742  0.00  0.00    -0.060 NA
BRANCH  26  30
ATOM     30  C   UNL d   1      13.848  12.785  -2.889  0.00  0.00     0.019 A 
ATOM     31  C   UNL d   1      13.479  12.779  -2.150  0.00  0.00     0.004 A 
ATOM     32  C   UNL d   1      13.896  13.024  -1.481  0.00  0.00     0.024 A 
ATOM     33  C   UNL d   1      14.671  13.272  -1.544  0.00  0.00     0.094 A 
ATOM     34  C   UNL d   1      15.045  13.278  -2.290  0.00  0.00     0.024 A 
ATOM     35  C   UNL d   1      14.631  13.035  -2.961  0.00  0.00     0.004 A 
BRANCH  33  36
ATOM     36  O   UNL d   1      15.093  13.516  -0.883  0.00  0.00    -0.328 OA
ATOM     37  C   UNL d   1      14.865  13.286  -0.129  0.00  0.00     0.181 C 
ENDBRANCH  33  36
ENDBRANCH  26  30
ENDBRANCH   1  25
TORSDOF 7
ENDMDL
