MODEL 1
REMARK VINA RESULT:      -4.0      0.000      0.000
REMARK  2 active torsions:
REMARK  status: ('A' for Active; 'I' for Inactive)
REMARK       I    between atoms: C_9  and  N_1 
REMARK    1  A    between atoms: C_5  and  C_3 
REMARK    2  A    between atoms: C_8  and  C_4 
ROOT
ATOM      1  N   UNL d   1      57.637   0.269  32.297  0.00  0.00    -0.193 N 
ATOM      2  N   UNL d   1      58.106   0.334  31.642  0.00  0.00    -0.162 NA
ATOM      3  C   UNL d   1      56.889   0.019  32.052  0.00  0.00     0.110 A 
ATOM      4  C   UNL d   1      57.662   0.126  30.976  0.00  0.00     0.109 A 
ATOM      5  C   UNL d   1      56.914  -0.065  31.251  0.00  0.00     0.043 A 
ATOM      6  C   UNL d   1      57.835   0.432  33.205  0.00  0.00     0.281 C 
ATOM      7  O   UNL d   1      57.244   0.317  33.735  0.00  0.00    -0.265 OA
ATOM      8  C   UNL d   1      58.583   0.682  33.450  0.00  0.00     0.068 C 
ENDROOT
BRANCH   3   9
ATOM      9  C   UNL d   1      56.261  -0.112  32.544  0.00  0.00     0.118 A 
ATOM     10  O   UNL d   1      55.718   0.463  32.779  0.00  0.00    -0.306 OA
ATOM     11  C   UNL d   1      55.166   0.093  33.282  0.00  0.00     0.100 A 
ATOM     12  C   UNL d   1      54.520   0.481  33.644  0.00  0.00     0.027 C 
ATOM     13  C   UNL d   1      55.360  -0.705  33.362  0.00  0.00     0.027 A 
ATOM     14  C   UNL d   1      56.034  -0.827  32.906  0.00  0.00     0.028 A 
ENDBRANCH   3   9
BRANCH   4  15
ATOM     15  C   UNL d   1      57.922   0.114  30.193  0.00  0.00     0.049 A 
ATOM     16  S   UNL d   1      58.377  -0.459  29.858  0.00  0.00    -0.085 SA
ATOM     17  C   UNL d   1      58.507  -0.262  29.088  0.00  0.00     0.035 A 
ATOM     18  C   UNL d   1      58.119   0.454  28.948  0.00  0.00     0.007 A 
ATOM     19  C   UNL d   1      57.759   0.682  29.636  0.00  0.00     0.009 A 
ENDBRANCH   4  15
TORSDOF 2
ENDMDL
MODEL 2
REMARK VINA RESULT:      -3.8      2.382      4.341
REMARK  2 active torsions:
REMARK  status: ('A' for Active; 'I' for Inactive)
REMARK       I    between atoms: C_9  and  N_1 
REMARK    1  A    between atoms: C_5  and  C_3 
REMARK    2  A    between atoms: C_8  and  C_4 
ROOT
ATOM      1  N   UNL d   1      58.214  -0.370  29.682  0.00  0.00    -0.193 N 
ATOM      2  N   UNL d   1      57.780   0.055  30.215  0.00  0.00    -0.162 NA
ATOM      3  C   UNL d   1      58.271  -1.146  29.960  0.00  0.00     0.110 A 
ATOM      4  C   UNL d   1      57.558  -0.444  30.835  0.00  0.00     0.109 A 
ATOM      5  C   UNL d   1      57.871  -1.180  30.659  0.00  0.00     0.043 A 
ATOM      6  C   UNL d   1      58.614  -0.102  28.871  0.00  0.00     0.281 C 
ATOM      7  O   UNL d   1      59.015  -0.660  28.457  0.00  0.00    -0.265 OA
ATOM      8  C   UNL d   1      58.557   0.674  28.592  0.00  0.00     0.068 C 
ENDROOT
BRANCH   3   9
ATOM      9  C   UNL d   1      58.662  -1.745  29.583  0.00  0.00     0.118 A 
ATOM     10  O   UNL d   1      58.298  -2.383  29.209  0.00  0.00    -0.306 OA
ATOM     11  C   UNL d   1      58.903  -2.864  28.896  0.00  0.00     0.100 A 
ATOM     12  C   UNL d   1      58.773  -3.573  28.470  0.00  0.00     0.027 C 
ATOM     13  C   UNL d   1      59.637  -2.532  29.072  0.00  0.00     0.027 A 
ATOM     14  C   UNL d   1      59.485  -1.843  29.495  0.00  0.00     0.028 A 
ENDBRANCH   3   9
BRANCH   4  15
ATOM     15  C   UNL d   1      57.111  -0.239  31.499  0.00  0.00     0.049 A 
ATOM     16  S   UNL d   1      57.032   0.502  31.800  0.00  0.00    -0.085 SA
ATOM     17  C   UNL d   1      56.551   0.463  32.445  0.00  0.00     0.035 A 
ATOM     18  C   UNL d   1      56.330  -0.327  32.540  0.00  0.00     0.007 A 
ATOM     19  C   UNL d   1      56.680  -0.757  31.952  0.00  0.00     0.009 A 
ENDBRANCH   4  15
TORSDOF 2
ENDMDL
MODEL 3
REMARK VINA RESULT:      -3.8      2.172      4.373
REMARK  2 active torsions:
REMARK  status: ('A' for Active; 'I' for Inactive)
REMARK       I    between atoms: C_9  and  N_1 
REMARK    1  A    between atoms: C_5  and  C_3 
REMARK    2  A    between atoms: C_8  and  C_4 
ROOT
ATOM      1  N   UNL d   1      58.193  -1.004  30.094  0.00  0.00    -0.193 N 
ATOM      2  N   UNL d   1      57.626  -1.101  30.661  0.00  0.00    -0.162 NA
ATOM      3  C   UNL d   1      58.451  -0.220  30.123  0.00  0.00     0.110 A 
ATOM      4  C   UNL d   1      57.519  -0.382  31.055  0.00  0.00     0.109 A 
ATOM      5  C   UNL d   1      58.037   0.148  30.708  0.00  0.00     0.043 A 
ATOM      6  C   UNL d   1      58.547  -1.622  29.476  0.00  0.00     0.281 C 
ATOM      7  O   UNL d   1      59.114  -1.356  28.974  0.00  0.00    -0.265 OA
ATOM      8  C   UNL d   1      58.289  -2.406  29.446  0.00  0.00     0.068 C 
ENDROOT
BRANCH   3   9
ATOM      9  C   UNL d   1      59.018   0.098  29.642  0.00  0.00     0.118 A 
ATOM     10  O   UNL d   1      59.818   0.158  29.832  0.00  0.00    -0.306 OA
ATOM     11  C   UNL d   1      60.201   0.518  29.184  0.00  0.00     0.100 A 
ATOM     12  C   UNL d   1      61.020   0.682  29.148  0.00  0.00     0.027 C 
ATOM     13  C   UNL d   1      59.647   0.682  28.595  0.00  0.00     0.027 A 
ATOM     14  C   UNL d   1      58.920   0.422  28.881  0.00  0.00     0.028 A 
ENDBRANCH   3   9
BRANCH   4  15
ATOM     15  C   UNL d   1      56.993  -0.232  31.675  0.00  0.00     0.049 A 
ATOM     16  S   UNL d   1      56.830   0.491  31.986  0.00  0.00    -0.085 SA
ATOM     17  C   UNL d   1      56.291   0.396  32.578  0.00  0.00     0.035 A 
ATOM     18  C   UNL d   1      56.120  -0.411  32.628  0.00  0.00     0.007 A 
ATOM     19  C   UNL d   1      56.557  -0.795  32.067  0.00  0.00     0.009 A 
ENDBRANCH   4  15
TORSDOF 2
ENDMDL
MODEL 4
REMARK VINA RESULT:      -3.8      1.659      3.749
REMARK  2 active torsions:
REMARK  status: ('A' for Active; 'I' for Inactive)
REMARK       I    between atoms: C_9  and  N_1 
REMARK    1  A    between atoms: C_5  and  C_3 
REMARK    2  A    between atoms: C_8  and  C_4 
ROOT
ATOM      1  N   UNL d   1      58.229   0.252  31.693  0.00  0.00    -0.193 N 
ATOM      2  N   UNL d   1      57.761   0.209  32.351  0.00  0.00    -0.162 NA
ATOM      3  C   UNL d   1      57.765   0.061  31.037  0.00  0.00     0.110 A 
ATOM      4  C   UNL d   1      56.997  -0.008  32.120  0.00  0.00     0.109 A 
ATOM      5  C   UNL d   1      57.022  -0.094  31.306  0.00  0.00     0.043 A 
ATOM      6  C   UNL d   1      59.143   0.471  31.611  0.00  0.00     0.281 C 
ATOM      7  O   UNL d   1      59.456   0.465  30.873  0.00  0.00    -0.265 OA
ATOM      8  C   UNL d   1      59.607   0.661  32.267  0.00  0.00     0.068 C 
ENDROOT
BRANCH   3   9
ATOM      9  C   UNL d   1      58.030   0.041  30.274  0.00  0.00     0.118 A 
ATOM     10  O   UNL d   1      58.240  -0.645  29.865  0.00  0.00    -0.306 OA
ATOM     11  C   UNL d   1      58.480  -0.414  29.101  0.00  0.00     0.100 A 
ATOM     12  C   UNL d   1      58.738  -0.942  28.506  0.00  0.00     0.027 C 
ATOM     13  C   UNL d   1      58.423   0.406  29.031  0.00  0.00     0.027 A 
ATOM     14  C   UNL d   1      58.146   0.682  29.755  0.00  0.00     0.028 A 
ENDBRANCH   3   9
BRANCH   4  15
ATOM     15  C   UNL d   1      56.344  -0.116  32.613  0.00  0.00     0.049 A 
ATOM     16  S   UNL d   1      55.935   0.469  32.984  0.00  0.00    -0.085 SA
ATOM     17  C   UNL d   1      55.340   0.131  33.410  0.00  0.00     0.035 A 
ATOM     18  C   UNL d   1      55.387  -0.685  33.295  0.00  0.00     0.007 A 
ATOM     19  C   UNL d   1      56.010  -0.832  32.800  0.00  0.00     0.009 A 
ENDBRANCH   4  15
TORSDOF 2
ENDMDL
MODEL 5
REMARK VINA RESULT:      -3.5      1.133      1.819
REMARK  2 active torsions:
REMARK  status: ('A' for Active; 'I' for Inactive)
REMARK       I    between atoms: C_9  and  N_1 
REMARK    1  A    between atoms: C_5  and  C_3 
REMARK    2  A    between atoms: C_8  and  C_4 
ROOT
ATOM      1  N   UNL d   1      56.316  -0.748  32.482  0.00  0.00    -0.193 N 
ATOM      2  N   UNL d   1      56.821  -0.745  31.851  0.00  0.00    -0.162 NA
ATOM      3  C   UNL d   1      56.251   0.027  32.762  0.00  0.00     0.110 A 
ATOM      4  C   UNL d   1      57.081   0.030  31.724  0.00  0.00     0.109 A 
ATOM      5  C   UNL d   1      56.719   0.490  32.296  0.00  0.00     0.043 A 
ATOM      6  C   UNL d   1      55.848  -1.462  32.884  0.00  0.00     0.281 C 
ATOM      7  O   UNL d   1      55.382  -1.288  33.512  0.00  0.00    -0.265 OA
ATOM      8  C   UNL d   1      55.913  -2.237  32.604  0.00  0.00     0.068 C 
ENDROOT
BRANCH   3   9
ATOM      9  C   UNL d   1      55.797   0.256  33.389  0.00  0.00     0.118 A 
ATOM     10  O   UNL d   1      56.060   0.303  34.170  0.00  0.00    -0.306 OA
ATOM     11  C   UNL d   1      55.416   0.560  34.633  0.00  0.00     0.100 A 
ATOM     12  C   UNL d   1      55.446   0.682  35.460  0.00  0.00     0.027 C 
ATOM     13  C   UNL d   1      54.757   0.672  34.150  0.00  0.00     0.027 A 
ATOM     14  C   UNL d   1      54.995   0.484  33.385  0.00  0.00     0.028 A 
ENDBRANCH   3   9
BRANCH   4  15
ATOM     15  C   UNL d   1      57.603   0.285  31.136  0.00  0.00     0.049 A 
ATOM     16  S   UNL d   1      58.387   0.433  31.237  0.00  0.00    -0.085 SA
ATOM     17  C   UNL d   1      58.694   0.669  30.531  0.00  0.00     0.035 A 
ATOM     18  C   UNL d   1      58.077   0.665  29.981  0.00  0.00     0.007 A 
ATOM     19  C   UNL d   1      57.405   0.426  30.362  0.00  0.00     0.009 A 
ENDBRANCH   4  15
TORSDOF 2
ENDMDL
MODEL 6
REMARK VINA RESULT:      -3.4      2.193      3.286
REMARK  2 active torsions:
REMARK  status: ('A' for Active; 'I' for Inactive)
REMARK       I    between atoms: C_9  and  N_1 
REMARK    1  A    between atoms: C_5  and  C_3 
REMARK    2  A    between atoms: C_8  and  C_4 
ROOT
ATOM      1  N   UNL d   1      58.320  -0.570  29.349  0.00  0.00    -0.193 N 
ATOM      2  N   UNL d   1      58.712  -1.084  28.863  0.00  0.00    -0.162 NA
ATOM      3  C   UNL d   1      58.214  -0.941  30.080  0.00  0.00     0.110 A 
ATOM      4  C   UNL d   1      58.857  -1.783  29.279  0.00  0.00     0.109 A 
ATOM      5  C   UNL d   1      58.542  -1.675  30.027  0.00  0.00     0.043 A 
ATOM      6  C   UNL d   1      58.010   0.306  29.186  0.00  0.00     0.281 C 
ATOM      7  O   UNL d   1      57.635   0.680  29.787  0.00  0.00    -0.265 OA
ATOM      8  C   UNL d   1      58.117   0.676  28.455  0.00  0.00     0.068 C 
ENDROOT
BRANCH   3   9
ATOM      9  C   UNL d   1      57.844  -0.609  30.717  0.00  0.00     0.118 A 
ATOM     10  O   UNL d   1      57.145  -0.888  31.055  0.00  0.00    -0.306 OA
ATOM     11  C   UNL d   1      56.961  -0.386  31.695  0.00  0.00     0.100 A 
ATOM     12  C   UNL d   1      56.293  -0.474  32.190  0.00  0.00     0.027 C 
ATOM     13  C   UNL d   1      57.537   0.202  31.757  0.00  0.00     0.027 A 
ATOM     14  C   UNL d   1      58.078   0.061  31.153  0.00  0.00     0.028 A 
ENDBRANCH   3   9
BRANCH   4  15
ATOM     15  C   UNL d   1      59.244  -2.456  28.994  0.00  0.00     0.049 A 
ATOM     16  S   UNL d   1      60.037  -2.533  28.892  0.00  0.00    -0.085 SA
ATOM     17  C   UNL d   1      60.186  -3.271  28.605  0.00  0.00     0.035 A 
ATOM     18  C   UNL d   1      59.459  -3.656  28.529  0.00  0.00     0.007 A 
ATOM     19  C   UNL d   1      58.880  -3.147  28.771  0.00  0.00     0.009 A 
ENDBRANCH   4  15
TORSDOF 2
ENDMDL
MODEL 7
REMARK VINA RESULT:      -2.0      1.693      3.709
REMARK  2 active torsions:
REMARK  status: ('A' for Active; 'I' for Inactive)
REMARK       I    between atoms: C_9  and  N_1 
REMARK    1  A    between atoms: C_5  and  C_3 
REMARK    2  A    between atoms: C_8  and  C_4 
ROOT
ATOM      1  N   UNL d   1      57.544   0.454  32.907  0.00  0.00    -0.193 N 
ATOM      2  N   UNL d   1      57.051   0.554  33.541  0.00  0.00    -0.162 NA
ATOM      3  C   UNL d   1      57.078   0.280  32.247  0.00  0.00     0.110 A 
ATOM      4  C   UNL d   1      56.271   0.446  33.289  0.00  0.00     0.109 A 
ATOM      5  C   UNL d   1      56.310   0.278  32.489  0.00  0.00     0.043 A 
ATOM      6  C   UNL d   1      58.484   0.508  32.854  0.00  0.00     0.281 C 
ATOM      7  O   UNL d   1      58.818   0.379  32.136  0.00  0.00    -0.265 OA
ATOM      8  C   UNL d   1      58.949   0.682  33.514  0.00  0.00     0.068 C 
ENDROOT
BRANCH   3   9
ATOM      9  C   UNL d   1      57.364   0.142  31.504  0.00  0.00     0.118 A 
ATOM     10  O   UNL d   1      57.655  -0.583  31.238  0.00  0.00    -0.306 OA
ATOM     11  C   UNL d   1      57.890  -0.480  30.445  0.00  0.00     0.100 A 
ATOM     12  C   UNL d   1      58.217  -1.082  29.965  0.00  0.00     0.027 C 
ATOM     13  C   UNL d   1      57.749   0.300  30.215  0.00  0.00     0.027 A 
ATOM     14  C   UNL d   1      57.425   0.679  30.870  0.00  0.00     0.028 A 
ENDBRANCH   3   9
BRANCH   4  15
ATOM     15  C   UNL d   1      55.591   0.497  33.755  0.00  0.00     0.049 A 
ATOM     16  S   UNL d   1      55.571   0.682  34.537  0.00  0.00    -0.085 SA
ATOM     17  C   UNL d   1      54.803   0.673  34.781  0.00  0.00     0.035 A 
ATOM     18  C   UNL d   1      54.340   0.476  34.126  0.00  0.00     0.007 A 
ATOM     19  C   UNL d   1      54.833   0.369  33.494  0.00  0.00     0.009 A 
ENDBRANCH   4  15
TORSDOF 2
ENDMDL
