MODEL 1
REMARK VINA RESULT:      -3.7      0.000      0.000
REMARK  5 active torsions:
REMARK  status: ('A' for Active; 'I' for Inactive)
REMARK    1  A    between atoms: N_2  and  S_1 
REMARK    2  A    between atoms: C_7  and  S_1 
REMARK    3  A    between atoms: C_3  and  N_2 
REMARK    4  A    between atoms: C_14  and  C_4 
REMARK    5  A    between atoms: O_19  and  C_16 
ROOT
ATOM      1  N   UNL d   1     -42.009-122.414 -50.480  0.00  0.00    -0.158 NA
ENDROOT
BRANCH   1   2
ATOM      2  S   UNL d   1     -41.623-122.791 -51.250  0.00  0.00     0.285 S 
ATOM      3  O   UNL d   1     -41.161-123.531 -50.923  0.00  0.00    -0.198 OA
ATOM      4  O   UNL d   1     -42.097-122.036 -51.566  0.00  0.00    -0.198 OA
BRANCH   2   5
ATOM      5  C   UNL d   1     -41.500-122.802 -51.972  0.00  0.00     0.105 A 
ATOM      6  C   UNL d   1     -41.377-122.166 -52.331  0.00  0.00     0.015 A 
ATOM      7  C   UNL d   1     -41.252-122.178 -53.059  0.00  0.00     0.025 A 
ATOM      8  C   UNL d   1     -41.248-122.820 -53.436  0.00  0.00     0.094 A 
ATOM      9  C   UNL d   1     -41.371-123.454 -53.078  0.00  0.00     0.025 A 
ATOM     10  C   UNL d   1     -41.498-123.447 -52.336  0.00  0.00     0.015 A 
BRANCH   8  11
ATOM     11  O   UNL d   1     -41.123-122.818 -54.159  0.00  0.00    -0.328 OA
ATOM     12  C   UNL d   1     -41.612-122.667 -54.677  0.00  0.00     0.181 C 
ENDBRANCH   8  11
ENDBRANCH   2   5
ENDBRANCH   1   2
BRANCH   1  13
ATOM     13  C   UNL d   1     -42.273-122.585 -49.704  0.00  0.00     0.094 A 
ATOM     14  C   UNL d   1     -41.722-122.717 -49.108  0.00  0.00     0.023 A 
ATOM     15  C   UNL d   1     -41.987-122.888 -48.334  0.00  0.00     0.041 A 
ATOM     16  C   UNL d   1     -42.796-122.922 -48.171  0.00  0.00     0.196 A 
ATOM     17  C   UNL d   1     -43.343-122.787 -48.779  0.00  0.00     0.044 A 
ATOM     18  O   UNL d   1     -43.057-123.090 -47.409  0.00  0.00    -0.287 OA
ATOM     19  C   UNL d   1     -43.083-122.619 -49.543  0.00  0.00     0.022 A 
ATOM     20  C   UNL d   1     -43.630-122.484 -50.149  0.00  0.00     0.002 C 
BRANCH  15  21
ATOM     21  C   UNL d   1     -41.440-123.023 -47.726  0.00  0.00     0.003 C 
ATOM     22  C   UNL d   1     -41.203-122.401 -47.230  0.00  0.00     0.000 C 
ATOM     23  C   UNL d   1     -41.123-123.794 -47.612  0.00  0.00     0.000 C 
ENDBRANCH  15  21
ENDBRANCH   1  13
TORSDOF 5
ENDMDL
MODEL 2
REMARK VINA RESULT:      -2.8      1.454      2.134
REMARK  5 active torsions:
REMARK  status: ('A' for Active; 'I' for Inactive)
REMARK    1  A    between atoms: N_2  and  S_1 
REMARK    2  A    between atoms: C_7  and  S_1 
REMARK    3  A    between atoms: C_3  and  N_2 
REMARK    4  A    between atoms: C_14  and  C_4 
REMARK    5  A    between atoms: O_19  and  C_16 
ROOT
ATOM      1  N   UNL d   1     -41.996-121.936 -52.089  0.00  0.00    -0.158 NA
ENDROOT
BRANCH   1   2
ATOM      2  S   UNL d   1     -41.798-122.303 -52.933  0.00  0.00     0.285 S 
ATOM      3  O   UNL d   1     -41.294-123.059 -52.728  0.00  0.00    -0.198 OA
ATOM      4  O   UNL d   1     -42.311-121.531 -53.123  0.00  0.00    -0.198 OA
BRANCH   2   5
ATOM      5  C   UNL d   1     -41.836-122.300 -53.664  0.00  0.00     0.105 A 
ATOM      6  C   UNL d   1     -42.408-121.969 -53.998  0.00  0.00     0.015 A 
ATOM      7  C   UNL d   1     -42.445-121.967 -54.736  0.00  0.00     0.025 A 
ATOM      8  C   UNL d   1     -41.917-122.291 -55.147  0.00  0.00     0.094 A 
ATOM      9  C   UNL d   1     -41.346-122.621 -54.813  0.00  0.00     0.025 A 
ATOM     10  C   UNL d   1     -41.303-122.627 -54.062  0.00  0.00     0.015 A 
BRANCH   8  11
ATOM     11  O   UNL d   1     -41.966-122.282 -55.879  0.00  0.00    -0.328 OA
ATOM     12  C   UNL d   1     -42.342-121.802 -56.276  0.00  0.00     0.181 C 
ENDBRANCH   8  11
ENDBRANCH   2   5
ENDBRANCH   1   2
BRANCH   1  13
ATOM     13  C   UNL d   1     -41.925-122.060 -51.265  0.00  0.00     0.094 A 
ATOM     14  C   UNL d   1     -42.292-122.711 -50.920  0.00  0.00     0.023 A 
ATOM     15  C   UNL d   1     -42.220-122.835 -50.096  0.00  0.00     0.041 A 
ATOM     16  C   UNL d   1     -41.783-122.306 -49.635  0.00  0.00     0.196 A 
ATOM     17  C   UNL d   1     -41.418-121.654 -49.992  0.00  0.00     0.044 A 
ATOM     18  O   UNL d   1     -41.712-122.428 -48.824  0.00  0.00    -0.287 OA
ATOM     19  C   UNL d   1     -41.488-121.531 -50.804  0.00  0.00     0.022 A 
ATOM     20  C   UNL d   1     -41.123-120.879 -51.161  0.00  0.00     0.002 C 
BRANCH  15  21
ATOM     21  C   UNL d   1     -42.585-123.487 -49.739  0.00  0.00     0.003 C 
ATOM     22  C   UNL d   1     -43.272-123.815 -50.070  0.00  0.00     0.000 C 
ATOM     23  C   UNL d   1     -42.258-123.817 -49.038  0.00  0.00     0.000 C 
ENDBRANCH  15  21
ENDBRANCH   1  13
TORSDOF 5
ENDMDL
