MODEL 1
REMARK VINA RESULT:      46.8      0.000      0.000
REMARK  4 active torsions:
REMARK  status: ('A' for Active; 'I' for Inactive)
REMARK    1  A    between atoms: N_10  and  C_2 
REMARK    2  A    between atoms: N_11  and  C_6 
REMARK    3  A    between atoms: C_12  and  N_11 
REMARK    4  A    between atoms: O_19  and  C_15 
ROOT
ATOM      1  N   UNL d   1      13.673  12.549  -2.203  0.00  0.00    -0.041 NA
ATOM      2  C   UNL d   1      13.879  12.930  -2.854  0.00  0.00     0.738 A 
ATOM      3  C   UNL d   1      14.007  12.735  -1.520  0.00  0.00     0.187 A 
ATOM      4  N   UNL d   1      14.423  13.500  -2.823  0.00  0.00    -0.041 NA
ATOM      5  C   UNL d   1      14.551  13.304  -1.484  0.00  0.00     0.094 A 
ATOM      6  C   UNL d   1      14.763  13.692  -2.140  0.00  0.00     0.185 A 
ATOM      7  N   UNL d   1      14.137  12.537  -0.170  0.00  0.00    -0.162 NA
ATOM      8  N   UNL d   1      13.796  12.347  -0.865  0.00  0.00    -0.208 N 
ATOM      9  C   UNL d   1      14.680  13.107  -0.139  0.00  0.00     0.127 A 
ATOM     10  C   UNL d   1      13.255  11.781  -0.896  0.00  0.00     0.123 C 
ENDROOT
BRANCH   6  11
ATOM     11  N   UNL d   1      15.327  14.286  -2.115  0.00  0.00    -0.226 NA
BRANCH  11  12
ATOM     12  C   UNL d   1      15.099  15.073  -2.062  0.00  0.00     0.085 A 
ATOM     13  C   UNL d   1      15.377  15.557  -1.445  0.00  0.00     0.043 A 
ATOM     14  C   UNL d   1      15.149  16.348  -1.390  0.00  0.00     0.096 A 
ATOM     15  C   UNL d   1      14.634  16.665  -1.961  0.00  0.00     0.024 A 
ATOM     16  C   UNL d   1      14.357  16.192  -2.573  0.00  0.00     0.004 A 
ATOM     17  C   UNL d   1      14.589  15.394  -2.624  0.00  0.00     0.019 A 
BRANCH  14  18
ATOM     18  O   UNL d   1      15.426  16.825  -0.776  0.00  0.00    -0.328 OA
ATOM     19  C   UNL d   1      15.799  16.668  -0.053  0.00  0.00     0.181 C 
ENDBRANCH  14  18
ENDBRANCH  11  12
ENDBRANCH   6  11
BRANCH   2  20
ATOM     20  N   UNL d   1      13.527  12.737  -3.581  0.00  0.00    -0.133 N 
ATOM     21  C   UNL d   1      13.260  11.970  -3.721  0.00  0.00     0.125 A 
ATOM     22  C   UNL d   1      12.909  11.779  -4.445  0.00  0.00     0.142 A 
ATOM     23  O   UNL d   1      12.826  12.360  -5.035  0.00  0.00    -0.300 OA
ATOM     24  C   UNL d   1      13.094  13.132  -4.895  0.00  0.00     0.142 A 
ATOM     25  C   UNL d   1      13.445  13.320  -4.168  0.00  0.00     0.125 A 
ENDBRANCH   2  20
TORSDOF 4
ENDMDL
