MODEL 1
REMARK VINA RESULT:      60.2      0.000      0.000
REMARK  5 active torsions:
REMARK  status: ('A' for Active; 'I' for Inactive)
REMARK    1  A    between atoms: N_7  and  C_1 
REMARK    2  A    between atoms: C_15  and  N_2 
REMARK    3  A    between atoms: C_5  and  C_10 
REMARK       I    between atoms: C_10  and  N_7 
REMARK    4  A    between atoms: C_13  and  C_11 
REMARK    5  A    between atoms: C_24  and  C_15 
ROOT
ATOM      1  N   UNL d   1      13.240  13.798  -4.729  0.00  0.00    -0.203 NA
ATOM      2  C   UNL d   1      13.807  14.394  -4.568  0.00  0.00     0.299 C 
ATOM      3  O   UNL d   1      14.330  14.267  -3.983  0.00  0.00    -0.263 OA
ENDROOT
BRANCH   1   4
ATOM      4  C   UNL d   1      13.235  13.085  -4.274  0.00  0.00     0.121 A 
ATOM      5  C   UNL d   1      13.043  13.010  -3.460  0.00  0.00     0.102 A 
ATOM      6  N   UNL d   1      13.114  12.216  -3.260  0.00  0.00    -0.227 N 
ATOM      7  C   UNL d   1      12.822  13.631  -2.954  0.00  0.00     0.022 C 
ATOM      8  N   UNL d   1      13.350  11.789  -3.943  0.00  0.00    -0.164 NA
ATOM      9  C   UNL d   1      13.423  12.338  -4.572  0.00  0.00     0.120 A 
ATOM     10  C   UNL d   1      13.646  12.177  -5.366  0.00  0.00     0.024 C 
BRANCH   6  11
ATOM     11  C   UNL d   1      12.953  11.970  -2.464  0.00  0.00     0.101 C 
BRANCH  11  12
ATOM     12  C   UNL d   1      13.565  11.982  -1.896  0.00  0.00     0.019 A 
ATOM     13  C   UNL d   1      13.404  12.195  -1.110  0.00  0.00     0.002 A 
ATOM     14  C   UNL d   1      14.012  12.209  -0.537  0.00  0.00     0.000 A 
ATOM     15  C   UNL d   1      14.801  12.002  -0.765  0.00  0.00     0.000 A 
ATOM     16  C   UNL d   1      14.959  11.794  -1.535  0.00  0.00     0.000 A 
ATOM     17  C   UNL d   1      15.429  12.007  -0.215  0.00  0.00     0.000 C 
ATOM     18  C   UNL d   1      14.347  11.779  -2.113  0.00  0.00     0.002 A 
ENDBRANCH  11  12
ENDBRANCH   6  11
ENDBRANCH   1   4
BRANCH   2  19
ATOM     19  C   UNL d   1      13.783  15.702  -5.433  0.00  0.00     0.168 A 
ATOM     20  N   UNL d   1      13.571  15.794  -6.195  0.00  0.00    -0.121 NA
ATOM     21  O   UNL d   1      13.650  16.552  -6.388  0.00  0.00    -0.211 OA
ATOM     22  C   UNL d   1      13.913  16.951  -5.750  0.00  0.00     0.127 A 
ATOM     23  C   UNL d   1      13.997  16.427  -5.155  0.00  0.00     0.053 A 
BRANCH  22  24
ATOM     24  C   UNL d   1      14.054  17.725  -5.745  0.00  0.00     0.027 A 
ATOM     25  C   UNL d   1      13.515  18.232  -6.047  0.00  0.00     0.028 A 
ATOM     26  C   UNL d   1      13.656  19.000  -6.040  0.00  0.00     0.119 A 
ATOM     27  O   UNL d   1      13.231  19.620  -6.296  0.00  0.00    -0.300 OA
ATOM     28  C   UNL d   1      14.329  19.295  -5.739  0.00  0.00     0.119 A 
ATOM     29  C   UNL d   1      13.638  20.282  -6.153  0.00  0.00     0.304 A 
ATOM     30  O   UNL d   1      14.320  20.080  -5.807  0.00  0.00    -0.300 OA
ATOM     31  C   UNL d   1      14.873  18.792  -5.436  0.00  0.00     0.026 A 
ATOM     32  C   UNL d   1      14.738  18.022  -5.439  0.00  0.00     0.004 A 
ENDBRANCH  22  24
ENDBRANCH   2  19
TORSDOF 5
ENDMDL
