MODEL 1
REMARK VINA RESULT:      -4.7      0.000      0.000
REMARK  5 active torsions:
REMARK  status: ('A' for Active; 'I' for Inactive)
REMARK    1  A    between atoms: N_2  and  C_1 
REMARK    2  A    between atoms: C_8  and  C_5 
REMARK    3  A    between atoms: C_6  and  C_9 
REMARK       I    between atoms: N_12  and  C_6 
REMARK    4  A    between atoms: C_9  and  C_8 
REMARK    5  A    between atoms: C_14  and  N_12 
ROOT
ATOM      1  C   UNL d   1      57.166   0.076  31.415  0.00  0.00     0.279 C 
ATOM      2  N   UNL d   1      57.124  -0.349  32.114  0.00  0.00    -0.208 NA
ATOM      3  O   UNL d   1      56.631   0.682  31.269  0.00  0.00    -0.265 OA
ENDROOT
BRANCH   1   4
ATOM      4  C   UNL d   1      57.749  -0.107  30.851  0.00  0.00     0.063 C 
BRANCH   4   5
ATOM      5  C   UNL d   1      57.932   0.429  30.251  0.00  0.00     0.011 C 
BRANCH   5   6
ATOM      6  C   UNL d   1      58.545   0.257  29.697  0.00  0.00     0.031 A 
ATOM      7  S   UNL d   1      59.343   0.075  29.798  0.00  0.00    -0.064 SA
ATOM      8  C   UNL d   1      59.664  -0.038  29.055  0.00  0.00     0.156 A 
ATOM      9  C   UNL d   1      59.086   0.069  28.486  0.00  0.00     0.031 A 
ATOM     10  C   UNL d   1      58.381   0.256  28.892  0.00  0.00     0.009 A 
BRANCH   8  11
ATOM     11  N   UNL d   1      60.459  -0.232  28.916  0.00  0.00    -0.107 N 
ATOM     12  O   UNL d   1      60.680  -0.989  28.681  0.00  0.00    -0.531 OA
ATOM     13  O   UNL d   1      61.032   0.358  29.018  0.00  0.00    -0.531 OA
ENDBRANCH   8  11
ENDBRANCH   5   6
ENDBRANCH   4   5
ENDBRANCH   1   4
BRANCH   2  14
ATOM     14  C   UNL d   1      56.542  -0.167  32.676  0.00  0.00     0.085 A 
ATOM     15  C   UNL d   1      55.882  -0.666  32.766  0.00  0.00     0.019 A 
ATOM     16  C   UNL d   1      55.301  -0.506  33.310  0.00  0.00     0.002 A 
ATOM     17  C   UNL d   1      55.389   0.194  33.790  0.00  0.00     0.000 A 
ATOM     18  C   UNL d   1      56.045   0.682  33.695  0.00  0.00     0.002 A 
ATOM     19  C   UNL d   1      54.817   0.394  34.359  0.00  0.00     0.000 C 
ATOM     20  C   UNL d   1      56.614   0.504  33.145  0.00  0.00     0.019 A 
ENDBRANCH   2  14
TORSDOF 5
ENDMDL
MODEL 2
REMARK VINA RESULT:      -4.4      2.000      5.415
REMARK  5 active torsions:
REMARK  status: ('A' for Active; 'I' for Inactive)
REMARK    1  A    between atoms: N_2  and  C_1 
REMARK    2  A    between atoms: C_8  and  C_5 
REMARK    3  A    between atoms: C_6  and  C_9 
REMARK       I    between atoms: N_12  and  C_6 
REMARK    4  A    between atoms: C_9  and  C_8 
REMARK    5  A    between atoms: C_14  and  N_12 
ROOT
ATOM      1  C   UNL d   1      57.698   0.349  31.269  0.00  0.00     0.279 C 
ATOM      2  N   UNL d   1      57.621  -0.014  30.538  0.00  0.00    -0.208 NA
ATOM      3  O   UNL d   1      58.421   0.667  31.496  0.00  0.00    -0.265 OA
ENDROOT
BRANCH   1   4
ATOM      4  C   UNL d   1      57.045   0.395  31.781  0.00  0.00     0.063 C 
BRANCH   4   5
ATOM      5  C   UNL d   1      57.052  -0.004  32.503  0.00  0.00     0.011 C 
BRANCH   5   6
ATOM      6  C   UNL d   1      56.359  -0.027  32.985  0.00  0.00     0.031 A 
ATOM      7  S   UNL d   1      56.093   0.465  33.591  0.00  0.00    -0.064 SA
ATOM      8  C   UNL d   1      55.380   0.165  33.854  0.00  0.00     0.156 A 
ATOM      9  C   UNL d   1      55.188  -0.507  33.427  0.00  0.00     0.031 A 
ATOM     10  C   UNL d   1      55.807  -0.626  32.879  0.00  0.00     0.009 A 
BRANCH   8  11
ATOM     11  N   UNL d   1      54.929   0.503  34.463  0.00  0.00    -0.107 N 
ATOM     12  O   UNL d   1      55.258   0.665  35.200  0.00  0.00    -0.531 OA
ATOM     13  O   UNL d   1      54.133   0.676  34.315  0.00  0.00    -0.531 OA
ENDBRANCH   8  11
ENDBRANCH   5   6
ENDBRANCH   4   5
ENDBRANCH   1   4
BRANCH   2  14
ATOM     14  C   UNL d   1      58.273  -0.060  30.027  0.00  0.00     0.085 A 
ATOM     15  C   UNL d   1      58.688   0.632  29.820  0.00  0.00     0.019 A 
ATOM     16  C   UNL d   1      59.328   0.608  29.321  0.00  0.00     0.002 A 
ATOM     17  C   UNL d   1      59.564  -0.152  29.015  0.00  0.00     0.000 A 
ATOM     18  C   UNL d   1      59.149  -0.831  29.224  0.00  0.00     0.002 A 
ATOM     19  C   UNL d   1      60.214  -0.221  28.501  0.00  0.00     0.000 C 
ATOM     20  C   UNL d   1      58.511  -0.785  29.725  0.00  0.00     0.019 A 
ENDBRANCH   2  14
TORSDOF 5
ENDMDL
MODEL 3
REMARK VINA RESULT:      -3.4      0.972      1.274
REMARK  5 active torsions:
REMARK  status: ('A' for Active; 'I' for Inactive)
REMARK    1  A    between atoms: N_2  and  C_1 
REMARK    2  A    between atoms: C_8  and  C_5 
REMARK    3  A    between atoms: C_6  and  C_9 
REMARK       I    between atoms: N_12  and  C_6 
REMARK    4  A    between atoms: C_9  and  C_8 
REMARK    5  A    between atoms: C_14  and  N_12 
ROOT
ATOM      1  C   UNL d   1      56.585  -0.002  32.153  0.00  0.00     0.279 C 
ATOM      2  N   UNL d   1      56.239   0.676  32.456  0.00  0.00    -0.208 NA
ATOM      3  O   UNL d   1      56.627  -0.682  32.612  0.00  0.00    -0.265 OA
ENDROOT
BRANCH   1   4
ATOM      4  C   UNL d   1      56.893  -0.002  31.382  0.00  0.00     0.063 C 
BRANCH   4   5
ATOM      5  C   UNL d   1      57.557  -0.456  31.199  0.00  0.00     0.011 C 
BRANCH   5   6
ATOM      6  C   UNL d   1      57.976  -0.328  30.476  0.00  0.00     0.031 A 
ATOM      7  S   UNL d   1      58.518  -0.793  30.065  0.00  0.00    -0.064 SA
ATOM      8  C   UNL d   1      58.739  -0.377  29.396  0.00  0.00     0.156 A 
ATOM      9  C   UNL d   1      58.347   0.341  29.376  0.00  0.00     0.031 A 
ATOM     10  C   UNL d   1      57.867   0.371  30.058  0.00  0.00     0.009 A 
BRANCH   8  11
ATOM     11  N   UNL d   1      59.280  -0.656  28.832  0.00  0.00    -0.107 N 
ATOM     12  O   UNL d   1      59.172  -1.380  28.456  0.00  0.00    -0.531 OA
ATOM     13  O   UNL d   1      59.938  -0.186  28.652  0.00  0.00    -0.531 OA
ENDBRANCH   8  11
ENDBRANCH   5   6
ENDBRANCH   4   5
ENDBRANCH   1   4
BRANCH   2  14
ATOM     14  C   UNL d   1      55.931   0.677  33.227  0.00  0.00     0.085 A 
ATOM     15  C   UNL d   1      55.107   0.674  33.343  0.00  0.00     0.019 A 
ATOM     16  C   UNL d   1      54.785   0.675  34.089  0.00  0.00     0.002 A 
ATOM     17  C   UNL d   1      55.321   0.678  34.753  0.00  0.00     0.000 A 
ATOM     18  C   UNL d   1      56.134   0.680  34.628  0.00  0.00     0.002 A 
ATOM     19  C   UNL d   1      55.033   0.679  35.532  0.00  0.00     0.000 C 
ATOM     20  C   UNL d   1      56.435   0.680  33.874  0.00  0.00     0.019 A 
ENDBRANCH   2  14
TORSDOF 5
ENDMDL
