MODEL 1
REMARK VINA RESULT:      39.6      0.000      0.000
REMARK  4 active torsions:
REMARK  status: ('A' for Active; 'I' for Inactive)
REMARK    1  A    between atoms: C_2  and  N_1 
REMARK    2  A    between atoms: C_12  and  C_5 
REMARK    3  A    between atoms: O_20  and  C_12 
REMARK    4  A    between atoms: C_21  and  C_13 
ROOT
ATOM      1  N   UNL d   1     -57.514 -99.086 -44.024  0.00  0.00    -0.237 N 
ATOM      2  C   UNL d   1     -57.226 -99.332 -44.769  0.00  0.00     0.263 A 
ATOM      3  C   UNL d   1     -56.863 -98.985 -43.516  0.00  0.00     0.263 A 
ATOM      4  C   UNL d   1     -56.177 -99.167 -43.941  0.00  0.00     0.039 A 
ATOM      5  C   UNL d   1     -56.404 -99.382 -44.718  0.00  0.00     0.039 A 
ATOM      6  C   UNL d   1     -55.368 -99.166 -43.723  0.00  0.00     0.049 A 
ATOM      7  C   UNL d   1     -55.822 -99.597 -45.283  0.00  0.00     0.049 A 
ATOM      8  C   UNL d   1     -54.786 -99.385 -44.299  0.00  0.00    -0.026 A 
ATOM      9  C   UNL d   1     -55.019 -99.598 -45.072  0.00  0.00    -0.026 A 
ATOM     10  C   UNL d   1     -55.906 -99.294 -44.291  0.00  0.00     0.018 A 
ATOM     11  O   UNL d   1     -56.907 -98.756 -42.761  0.00  0.00    -0.267 OA
ATOM     12  O   UNL d   1     -57.669 -99.487 -45.404  0.00  0.00    -0.267 OA
ENDROOT
BRANCH   1  13
ATOM     13  C   UNL d   1     -58.288 -98.969 -43.838  0.00  0.00     0.105 A 
ATOM     14  C   UNL d   1     -58.875 -98.848 -44.359  0.00  0.00     0.086 A 
ATOM     15  C   UNL d   1     -59.556 -98.757 -43.946  0.00  0.00     0.014 A 
ATOM     16  C   UNL d   1     -59.374 -98.824 -43.179  0.00  0.00     0.031 A 
ATOM     17  S   UNL d   1     -58.599 -98.954 -43.104  0.00  0.00    -0.069 SA
BRANCH  14  18
ATOM     18  C   UNL d   1     -58.799 -98.822 -45.153  0.00  0.00     0.298 C 
ATOM     19  O   UNL d   1     -58.077 -98.755 -45.487  0.00  0.00    -0.259 OA
BRANCH  18  20
ATOM     20  O   UNL d   1     -59.455 -98.863 -45.621  0.00  0.00    -0.296 OA
ATOM     21  C   UNL d   1     -59.290 -98.761 -46.388  0.00  0.00     0.185 C 
ENDBRANCH  18  20
ENDBRANCH  14  18
BRANCH  16  22
ATOM     22  C   UNL d   1     -59.956 -98.756 -42.632  0.00  0.00     0.006 C 
ATOM     23  C   UNL d   1     -59.866 -99.085 -41.893  0.00  0.00     0.001 C 
ENDBRANCH  16  22
ENDBRANCH   1  13
TORSDOF 4
ENDMDL
