MODEL 1
REMARK VINA RESULT:      -2.7      0.000      0.000
REMARK  4 active torsions:
REMARK  status: ('A' for Active; 'I' for Inactive)
REMARK    1  A    between atoms: N_5  and  C_1 
REMARK    2  A    between atoms: N_8  and  C_3 
REMARK    3  A    between atoms: C_14  and  N_8 
REMARK    4  A    between atoms: C_16  and  C_14 
ROOT
ATOM      1  C   UNL d   1      32.896  22.559 -21.405  0.00  0.00     0.737 A 
ATOM      2  N   UNL d   1      33.010  21.773 -21.646  0.00  0.00    -0.041 NA
ATOM      3  C   UNL d   1      33.121  21.595 -22.450  0.00  0.00     0.182 A 
ATOM      4  N   UNL d   1      32.894  23.172 -21.966  0.00  0.00    -0.060 NA
ATOM      5  C   UNL d   1      33.119  22.204 -23.012  0.00  0.00     0.055 A 
ATOM      6  C   UNL d   1      33.007  22.987 -22.777  0.00  0.00     0.103 A 
ATOM      7  C   UNL d   1      33.231  22.025 -23.815  0.00  0.00     0.005 A 
ATOM      8  C   UNL d   1      33.005  23.604 -23.342  0.00  0.00     0.020 A 
ATOM      9  C   UNL d   1      33.230  22.628 -24.375  0.00  0.00     0.000 A 
ATOM     10  C   UNL d   1      33.116  23.420 -24.138  0.00  0.00     0.002 A 
ENDROOT
BRANCH   3  11
ATOM     11  N   UNL d   1      33.239  20.777 -22.700  0.00  0.00    -0.225 NA
BRANCH  11  12
ATOM     12  C   UNL d   1      32.969  20.176 -22.320  0.00  0.00     0.101 C 
BRANCH  12  13
ATOM     13  C   UNL d   1      33.049  19.482 -22.617  0.00  0.00     0.019 A 
ATOM     14  C   UNL d   1      33.156  18.893 -22.152  0.00  0.00     0.002 A 
ATOM     15  C   UNL d   1      33.237  18.206 -22.436  0.00  0.00     0.000 A 
ATOM     16  C   UNL d   1      33.211  18.096 -23.192  0.00  0.00     0.000 A 
ATOM     17  C   UNL d   1      33.104  18.685 -23.648  0.00  0.00     0.000 A 
ATOM     18  C   UNL d   1      33.023  19.382 -23.365  0.00  0.00     0.002 A 
ENDBRANCH  12  13
ENDBRANCH  11  12
ENDBRANCH   3  11
BRANCH   1  19
ATOM     19  N   UNL d   1      32.782  22.745 -20.584  0.00  0.00    -0.134 N 
ATOM     20  C   UNL d   1      32.224  23.350 -20.356  0.00  0.00     0.117 A 
ATOM     21  C   UNL d   1      32.114  23.532 -19.527  0.00  0.00     0.100 A 
ATOM     22  N   UNL d   1      32.553  23.118 -18.933  0.00  0.00    -0.299 N 
ATOM     23  C   UNL d   1      33.111  22.512 -19.161  0.00  0.00     0.100 A 
ATOM     24  C   UNL d   1      32.439  23.304 -18.108  0.00  0.00     0.100 C 
ATOM     25  C   UNL d   1      33.229  22.323 -19.983  0.00  0.00     0.117 A 
ENDBRANCH   1  19
TORSDOF 4
ENDMDL
MODEL 2
REMARK VINA RESULT:      -2.1      1.027      4.264
REMARK  4 active torsions:
REMARK  status: ('A' for Active; 'I' for Inactive)
REMARK    1  A    between atoms: N_5  and  C_1 
REMARK    2  A    between atoms: N_8  and  C_3 
REMARK    3  A    between atoms: C_14  and  N_8 
REMARK    4  A    between atoms: C_16  and  C_14 
ROOT
ATOM      1  C   UNL d   1      33.211  20.442 -23.545  0.00  0.00     0.737 A 
ATOM      2  N   UNL d   1      33.219  20.892 -22.847  0.00  0.00    -0.041 NA
ATOM      3  C   UNL d   1      33.228  21.722 -22.886  0.00  0.00     0.182 A 
ATOM      4  N   UNL d   1      33.213  20.819 -24.285  0.00  0.00    -0.060 NA
ATOM      5  C   UNL d   1      33.230  22.101 -23.623  0.00  0.00     0.055 A 
ATOM      6  C   UNL d   1      33.222  21.658 -24.319  0.00  0.00     0.103 A 
ATOM      7  C   UNL d   1      33.239  22.930 -23.661  0.00  0.00     0.005 A 
ATOM      8  C   UNL d   1      33.224  22.037 -25.065  0.00  0.00     0.020 A 
ATOM      9  C   UNL d   1      33.240  23.309 -24.391  0.00  0.00     0.000 A 
ATOM     10  C   UNL d   1      33.233  22.862 -25.095  0.00  0.00     0.002 A 
ENDROOT
BRANCH   3  11
ATOM     11  N   UNL d   1      33.236  22.189 -22.160  0.00  0.00    -0.225 NA
BRANCH  11  12
ATOM     12  C   UNL d   1      32.999  21.926 -21.486  0.00  0.00     0.101 C 
BRANCH  12  13
ATOM     13  C   UNL d   1      32.948  22.404 -20.899  0.00  0.00     0.019 A 
ATOM     14  C   UNL d   1      33.021  22.133 -20.196  0.00  0.00     0.002 A 
ATOM     15  C   UNL d   1      32.971  22.596 -19.610  0.00  0.00     0.000 A 
ATOM     16  C   UNL d   1      32.847  23.343 -19.720  0.00  0.00     0.000 A 
ATOM     17  C   UNL d   1      32.776  23.606 -20.422  0.00  0.00     0.000 A 
ATOM     18  C   UNL d   1      32.825  23.141 -21.016  0.00  0.00     0.002 A 
ENDBRANCH  12  13
ENDBRANCH  11  12
ENDBRANCH   3  11
BRANCH   1  19
ATOM     19  N   UNL d   1      33.202  19.593 -23.509  0.00  0.00    -0.134 N 
ATOM     20  C   UNL d   1      33.170  19.135 -24.229  0.00  0.00     0.117 A 
ATOM     21  C   UNL d   1      33.161  18.281 -24.186  0.00  0.00     0.100 A 
ATOM     22  N   UNL d   1      33.183  17.887 -23.436  0.00  0.00    -0.299 N 
ATOM     23  C   UNL d   1      33.216  18.345 -22.716  0.00  0.00     0.100 A 
ATOM     24  C   UNL d   1      33.174  17.034 -23.399  0.00  0.00     0.100 C 
ATOM     25  C   UNL d   1      33.225  19.197 -22.747  0.00  0.00     0.117 A 
ENDBRANCH   1  19
TORSDOF 4
ENDMDL
MODEL 3
REMARK VINA RESULT:      -1.4      3.558      6.268
REMARK  4 active torsions:
REMARK  status: ('A' for Active; 'I' for Inactive)
REMARK    1  A    between atoms: N_5  and  C_1 
REMARK    2  A    between atoms: N_8  and  C_3 
REMARK    3  A    between atoms: C_14  and  N_8 
REMARK    4  A    between atoms: C_16  and  C_14 
ROOT
ATOM      1  C   UNL d   1      30.510  16.702 -23.805  0.00  0.00     0.737 A 
ATOM      2  N   UNL d   1      30.982  17.354 -23.600  0.00  0.00    -0.041 NA
ATOM      3  C   UNL d   1      31.783  17.374 -23.819  0.00  0.00     0.182 A 
ATOM      4  N   UNL d   1      30.836  16.068 -24.231  0.00  0.00    -0.060 NA
ATOM      5  C   UNL d   1      32.112  16.743 -24.244  0.00  0.00     0.055 A 
ATOM      6  C   UNL d   1      31.647  16.093 -24.450  0.00  0.00     0.103 A 
ATOM      7  C   UNL d   1      32.912  16.764 -24.463  0.00  0.00     0.005 A 
ATOM      8  C   UNL d   1      31.974  15.454 -24.878  0.00  0.00     0.020 A 
ATOM      9  C   UNL d   1      33.240  16.138 -24.884  0.00  0.00     0.000 A 
ATOM     10  C   UNL d   1      32.770  15.481 -25.093  0.00  0.00     0.002 A 
ENDROOT
BRANCH   3  11
ATOM     11  N   UNL d   1      32.273  18.052 -23.606  0.00  0.00    -0.225 NA
BRANCH  11  12
ATOM     12  C   UNL d   1      32.304  18.346 -22.904  0.00  0.00     0.101 C 
BRANCH  12  13
ATOM     13  C   UNL d   1      32.618  19.030 -22.803  0.00  0.00     0.019 A 
ATOM     14  C   UNL d   1      32.749  19.468 -23.406  0.00  0.00     0.002 A 
ATOM     15  C   UNL d   1      33.057  20.144 -23.316  0.00  0.00     0.000 A 
ATOM     16  C   UNL d   1      33.240  20.393 -22.616  0.00  0.00     0.000 A 
ATOM     17  C   UNL d   1      33.107  19.952 -22.021  0.00  0.00     0.000 A 
ATOM     18  C   UNL d   1      32.796  19.269 -22.108  0.00  0.00     0.002 A 
ENDBRANCH  12  13
ENDBRANCH  11  12
ENDBRANCH   3  11
BRANCH   1  19
ATOM     19  N   UNL d   1      29.690  16.678 -23.583  0.00  0.00    -0.134 N 
ATOM     20  C   UNL d   1      29.421  16.111 -23.004  0.00  0.00     0.117 A 
ATOM     21  C   UNL d   1      28.594  16.092 -22.785  0.00  0.00     0.100 A 
ATOM     22  N   UNL d   1      28.042  16.630 -23.137  0.00  0.00    -0.299 N 
ATOM     23  C   UNL d   1      28.312  17.196 -23.717  0.00  0.00     0.100 A 
ATOM     24  C   UNL d   1      27.218  16.605 -22.915  0.00  0.00     0.100 C 
ATOM     25  C   UNL d   1      29.133  17.225 -23.942  0.00  0.00     0.117 A 
ENDBRANCH   1  19
TORSDOF 4
ENDMDL
MODEL 4
REMARK VINA RESULT:      -0.8      2.775      5.102
REMARK  4 active torsions:
REMARK  status: ('A' for Active; 'I' for Inactive)
REMARK    1  A    between atoms: N_5  and  C_1 
REMARK    2  A    between atoms: N_8  and  C_3 
REMARK    3  A    between atoms: C_14  and  N_8 
REMARK    4  A    between atoms: C_16  and  C_14 
ROOT
ATOM      1  C   UNL d   1      32.548  18.538 -23.137  0.00  0.00     0.737 A 
ATOM      2  N   UNL d   1      31.955  18.333 -23.681  0.00  0.00    -0.041 NA
ATOM      3  C   UNL d   1      31.789  17.534 -23.836  0.00  0.00     0.182 A 
ATOM      4  N   UNL d   1      32.978  17.945 -22.745  0.00  0.00    -0.060 NA
ATOM      5  C   UNL d   1      32.217  16.940 -23.447  0.00  0.00     0.055 A 
ATOM      6  C   UNL d   1      32.806  17.139 -22.905  0.00  0.00     0.103 A 
ATOM      7  C   UNL d   1      32.051  16.142 -23.602  0.00  0.00     0.005 A 
ATOM      8  C   UNL d   1      33.240  16.543 -22.510  0.00  0.00     0.020 A 
ATOM      9  C   UNL d   1      32.474  15.550 -23.216  0.00  0.00     0.000 A 
ATOM     10  C   UNL d   1      33.070  15.751 -22.669  0.00  0.00     0.002 A 
ENDROOT
BRANCH   3  11
ATOM     11  N   UNL d   1      31.173  17.321 -24.402  0.00  0.00    -0.225 NA
BRANCH  11  12
ATOM     12  C   UNL d   1      30.585  17.772 -24.574  0.00  0.00     0.101 C 
BRANCH  12  13
ATOM     13  C   UNL d   1      29.903  17.462 -24.697  0.00  0.00     0.019 A 
ATOM     14  C   UNL d   1      29.282  17.861 -24.530  0.00  0.00     0.002 A 
ATOM     15  C   UNL d   1      28.605  17.564 -24.647  0.00  0.00     0.000 A 
ATOM     16  C   UNL d   1      28.540  16.857 -24.934  0.00  0.00     0.000 A 
ATOM     17  C   UNL d   1      29.161  16.466 -25.097  0.00  0.00     0.000 A 
ATOM     18  C   UNL d   1      29.847  16.764 -24.980  0.00  0.00     0.002 A 
ENDBRANCH  12  13
ENDBRANCH  11  12
ENDBRANCH   3  11
BRANCH   1  19
ATOM     19  N   UNL d   1      32.720  19.354 -22.975  0.00  0.00    -0.134 N 
ATOM     20  C   UNL d   1      32.755  19.633 -22.169  0.00  0.00     0.117 A 
ATOM     21  C   UNL d   1      32.929  20.456 -22.014  0.00  0.00     0.100 A 
ATOM     22  N   UNL d   1      33.067  20.995 -22.654  0.00  0.00    -0.299 N 
ATOM     23  C   UNL d   1      33.032  20.716 -23.460  0.00  0.00     0.100 A 
ATOM     24  C   UNL d   1      33.241  21.815 -22.492  0.00  0.00     0.100 C 
ATOM     25  C   UNL d   1      32.860  19.899 -23.626  0.00  0.00     0.117 A 
ENDBRANCH   1  19
TORSDOF 4
ENDMDL
MODEL 5
REMARK VINA RESULT:       0.2      1.539      3.441
REMARK  4 active torsions:
REMARK  status: ('A' for Active; 'I' for Inactive)
REMARK    1  A    between atoms: N_5  and  C_1 
REMARK    2  A    between atoms: N_8  and  C_3 
REMARK    3  A    between atoms: C_14  and  N_8 
REMARK    4  A    between atoms: C_16  and  C_14 
ROOT
ATOM      1  C   UNL d   1      33.202  21.222 -22.666  0.00  0.00     0.737 A 
ATOM      2  N   UNL d   1      33.214  20.425 -22.899  0.00  0.00    -0.041 NA
ATOM      3  C   UNL d   1      33.226  19.823 -22.327  0.00  0.00     0.182 A 
ATOM      4  N   UNL d   1      33.200  21.421 -21.860  0.00  0.00    -0.060 NA
ATOM      5  C   UNL d   1      33.225  20.018 -21.521  0.00  0.00     0.055 A 
ATOM      6  C   UNL d   1      33.212  20.809 -21.285  0.00  0.00     0.103 A 
ATOM      7  C   UNL d   1      33.236  19.417 -20.950  0.00  0.00     0.005 A 
ATOM      8  C   UNL d   1      33.211  21.011 -20.473  0.00  0.00     0.020 A 
ATOM      9  C   UNL d   1      33.235  19.608 -20.149  0.00  0.00     0.000 A 
ATOM     10  C   UNL d   1      33.223  20.407 -19.910  0.00  0.00     0.002 A 
ENDROOT
BRANCH   3  11
ATOM     11  N   UNL d   1      33.239  18.995 -22.569  0.00  0.00    -0.225 NA
BRANCH  11  12
ATOM     12  C   UNL d   1      32.689  18.666 -22.980  0.00  0.00     0.101 C 
BRANCH  12  13
ATOM     13  C   UNL d   1      32.732  17.924 -23.132  0.00  0.00     0.019 A 
ATOM     14  C   UNL d   1      32.337  17.437 -22.708  0.00  0.00     0.002 A 
ATOM     15  C   UNL d   1      32.373  16.704 -22.851  0.00  0.00     0.000 A 
ATOM     16  C   UNL d   1      32.809  16.444 -23.423  0.00  0.00     0.000 A 
ATOM     17  C   UNL d   1      33.200  16.933 -23.841  0.00  0.00     0.000 A 
ATOM     18  C   UNL d   1      33.165  17.676 -23.700  0.00  0.00     0.002 A 
ENDBRANCH  12  13
ENDBRANCH  11  12
ENDBRANCH   3  11
BRANCH   1  19
ATOM     19  N   UNL d   1      33.190  21.840 -23.249  0.00  0.00    -0.134 N 
ATOM     20  C   UNL d   1      33.167  22.658 -23.004  0.00  0.00     0.117 A 
ATOM     21  C   UNL d   1      33.155  23.275 -23.596  0.00  0.00     0.100 A 
ATOM     22  N   UNL d   1      33.166  23.082 -24.421  0.00  0.00    -0.299 N 
ATOM     23  C   UNL d   1      33.189  22.264 -24.666  0.00  0.00     0.100 A 
ATOM     24  C   UNL d   1      33.154  23.702 -25.007  0.00  0.00     0.100 C 
ATOM     25  C   UNL d   1      33.201  21.641 -24.085  0.00  0.00     0.117 A 
ENDBRANCH   1  19
TORSDOF 4
ENDMDL
