MODEL 1
REMARK VINA RESULT:      -6.7      0.000      0.000
REMARK  5 active torsions:
REMARK  status: ('A' for Active; 'I' for Inactive)
REMARK    1  A    between atoms: C_9  and  N_1 
REMARK    2  A    between atoms: C_2  and  C_9 
REMARK    3  A    between atoms: S_14  and  C_5 
REMARK    4  A    between atoms: C_12  and  C_16 
REMARK       I    between atoms: N_13  and  C_12 
REMARK    5  A    between atoms: C_16  and  S_14 
ROOT
ATOM      1  C   UNL d   1     -47.988  13.298  22.488  0.00  0.00     0.189 A 
ATOM      2  N   UNL d   1     -47.174  13.388  22.507  0.00  0.00    -0.265 N 
ATOM      3  C   UNL d   1     -46.856  12.736  22.898  0.00  0.00     0.202 A 
ATOM      4  N   UNL d   1     -48.176  12.592  22.865  0.00  0.00    -0.126 NA
ATOM      5  N   UNL d   1     -47.476  12.242  23.119  0.00  0.00    -0.121 NA
ATOM      6  C   UNL d   1     -46.735  14.016  22.195  0.00  0.00     0.103 C 
ENDROOT
BRANCH   1   7
ATOM      7  C   UNL d   1     -48.455  13.866  22.131  0.00  0.00     0.123 C 
BRANCH   7   8
ATOM      8  N   UNL d   1     -49.276  13.857  22.228  0.00  0.00    -0.265 N 
ATOM      9  C   UNL d   1     -49.806  13.351  21.840  0.00  0.00     0.296 A 
ATOM     10  S   UNL d   1     -50.564  13.536  22.105  0.00  0.00    -0.025 SA
ATOM     11  O   UNL d   1     -49.608  12.770  21.290  0.00  0.00    -0.259 OA
ATOM     12  C   UNL d   1     -50.496  14.159  22.658  0.00  0.00     0.050 A 
ATOM     13  C   UNL d   1     -49.699  14.351  22.728  0.00  0.00     0.074 A 
ATOM     14  C   UNL d   1     -51.064  14.568  23.100  0.00  0.00     0.008 A 
ATOM     15  C   UNL d   1     -49.465  14.958  23.246  0.00  0.00     0.018 A 
ATOM     16  C   UNL d   1     -50.030  15.370  23.690  0.00  0.00     0.002 A 
ATOM     17  C   UNL d   1     -50.834  15.166  23.610  0.00  0.00     0.001 A 
ENDBRANCH   7   8
ENDBRANCH   1   7
BRANCH   3  18
ATOM     18  S   UNL d   1     -46.054  12.599  23.043  0.00  0.00    -0.043 SA
BRANCH  18  19
ATOM     19  C   UNL d   1     -45.778  11.832  23.184  0.00  0.00     0.099 C 
BRANCH  19  20
ATOM     20  C   UNL d   1     -44.970  11.662  23.120  0.00  0.00     0.271 C 
ATOM     21  N   UNL d   1     -44.689  10.915  23.319  0.00  0.00    -0.272 N 
ATOM     22  C   UNL d   1     -45.073  10.238  23.593  0.00  0.00     0.083 A 
ATOM     23  C   UNL d   1     -43.892  10.746  23.257  0.00  0.00     0.083 A 
ATOM     24  C   UNL d   1     -44.500   9.651  23.698  0.00  0.00     0.021 A 
ATOM     25  C   UNL d   1     -43.780   9.968  23.491  0.00  0.00     0.021 A 
ATOM     26  O   UNL d   1     -44.445  12.244  22.856  0.00  0.00    -0.266 OA
ENDBRANCH  19  20
ENDBRANCH  18  19
ENDBRANCH   3  18
TORSDOF 5
ENDMDL
MODEL 2
REMARK VINA RESULT:      -3.9      8.866     10.490
REMARK  5 active torsions:
REMARK  status: ('A' for Active; 'I' for Inactive)
REMARK    1  A    between atoms: C_9  and  N_1 
REMARK    2  A    between atoms: C_2  and  C_9 
REMARK    3  A    between atoms: S_14  and  C_5 
REMARK    4  A    between atoms: C_12  and  C_16 
REMARK       I    between atoms: N_13  and  C_12 
REMARK    5  A    between atoms: C_16  and  S_14 
ROOT
ATOM      1  C   UNL d   1     -39.168  13.889  18.131  0.00  0.00     0.189 A 
ATOM      2  N   UNL d   1     -39.673  14.157  18.717  0.00  0.00    -0.265 N 
ATOM      3  C   UNL d   1     -39.262  14.147  19.432  0.00  0.00     0.202 A 
ATOM      4  N   UNL d   1     -38.444  13.713  18.479  0.00  0.00    -0.126 NA
ATOM      5  N   UNL d   1     -38.500  13.872  19.285  0.00  0.00    -0.121 NA
ATOM      6  C   UNL d   1     -40.459  14.399  18.625  0.00  0.00     0.103 C 
ENDROOT
BRANCH   1   7
ATOM      7  C   UNL d   1     -39.428  13.839  17.358  0.00  0.00     0.123 C 
BRANCH   7   8
ATOM      8  N   UNL d   1     -38.893  13.901  16.731  0.00  0.00    -0.265 N 
ATOM      9  C   UNL d   1     -38.402  13.295  16.449  0.00  0.00     0.296 A 
ATOM     10  S   UNL d   1     -37.964  13.602  15.821  0.00  0.00    -0.025 SA
ATOM     11  O   UNL d   1     -38.360  12.527  16.744  0.00  0.00    -0.259 OA
ATOM     12  C   UNL d   1     -38.190  14.400  15.720  0.00  0.00     0.050 A 
ATOM     13  C   UNL d   1     -38.763  14.576  16.284  0.00  0.00     0.074 A 
ATOM     14  C   UNL d   1     -37.941  14.979  15.183  0.00  0.00     0.008 A 
ATOM     15  C   UNL d   1     -39.092  15.340  16.313  0.00  0.00     0.018 A 
ATOM     16  C   UNL d   1     -38.846  15.922  15.778  0.00  0.00     0.002 A 
ATOM     17  C   UNL d   1     -38.265  15.731  15.212  0.00  0.00     0.001 A 
ENDBRANCH   7   8
ENDBRANCH   1   7
BRANCH   3  18
ATOM     18  S   UNL d   1     -39.559  14.374  20.168  0.00  0.00    -0.043 SA
BRANCH  18  19
ATOM     19  C   UNL d   1     -39.050  14.490  20.809  0.00  0.00     0.099 C 
BRANCH  19  20
ATOM     20  C   UNL d   1     -39.354  14.684  21.554  0.00  0.00     0.271 C 
ATOM     21  N   UNL d   1     -38.925  14.510  22.234  0.00  0.00    -0.272 N 
ATOM     22  C   UNL d   1     -38.190  14.152  22.342  0.00  0.00     0.083 A 
ATOM     23  C   UNL d   1     -39.225  14.701  22.970  0.00  0.00     0.083 A 
ATOM     24  C   UNL d   1     -38.043  14.126  23.156  0.00  0.00     0.021 A 
ATOM     25  C   UNL d   1     -38.680  14.464  23.534  0.00  0.00     0.021 A 
ATOM     26  O   UNL d   1     -40.093  15.053  21.615  0.00  0.00    -0.266 OA
ENDBRANCH  19  20
ENDBRANCH  18  19
ENDBRANCH   3  18
TORSDOF 5
ENDMDL
