MODEL 1
REMARK VINA RESULT:      -5.0      0.000      0.000
REMARK  7 active torsions:
REMARK  status: ('A' for Active; 'I' for Inactive)
REMARK    1  A    between atoms: C_8  and  N_1 
REMARK       I    between atoms: C_3  and  N_5 
REMARK       I    between atoms: N_9  and  C_3 
REMARK    2  A    between atoms: N_5  and  C_6 
REMARK    3  A    between atoms: C_18  and  N_9 
REMARK    4  A    between atoms: C_19  and  N_9 
REMARK    5  A    between atoms: O_17  and  C_14 
REMARK    6  A    between atoms: C_21  and  C_18 
REMARK    7  A    between atoms: C_22  and  C_19 
ROOT
ATOM      1  N   UNL d   1     -47.505  13.311  22.619  0.00  0.00    -0.272 N 
ATOM      2  C   UNL d   1     -47.105  13.993  22.866  0.00  0.00     0.266 A 
ATOM      3  C   UNL d   1     -46.315  13.774  23.002  0.00  0.00     0.082 A 
ATOM      4  C   UNL d   1     -46.236  12.969  22.840  0.00  0.00     0.108 A 
ATOM      5  C   UNL d   1     -46.977  12.688  22.603  0.00  0.00     0.102 A 
ATOM      6  O   UNL d   1     -47.426  14.741  22.959  0.00  0.00    -0.267 OA
ENDROOT
BRANCH   4   7
ATOM      7  N   UNL d   1     -45.539  12.529  22.904  0.00  0.00    -0.190 NA
ATOM      8  C   UNL d   1     -44.970  12.580  22.314  0.00  0.00     0.354 C 
ATOM      9  N   UNL d   1     -44.272  12.142  22.374  0.00  0.00    -0.256 N 
ATOM     10  O   UNL d   1     -45.090  13.066  21.661  0.00  0.00    -0.244 OA
BRANCH   9  11
ATOM     11  C   UNL d   1     -43.692  12.188  21.783  0.00  0.00     0.085 C 
BRANCH  11  12
ATOM     12  C   UNL d   1     -43.108  12.760  21.809  0.00  0.00     0.019 C 
ATOM     13  C   UNL d   1     -42.644  12.929  21.148  0.00  0.00     0.002 C 
ENDBRANCH  11  12
ENDBRANCH   9  11
BRANCH   9  14
ATOM     14  C   UNL d   1     -44.150  11.654  23.029  0.00  0.00     0.085 C 
BRANCH  14  15
ATOM     15  C   UNL d   1     -43.939  10.866  22.914  0.00  0.00     0.019 C 
ATOM     16  C   UNL d   1     -43.836  10.365  23.572  0.00  0.00     0.002 C 
ENDBRANCH  14  15
ENDBRANCH   9  14
ENDBRANCH   4   7
BRANCH   1  17
ATOM     17  C   UNL d   1     -48.305  13.272  22.423  0.00  0.00     0.067 A 
ATOM     18  C   UNL d   1     -48.860  13.057  22.997  0.00  0.00     0.020 A 
ATOM     19  C   UNL d   1     -49.661  13.018  22.801  0.00  0.00     0.026 A 
ATOM     20  C   UNL d   1     -49.907  13.193  22.034  0.00  0.00     0.094 A 
ATOM     21  C   UNL d   1     -49.359  13.407  21.459  0.00  0.00     0.026 A 
ATOM     22  C   UNL d   1     -48.551  13.447  21.657  0.00  0.00     0.020 A 
BRANCH  20  23
ATOM     23  O   UNL d   1     -50.709  13.151  21.846  0.00  0.00    -0.328 OA
ATOM     24  C   UNL d   1     -51.064  13.780  21.450  0.00  0.00     0.181 C 
ENDBRANCH  20  23
ENDBRANCH   1  17
TORSDOF 7
ENDMDL
MODEL 2
REMARK VINA RESULT:      -4.3      1.433      1.625
REMARK  7 active torsions:
REMARK  status: ('A' for Active; 'I' for Inactive)
REMARK    1  A    between atoms: C_8  and  N_1 
REMARK       I    between atoms: C_3  and  N_5 
REMARK       I    between atoms: N_9  and  C_3 
REMARK    2  A    between atoms: N_5  and  C_6 
REMARK    3  A    between atoms: C_18  and  N_9 
REMARK    4  A    between atoms: C_19  and  N_9 
REMARK    5  A    between atoms: O_17  and  C_14 
REMARK    6  A    between atoms: C_21  and  C_18 
REMARK    7  A    between atoms: C_22  and  C_19 
ROOT
ATOM      1  N   UNL d   1     -48.151  13.596  22.565  0.00  0.00    -0.272 N 
ATOM      2  C   UNL d   1     -48.216  13.172  21.857  0.00  0.00     0.266 A 
ATOM      3  C   UNL d   1     -47.572  12.648  21.829  0.00  0.00     0.082 A 
ATOM      4  C   UNL d   1     -47.121  12.753  22.512  0.00  0.00     0.108 A 
ATOM      5  C   UNL d   1     -47.485  13.342  22.964  0.00  0.00     0.102 A 
ATOM      6  O   UNL d   1     -48.803  13.252  21.292  0.00  0.00    -0.267 OA
ENDROOT
BRANCH   4   7
ATOM      7  N   UNL d   1     -46.430  12.341  22.704  0.00  0.00    -0.190 NA
ATOM      8  C   UNL d   1     -45.703  12.629  22.455  0.00  0.00     0.354 C 
ATOM      9  N   UNL d   1     -45.009  12.221  22.644  0.00  0.00    -0.256 N 
ATOM     10  O   UNL d   1     -45.658  13.324  22.018  0.00  0.00    -0.244 OA
BRANCH   9  11
ATOM     11  C   UNL d   1     -44.271  12.504  22.398  0.00  0.00     0.085 C 
BRANCH  11  12
ATOM     12  C   UNL d   1     -44.083  12.559  21.603  0.00  0.00     0.019 C 
ATOM     13  C   UNL d   1     -43.357  12.859  21.354  0.00  0.00     0.002 C 
ENDBRANCH  11  12
ENDBRANCH   9  11
BRANCH   9  14
ATOM     14  C   UNL d   1     -45.053  11.522  23.083  0.00  0.00     0.085 C 
BRANCH  14  15
ATOM     15  C   UNL d   1     -44.409  11.009  23.094  0.00  0.00     0.019 C 
ATOM     16  C   UNL d   1     -44.456  10.296  23.522  0.00  0.00     0.002 C 
ENDBRANCH  14  15
ENDBRANCH   9  14
ENDBRANCH   4   7
BRANCH   1  17
ATOM     17  C   UNL d   1     -48.675  14.179  22.821  0.00  0.00     0.067 A 
ATOM     18  C   UNL d   1     -49.296  13.980  23.330  0.00  0.00     0.020 A 
ATOM     19  C   UNL d   1     -49.820  14.564  23.587  0.00  0.00     0.026 A 
ATOM     20  C   UNL d   1     -49.726  15.343  23.337  0.00  0.00     0.094 A 
ATOM     21  C   UNL d   1     -49.110  15.546  22.831  0.00  0.00     0.026 A 
ATOM     22  C   UNL d   1     -48.581  14.957  22.572  0.00  0.00     0.020 A 
BRANCH  20  23
ATOM     23  O   UNL d   1     -50.254  15.920  23.598  0.00  0.00    -0.328 OA
ATOM     24  C   UNL d   1     -51.064  15.784  23.536  0.00  0.00     0.181 C 
ENDBRANCH  20  23
ENDBRANCH   1  17
TORSDOF 7
ENDMDL
MODEL 3
REMARK VINA RESULT:      -4.2      1.438      5.281
REMARK  7 active torsions:
REMARK  status: ('A' for Active; 'I' for Inactive)
REMARK    1  A    between atoms: C_8  and  N_1 
REMARK       I    between atoms: C_3  and  N_5 
REMARK       I    between atoms: N_9  and  C_3 
REMARK    2  A    between atoms: N_5  and  C_6 
REMARK    3  A    between atoms: C_18  and  N_9 
REMARK    4  A    between atoms: C_19  and  N_9 
REMARK    5  A    between atoms: O_17  and  C_14 
REMARK    6  A    between atoms: C_21  and  C_18 
REMARK    7  A    between atoms: C_22  and  C_19 
ROOT
ATOM      1  N   UNL d   1     -46.354  12.606  22.959  0.00  0.00    -0.272 N 
ATOM      2  C   UNL d   1     -46.758  12.040  23.408  0.00  0.00     0.266 A 
ATOM      3  C   UNL d   1     -47.509  12.353  23.574  0.00  0.00     0.082 A 
ATOM      4  C   UNL d   1     -47.561  13.101  23.230  0.00  0.00     0.108 A 
ATOM      5  C   UNL d   1     -46.842  13.252  22.851  0.00  0.00     0.102 A 
ATOM      6  O   UNL d   1     -46.472  11.309  23.644  0.00  0.00    -0.267 OA
ENDROOT
BRANCH   4   7
ATOM      7  N   UNL d   1     -48.217  13.604  23.262  0.00  0.00    -0.190 NA
ATOM      8  C   UNL d   1     -48.734  13.638  22.626  0.00  0.00     0.354 C 
ATOM      9  N   UNL d   1     -49.391  14.139  22.653  0.00  0.00    -0.256 N 
ATOM     10  O   UNL d   1     -48.604  13.176  21.958  0.00  0.00    -0.244 OA
BRANCH   9  11
ATOM     11  C   UNL d   1     -49.919  14.181  22.016  0.00  0.00     0.085 C 
BRANCH  11  12
ATOM     12  C   UNL d   1     -50.387  13.541  21.813  0.00  0.00     0.019 C 
ATOM     13  C   UNL d   1     -51.064  13.634  21.353  0.00  0.00     0.002 C 
ENDBRANCH  11  12
ENDBRANCH   9  11
BRANCH   9  14
ATOM     14  C   UNL d   1     -49.523  14.604  23.324  0.00  0.00     0.085 C 
BRANCH  14  15
ATOM     15  C   UNL d   1     -49.467  15.423  23.266  0.00  0.00     0.019 C 
ATOM     16  C   UNL d   1     -50.090  15.901  23.547  0.00  0.00     0.002 C 
ENDBRANCH  14  15
ENDBRANCH   9  14
ENDBRANCH   4   7
BRANCH   1  17
ATOM     17  C   UNL d   1     -45.585  12.527  22.671  0.00  0.00     0.067 A 
ATOM     18  C   UNL d   1     -45.266  13.112  22.182  0.00  0.00     0.020 A 
ATOM     19  C   UNL d   1     -44.497  13.033  21.894  0.00  0.00     0.026 A 
ATOM     20  C   UNL d   1     -44.047  12.373  22.094  0.00  0.00     0.094 A 
ATOM     21  C   UNL d   1     -44.359  11.788  22.580  0.00  0.00     0.026 A 
ATOM     22  C   UNL d   1     -45.136  11.868  22.871  0.00  0.00     0.020 A 
BRANCH  20  23
ATOM     23  O   UNL d   1     -43.279  12.302  21.801  0.00  0.00    -0.328 OA
ATOM     24  C   UNL d   1     -42.979  12.887  21.306  0.00  0.00     0.181 C 
ENDBRANCH  20  23
ENDBRANCH   1  17
TORSDOF 7
ENDMDL
MODEL 4
REMARK VINA RESULT:      -3.2      7.445      8.908
REMARK  7 active torsions:
REMARK  status: ('A' for Active; 'I' for Inactive)
REMARK    1  A    between atoms: C_8  and  N_1 
REMARK       I    between atoms: C_3  and  N_5 
REMARK       I    between atoms: N_9  and  C_3 
REMARK    2  A    between atoms: N_5  and  C_6 
REMARK    3  A    between atoms: C_18  and  N_9 
REMARK    4  A    between atoms: C_19  and  N_9 
REMARK    5  A    between atoms: O_17  and  C_14 
REMARK    6  A    between atoms: C_21  and  C_18 
REMARK    7  A    between atoms: C_22  and  C_19 
ROOT
ATOM      1  N   UNL d   1     -39.643  15.212  20.585  0.00  0.00    -0.272 N 
ATOM      2  C   UNL d   1     -40.341  15.652  20.521  0.00  0.00     0.266 A 
ATOM      3  C   UNL d   1     -40.407  15.889  19.728  0.00  0.00     0.082 A 
ATOM      4  C   UNL d   1     -39.756  15.596  19.314  0.00  0.00     0.108 A 
ATOM      5  C   UNL d   1     -39.286  15.178  19.851  0.00  0.00     0.102 A 
ATOM      6  O   UNL d   1     -40.869  15.823  21.125  0.00  0.00    -0.267 OA
ENDROOT
BRANCH   4   7
ATOM      7  N   UNL d   1     -39.605  15.705  18.508  0.00  0.00    -0.190 NA
ATOM      8  C   UNL d   1     -40.199  15.559  17.961  0.00  0.00     0.354 C 
ATOM      9  N   UNL d   1     -40.054  15.666  17.154  0.00  0.00    -0.256 N 
ATOM     10  O   UNL d   1     -40.941  15.305  18.210  0.00  0.00    -0.244 OA
BRANCH   9  11
ATOM     11  C   UNL d   1     -40.648  15.521  16.595  0.00  0.00     0.085 C 
BRANCH  11  12
ATOM     12  C   UNL d   1     -41.366  15.912  16.630  0.00  0.00     0.019 C 
ATOM     13  C   UNL d   1     -41.935  15.816  16.041  0.00  0.00     0.002 C 
ENDBRANCH  11  12
ENDBRANCH   9  11
BRANCH   9  14
ATOM     14  C   UNL d   1     -39.309  15.920  16.903  0.00  0.00     0.085 C 
BRANCH  14  15
ATOM     15  C   UNL d   1     -38.868  15.445  16.397  0.00  0.00     0.019 C 
ATOM     16  C   UNL d   1     -38.590  15.756  15.675  0.00  0.00     0.002 C 
ENDBRANCH  14  15
ENDBRANCH   9  14
ENDBRANCH   4   7
BRANCH   1  17
ATOM     17  C   UNL d   1     -39.358  14.868  21.278  0.00  0.00     0.067 A 
ATOM     18  C   UNL d   1     -39.694  14.165  21.557  0.00  0.00     0.020 A 
ATOM     19  C   UNL d   1     -39.409  13.820  22.250  0.00  0.00     0.026 A 
ATOM     20  C   UNL d   1     -38.791  14.175  22.664  0.00  0.00     0.094 A 
ATOM     21  C   UNL d   1     -38.454  14.873  22.391  0.00  0.00     0.026 A 
ATOM     22  C   UNL d   1     -38.741  15.222  21.691  0.00  0.00     0.020 A 
BRANCH  20  23
ATOM     23  O   UNL d   1     -38.513  13.823  23.357  0.00  0.00    -0.328 OA
ATOM     24  C   UNL d   1     -38.696  13.035  23.512  0.00  0.00     0.181 C 
ENDBRANCH  20  23
ENDBRANCH   1  17
TORSDOF 7
ENDMDL
MODEL 5
REMARK VINA RESULT:      -2.4      2.242      4.199
REMARK  7 active torsions:
REMARK  status: ('A' for Active; 'I' for Inactive)
REMARK    1  A    between atoms: C_8  and  N_1 
REMARK       I    between atoms: C_3  and  N_5 
REMARK       I    between atoms: N_9  and  C_3 
REMARK    2  A    between atoms: N_5  and  C_6 
REMARK    3  A    between atoms: C_18  and  N_9 
REMARK    4  A    between atoms: C_19  and  N_9 
REMARK    5  A    between atoms: O_17  and  C_14 
REMARK    6  A    between atoms: C_21  and  C_18 
REMARK    7  A    between atoms: C_22  and  C_19 
ROOT
ATOM      1  N   UNL d   1     -44.095  13.037  21.678  0.00  0.00    -0.272 N 
ATOM      2  C   UNL d   1     -43.592  12.409  21.872  0.00  0.00     0.266 A 
ATOM      3  C   UNL d   1     -42.862  12.563  21.508  0.00  0.00     0.082 A 
ATOM      4  C   UNL d   1     -42.921  13.275  21.097  0.00  0.00     0.108 A 
ATOM      5  C   UNL d   1     -43.687  13.565  21.206  0.00  0.00     0.102 A 
ATOM      6  O   UNL d   1     -43.778  11.760  22.336  0.00  0.00    -0.267 OA
ENDROOT
BRANCH   4   7
ATOM      7  N   UNL d   1     -42.317  13.631  20.656  0.00  0.00    -0.190 NA
ATOM      8  C   UNL d   1     -41.666  13.948  21.042  0.00  0.00     0.354 C 
ATOM      9  N   UNL d   1     -41.060  14.304  20.606  0.00  0.00    -0.256 N 
ATOM     10  O   UNL d   1     -41.609  13.913  21.862  0.00  0.00    -0.244 OA
BRANCH   9  11
ATOM     11  C   UNL d   1     -40.398  14.626  20.987  0.00  0.00     0.085 C 
BRANCH  11  12
ATOM     12  C   UNL d   1     -40.373  15.418  21.192  0.00  0.00     0.019 C 
ATOM     13  C   UNL d   1     -39.733  15.734  21.605  0.00  0.00     0.002 C 
ENDBRANCH  11  12
ENDBRANCH   9  11
BRANCH   9  14
ATOM     14  C   UNL d   1     -41.115  14.340  19.783  0.00  0.00     0.085 C 
BRANCH  14  15
ATOM     15  C   UNL d   1     -40.461  14.144  19.324  0.00  0.00     0.019 C 
ATOM     16  C   UNL d   1     -40.514  14.178  18.492  0.00  0.00     0.002 C 
ENDBRANCH  14  15
ENDBRANCH   9  14
ENDBRANCH   4   7
BRANCH   1  17
ATOM     17  C   UNL d   1     -44.879  13.114  21.924  0.00  0.00     0.067 A 
ATOM     18  C   UNL d   1     -45.079  13.678  22.495  0.00  0.00     0.020 A 
ATOM     19  C   UNL d   1     -45.863  13.755  22.740  0.00  0.00     0.026 A 
ATOM     20  C   UNL d   1     -46.446  13.270  22.417  0.00  0.00     0.094 A 
ATOM     21  C   UNL d   1     -46.253  12.708  21.848  0.00  0.00     0.026 A 
ATOM     22  C   UNL d   1     -45.461  12.631  21.601  0.00  0.00     0.020 A 
BRANCH  20  23
ATOM     23  O   UNL d   1     -47.228  13.354  22.667  0.00  0.00    -0.328 OA
ATOM     24  C   UNL d   1     -47.539  12.815  23.206  0.00  0.00     0.181 C 
ENDBRANCH  20  23
ENDBRANCH   1  17
TORSDOF 7
ENDMDL
MODEL 6
REMARK VINA RESULT:      -2.1      2.207      5.907
REMARK  7 active torsions:
REMARK  status: ('A' for Active; 'I' for Inactive)
REMARK    1  A    between atoms: C_8  and  N_1 
REMARK       I    between atoms: C_3  and  N_5 
REMARK       I    between atoms: N_9  and  C_3 
REMARK    2  A    between atoms: N_5  and  C_6 
REMARK    3  A    between atoms: C_18  and  N_9 
REMARK    4  A    between atoms: C_19  and  N_9 
REMARK    5  A    between atoms: O_17  and  C_14 
REMARK    6  A    between atoms: C_21  and  C_18 
REMARK    7  A    between atoms: C_22  and  C_19 
ROOT
ATOM      1  N   UNL d   1     -43.066  13.261  21.407  0.00  0.00    -0.272 N 
ATOM      2  C   UNL d   1     -43.184  12.469  21.616  0.00  0.00     0.266 A 
ATOM      3  C   UNL d   1     -43.972  12.400  21.870  0.00  0.00     0.082 A 
ATOM      4  C   UNL d   1     -44.328  13.142  21.817  0.00  0.00     0.108 A 
ATOM      5  C   UNL d   1     -43.762  13.671  21.529  0.00  0.00     0.102 A 
ATOM      6  O   UNL d   1     -42.630  11.866  21.579  0.00  0.00    -0.267 OA
ENDROOT
BRANCH   4   7
ATOM      7  N   UNL d   1     -45.112  13.317  22.016  0.00  0.00    -0.190 NA
ATOM      8  C   UNL d   1     -45.492  12.877  22.595  0.00  0.00     0.354 C 
ATOM      9  N   UNL d   1     -46.274  13.049  22.799  0.00  0.00    -0.256 N 
ATOM     10  O   UNL d   1     -45.099  12.264  22.977  0.00  0.00    -0.244 OA
BRANCH   9  11
ATOM     11  C   UNL d   1     -46.666  12.609  23.382  0.00  0.00     0.085 C 
BRANCH  11  12
ATOM     12  C   UNL d   1     -47.273  12.095  23.187  0.00  0.00     0.019 C 
ATOM     13  C   UNL d   1     -47.501  11.490  23.698  0.00  0.00     0.002 C 
ENDBRANCH  11  12
ENDBRANCH   9  11
BRANCH   9  14
ATOM     14  C   UNL d   1     -46.670  13.664  22.416  0.00  0.00     0.085 C 
BRANCH  14  15
ATOM     15  C   UNL d   1     -46.953  14.300  22.856  0.00  0.00     0.019 C 
ATOM     16  C   UNL d   1     -47.404  14.893  22.483  0.00  0.00     0.002 C 
ENDBRANCH  14  15
ENDBRANCH   9  14
ENDBRANCH   4   7
BRANCH   1  17
ATOM     17  C   UNL d   1     -42.360  13.580  21.123  0.00  0.00     0.067 A 
ATOM     18  C   UNL d   1     -42.249  13.674  20.309  0.00  0.00     0.020 A 
ATOM     19  C   UNL d   1     -41.543  13.993  20.026  0.00  0.00     0.026 A 
ATOM     20  C   UNL d   1     -40.950  14.218  20.552  0.00  0.00     0.094 A 
ATOM     21  C   UNL d   1     -41.056  14.126  21.362  0.00  0.00     0.026 A 
ATOM     22  C   UNL d   1     -41.768  13.804  21.649  0.00  0.00     0.020 A 
BRANCH  20  23
ATOM     23  O   UNL d   1     -40.247  14.536  20.259  0.00  0.00    -0.328 OA
ATOM     24  C   UNL d   1     -40.149  15.353  20.243  0.00  0.00     0.181 C 
ENDBRANCH  20  23
ENDBRANCH   1  17
TORSDOF 7
ENDMDL
