MODEL 1
REMARK VINA RESULT:      46.7      0.000      0.000
REMARK  5 active torsions:
REMARK  status: ('A' for Active; 'I' for Inactive)
REMARK    1  A    between atoms: C_11  and  C_5 
REMARK    2  A    between atoms: C_25  and  N_6 
REMARK    3  A    between atoms: N_14  and  C_27 
REMARK    4  A    between atoms: C_26  and  C_25 
REMARK    5  A    between atoms: C_27  and  C_26 
ROOT
ATOM      1  C   UNL d   1      13.665  13.016  -3.121  0.00  0.00     0.082 A 
ATOM      2  C   UNL d   1      13.878  13.431  -2.438  0.00  0.00     0.267 A 
ATOM      3  C   UNL d   1      13.563  12.194  -3.100  0.00  0.00     0.108 A 
ATOM      4  C   UNL d   1      13.342  13.015  -4.521  0.00  0.00     0.113 A 
ATOM      5  C   UNL d   1      13.556  13.435  -3.835  0.00  0.00     0.043 A 
ATOM      6  N   UNL d   1      13.986  13.012  -1.734  0.00  0.00    -0.273 N 
ATOM      7  C   UNL d   1      13.240  12.198  -4.496  0.00  0.00     0.213 A 
ATOM      8  O   UNL d   1      13.351  11.787  -3.783  0.00  0.00    -0.287 OA
ATOM      9  C   UNL d   1      13.672  11.788  -2.395  0.00  0.00     0.043 A 
ATOM     10  C   UNL d   1      13.883  12.191  -1.712  0.00  0.00     0.069 A 
ATOM     11  C   UNL d   1      13.233  13.427  -5.226  0.00  0.00     0.105 C 
ATOM     12  N   UNL d   1      13.124  13.837  -5.930  0.00  0.00    -0.191 NA
ATOM     13  O   UNL d   1      13.981  14.254  -2.460  0.00  0.00    -0.267 OA
ATOM     14  N   UNL d   1      13.028  11.782  -5.179  0.00  0.00    -0.120 N 
ATOM     15  C   UNL d   1      13.994  11.779  -0.995  0.00  0.00     0.019 C 
ENDROOT
BRANCH   5  16
ATOM     16  C   UNL d   1      13.657  14.253  -3.860  0.00  0.00     0.101 A 
ATOM     17  O   UNL d   1      14.288  14.671  -3.550  0.00  0.00    -0.305 OA
ATOM     18  C   UNL d   1      14.165  15.474  -3.699  0.00  0.00     0.123 A 
ATOM     19  C   UNL d   1      13.450  15.546  -4.105  0.00  0.00     0.029 A 
ATOM     20  C   UNL d   1      13.130  14.796  -4.208  0.00  0.00     0.027 A 
ENDBRANCH   5  16
BRANCH   6  21
ATOM     21  C   UNL d   1      14.201  13.428  -1.038  0.00  0.00     0.085 C 
BRANCH  21  22
ATOM     22  C   UNL d   1      14.978  13.393  -0.761  0.00  0.00     0.038 C 
BRANCH  22  23
ATOM     23  C   UNL d   1      15.177  13.760  -0.050  0.00  0.00     0.083 C 
BRANCH  23  24
ATOM     24  N   UNL d   1      15.488  14.526  -0.046  0.00  0.00    -0.285 N 
ATOM     25  C   UNL d   1      15.061  15.227  -0.072  0.00  0.00     0.183 A 
ATOM     26  N   UNL d   1      15.596  15.852  -0.058  0.00  0.00    -0.222 NA
ATOM     27  C   UNL d   1      16.356  15.540  -0.023  0.00  0.00     0.120 A 
ATOM     28  C   UNL d   1      16.293  14.727  -0.016  0.00  0.00     0.102 A 
ENDBRANCH  23  24
ENDBRANCH  22  23
ENDBRANCH  21  22
ENDBRANCH   6  21
TORSDOF 5
ENDMDL
