MODEL 1
REMARK VINA RESULT:      -3.2      0.000      0.000
REMARK  5 active torsions:
REMARK  status: ('A' for Active; 'I' for Inactive)
REMARK    1  A    between atoms: N_2  and  S_1 
REMARK    2  A    between atoms: C_11  and  S_1 
REMARK    3  A    between atoms: C_3  and  N_9 
REMARK    4  A    between atoms: N_9  and  N_16 
REMARK    5  A    between atoms: N_16  and  C_23 
ROOT
ATOM      1  C   UNL d   1      32.844  18.487 -23.263  0.00  0.00     0.104 A 
ATOM      2  C   UNL d   1      32.981  18.478 -22.443  0.00  0.00     0.015 A 
ATOM      3  C   UNL d   1      32.843  19.213 -23.656  0.00  0.00     0.015 A 
ATOM      4  C   UNL d   1      33.108  19.887 -22.428  0.00  0.00     0.103 A 
ATOM      5  C   UNL d   1      32.972  19.901 -23.249  0.00  0.00     0.022 A 
ATOM      6  C   UNL d   1      33.110  19.168 -22.031  0.00  0.00     0.022 A 
ENDROOT
BRANCH   1   7
ATOM      7  S   UNL d   1      32.712  17.792 -23.687  0.00  0.00     0.271 S 
ATOM      8  O   UNL d   1      33.020  17.356 -23.053  0.00  0.00    -0.200 OA
ATOM      9  O   UNL d   1      32.410  18.215 -24.308  0.00  0.00    -0.200 OA
BRANCH   7  10
ATOM     10  N   UNL d   1      32.581  17.086 -24.110  0.00  0.00    -0.231 N 
ATOM     11  C   UNL d   1      31.859  16.681 -24.226  0.00  0.00     0.075 A 
ATOM     12  C   UNL d   1      32.004  16.009 -24.681  0.00  0.00     0.018 A 
ATOM     13  C   UNL d   1      31.094  16.861 -23.962  0.00  0.00     0.018 A 
ATOM     14  C   UNL d   1      31.398  15.498 -24.887  0.00  0.00     0.002 A 
ATOM     15  C   UNL d   1      32.826  15.993 -24.853  0.00  0.00     0.021 A 
ATOM     16  C   UNL d   1      30.630  15.661 -24.633  0.00  0.00     0.000 A 
ATOM     17  C   UNL d   1      30.484  16.346 -24.169  0.00  0.00     0.002 A 
ATOM     18  C   UNL d   1      33.164  16.637 -24.509  0.00  0.00     0.092 A 
ENDBRANCH   7  10
ENDBRANCH   1   7
BRANCH   4  19
ATOM     19  N   UNL d   1      33.241  20.585 -22.002  0.00  0.00    -0.148 NA
BRANCH  19  20
ATOM     20  N   UNL d   1      32.628  21.082 -21.838  0.00  0.00    -0.138 NA
BRANCH  20  21
ATOM     21  C   UNL d   1      32.740  21.739 -21.345  0.00  0.00     0.218 A 
ATOM     22  C   UNL d   1      32.600  21.678 -20.563  0.00  0.00     0.305 A 
ATOM     23  N   UNL d   1      32.713  22.339 -20.062  0.00  0.00    -0.177 NA
ATOM     24  O   UNL d   1      32.341  20.953 -20.250  0.00  0.00    -0.263 OA
ATOM     25  C   UNL d   1      32.961  23.037 -20.356  0.00  0.00     0.226 A 
ATOM     26  N   UNL d   1      33.114  23.132 -21.160  0.00  0.00    -0.177 NA
ATOM     27  S   UNL d   1      33.070  23.702 -19.828  0.00  0.00    -0.037 SA
ATOM     28  C   UNL d   1      33.001  22.468 -21.663  0.00  0.00     0.305 A 
ATOM     29  O   UNL d   1      33.149  22.540 -22.475  0.00  0.00    -0.263 OA
ENDBRANCH  20  21
ENDBRANCH  19  20
ENDBRANCH   4  19
TORSDOF 5
ENDMDL
