MODEL 1
REMARK VINA RESULT:      55.2      0.000      0.000
REMARK  3 active torsions:
REMARK  status: ('A' for Active; 'I' for Inactive)
REMARK    1  A    between atoms: N_2  and  C_1 
REMARK    2  A    between atoms: N_3  and  C_1 
REMARK       I    between atoms: C_4  and  N_3 
REMARK    3  A    between atoms: C_9  and  C_4 
ROOT
ATOM      1  C   UNL d   1     -50.229  26.955  33.611  0.00  0.00     0.209 C 
ATOM      2  S   UNL d   1     -50.829  27.418  33.307  0.00  0.00    -0.038 SA
ENDROOT
BRANCH   1   3
ATOM      3  N   UNL d   1     -50.251  26.143  33.510  0.00  0.00    -0.282 N 
ATOM      4  C   UNL d   1     -50.978  25.753  33.459  0.00  0.00     0.066 A 
ATOM      5  C   UNL d   1     -50.992  24.935  33.358  0.00  0.00     0.016 A 
ATOM      6  C   UNL d   1     -51.685  26.179  33.510  0.00  0.00     0.018 A 
ATOM      7  C   UNL d   1     -51.709  24.539  33.306  0.00  0.00     0.001 A 
ATOM      8  C   UNL d   1     -50.276  24.503  33.306  0.00  0.00     0.003 A 
ATOM      9  C   UNL d   1     -52.407  24.960  33.357  0.00  0.00     0.000 A 
ATOM     10  C   UNL d   1     -52.395  25.782  33.459  0.00  0.00     0.002 A 
ATOM     11  C   UNL d   1     -49.557  24.894  33.357  0.00  0.00     0.019 A 
ATOM     12  C   UNL d   1     -49.536  25.711  33.459  0.00  0.00     0.082 A 
ENDBRANCH   1   3
BRANCH   1  13
ATOM     13  N   UNL d   1     -49.606  27.313  34.017  0.00  0.00    -0.180 NA
ATOM     14  C   UNL d   1     -49.566  28.142  34.065  0.00  0.00     0.281 C 
ATOM     15  O   UNL d   1     -50.137  28.594  33.713  0.00  0.00    -0.265 OA
BRANCH  14  16
ATOM     16  C   UNL d   1     -48.937  28.485  34.475  0.00  0.00     0.058 A 
ATOM     17  C   UNL d   1     -48.765  29.292  34.416  0.00  0.00     0.005 A 
ATOM     18  C   UNL d   1     -48.140  29.629  34.825  0.00  0.00     0.000 A 
ATOM     19  C   UNL d   1     -47.663  29.145  35.314  0.00  0.00     0.000 A 
ATOM     20  C   UNL d   1     -47.827  28.348  35.377  0.00  0.00     0.000 A 
ATOM     21  C   UNL d   1     -48.468  27.994  34.960  0.00  0.00     0.005 A 
ENDBRANCH  14  16
ENDBRANCH   1  13
TORSDOF 3
ENDMDL
