MODEL 1
REMARK VINA RESULT:      53.1      0.000      0.000
REMARK  7 active torsions:
REMARK  status: ('A' for Active; 'I' for Inactive)
REMARK    1  A    between atoms: C_6  and  C_1 
REMARK    2  A    between atoms: C_14  and  C_5 
REMARK    3  A    between atoms: O_19  and  C_7 
REMARK    4  A    between atoms: O_20  and  C_8 
REMARK    5  A    between atoms: O_21  and  C_9 
REMARK    6  A    between atoms: O_17  and  C_14 
REMARK    7  A    between atoms: C_18  and  O_17 
ROOT
ATOM      1  C   UNL d   1      14.014  14.603  -3.344  0.00  0.00     0.205 A 
ATOM      2  N   UNL d   1      13.353  14.752  -3.822  0.00  0.00    -0.121 NA
ATOM      3  O   UNL d   1      14.515  15.261  -3.375  0.00  0.00    -0.267 OA
ATOM      4  N   UNL d   1      13.443  15.507  -4.153  0.00  0.00    -0.119 NA
ATOM      5  C   UNL d   1      14.162  15.820  -3.876  0.00  0.00     0.230 A 
ENDROOT
BRANCH   1   6
ATOM      6  C   UNL d   1      14.141  13.907  -2.910  0.00  0.00     0.047 A 
ATOM      7  C   UNL d   1      14.577  13.922  -2.210  0.00  0.00     0.030 A 
ATOM      8  C   UNL d   1      14.697  13.234  -1.790  0.00  0.00     0.118 A 
ATOM      9  C   UNL d   1      14.386  12.514  -2.059  0.00  0.00     0.138 A 
ATOM     10  C   UNL d   1      13.953  12.502  -2.757  0.00  0.00     0.118 A 
ATOM     11  C   UNL d   1      13.825  13.199  -3.191  0.00  0.00     0.030 A 
BRANCH   8  12
ATOM     12  O   UNL d   1      15.136  13.258  -1.087  0.00  0.00    -0.326 OA
ATOM     13  C   UNL d   1      14.912  13.760  -0.468  0.00  0.00     0.181 C 
ENDBRANCH   8  12
BRANCH   9  14
ATOM     14  O   UNL d   1      14.516  11.824  -1.624  0.00  0.00    -0.324 OA
ATOM     15  C   UNL d   1      14.504  11.841  -0.796  0.00  0.00     0.182 C 
ENDBRANCH   9  14
BRANCH  10  16
ATOM     16  O   UNL d   1      13.641  11.783  -3.028  0.00  0.00    -0.326 OA
ATOM     17  C   UNL d   1      13.012  11.780  -3.554  0.00  0.00     0.181 C 
ENDBRANCH  10  16
ENDBRANCH   1   6
BRANCH   5  18
ATOM     18  C   UNL d   1      14.478  16.563  -4.064  0.00  0.00     0.169 C 
BRANCH  18  19
ATOM     19  O   UNL d   1      14.638  16.760  -4.848  0.00  0.00    -0.301 OA
BRANCH  19  20
ATOM     20  C   UNL d   1      14.660  17.555  -5.074  0.00  0.00     0.100 A 
ATOM     21  C   UNL d   1      14.034  17.878  -5.505  0.00  0.00     0.025 A 
ATOM     22  C   UNL d   1      14.055  18.666  -5.729  0.00  0.00     0.002 A 
ATOM     23  C   UNL d   1      13.430  18.998  -6.162  0.00  0.00     0.000 A 
ATOM     24  C   UNL d   1      14.698  19.138  -5.527  0.00  0.00     0.000 A 
ATOM     25  C   UNL d   1      13.457  19.791  -6.386  0.00  0.00     0.000 A 
ATOM     26  C   UNL d   1      14.104  20.258  -6.179  0.00  0.00     0.000 A 
ATOM     27  C   UNL d   1      14.730  19.930  -5.747  0.00  0.00     0.000 A 
ATOM     28  C   UNL d   1      15.325  18.818  -5.096  0.00  0.00     0.002 A 
ATOM     29  C   UNL d   1      15.305  18.015  -4.866  0.00  0.00     0.025 A 
ENDBRANCH  19  20
ENDBRANCH  18  19
ENDBRANCH   5  18
TORSDOF 7
ENDMDL
MODEL 2
REMARK VINA RESULT:      53.7      2.110      2.896
REMARK  7 active torsions:
REMARK  status: ('A' for Active; 'I' for Inactive)
REMARK    1  A    between atoms: C_6  and  C_1 
REMARK    2  A    between atoms: C_14  and  C_5 
REMARK    3  A    between atoms: O_19  and  C_7 
REMARK    4  A    between atoms: O_20  and  C_8 
REMARK    5  A    between atoms: O_21  and  C_9 
REMARK    6  A    between atoms: O_17  and  C_14 
REMARK    7  A    between atoms: C_18  and  O_17 
ROOT
ATOM      1  C   UNL d   1      13.643  12.376  -3.082  0.00  0.00     0.205 A 
ATOM      2  N   UNL d   1      13.298  11.788  -3.553  0.00  0.00    -0.121 NA
ATOM      3  O   UNL d   1      13.560  13.104  -3.468  0.00  0.00    -0.267 OA
ATOM      4  N   UNL d   1      12.998  12.151  -4.237  0.00  0.00    -0.119 NA
ATOM      5  C   UNL d   1      13.161  12.964  -4.182  0.00  0.00     0.230 A 
ENDROOT
BRANCH   1   6
ATOM      6  C   UNL d   1      14.007  12.245  -2.348  0.00  0.00     0.047 A 
ATOM      7  C   UNL d   1      13.553  12.115  -1.671  0.00  0.00     0.030 A 
ATOM      8  C   UNL d   1      13.919  11.988  -0.954  0.00  0.00     0.118 A 
ATOM      9  C   UNL d   1      14.746  11.988  -0.895  0.00  0.00     0.138 A 
ATOM     10  C   UNL d   1      15.195  12.118  -1.571  0.00  0.00     0.118 A 
ATOM     11  C   UNL d   1      14.830  12.248  -2.306  0.00  0.00     0.030 A 
BRANCH   8  12
ATOM     12  O   UNL d   1      13.457  11.858  -0.278  0.00  0.00    -0.326 OA
ATOM     13  C   UNL d   1      12.775  12.307  -0.143  0.00  0.00     0.181 C 
ENDBRANCH   8  12
BRANCH   9  14
ATOM     14  O   UNL d   1      15.105  11.858  -0.162  0.00  0.00    -0.324 OA
ATOM     15  C   UNL d   1      15.897  12.066  -0.041  0.00  0.00     0.182 C 
ENDBRANCH   9  14
BRANCH  10  16
ATOM     16  O   UNL d   1      16.023  12.118  -1.513  0.00  0.00    -0.326 OA
ATOM     17  C   UNL d   1      16.432  12.828  -1.473  0.00  0.00     0.181 C 
ENDBRANCH  10  16
ENDBRANCH   1   6
BRANCH   5  18
ATOM     18  C   UNL d   1      12.963  13.543  -4.741  0.00  0.00     0.169 C 
BRANCH  18  19
ATOM     19  O   UNL d   1      12.950  14.339  -4.528  0.00  0.00    -0.301 OA
BRANCH  19  20
ATOM     20  C   UNL d   1      13.569  14.835  -4.760  0.00  0.00     0.100 A 
ATOM     21  C   UNL d   1      13.844  15.420  -4.246  0.00  0.00     0.025 A 
ATOM     22  C   UNL d   1      14.457  15.912  -4.476  0.00  0.00     0.002 A 
ATOM     23  C   UNL d   1      14.738  16.502  -3.965  0.00  0.00     0.000 A 
ATOM     24  C   UNL d   1      14.803  15.825  -5.217  0.00  0.00     0.000 A 
ATOM     25  C   UNL d   1      15.357  16.994  -4.201  0.00  0.00     0.000 A 
ATOM     26  C   UNL d   1      15.698  16.901  -4.946  0.00  0.00     0.000 A 
ATOM     27  C   UNL d   1      15.420  16.313  -5.458  0.00  0.00     0.000 A 
ATOM     28  C   UNL d   1      14.531  15.242  -5.733  0.00  0.00     0.002 A 
ATOM     29  C   UNL d   1      13.905  14.739  -5.501  0.00  0.00     0.025 A 
ENDBRANCH  19  20
ENDBRANCH  18  19
ENDBRANCH   5  18
TORSDOF 7
ENDMDL
