MODEL 1
REMARK VINA RESULT:      85.6      0.000      0.000
REMARK  6 active torsions:
REMARK  status: ('A' for Active; 'I' for Inactive)
REMARK    1  A    between atoms: C_12  and  N_3 
REMARK    2  A    between atoms: C_8  and  C_4 
REMARK    3  A    between atoms: O_23  and  C_11 
REMARK    4  A    between atoms: C_19  and  C_12 
REMARK    5  A    between atoms: N_13  and  C_19 
REMARK    6  A    between atoms: O_26  and  C_17 
ROOT
ATOM      1  C   UNL d   1      58.910  49.700  52.788  0.00  0.00     0.083 A 
ATOM      2  C   UNL d   1      59.714  49.702  52.973  0.00  0.00     0.161 A 
ATOM      3  N   UNL d   1      59.583  49.699  51.647  0.00  0.00    -0.270 N 
ATOM      4  C   UNL d   1      58.836  49.698  51.976  0.00  0.00     0.074 A 
ATOM      5  C   UNL d   1      60.134  49.702  52.261  0.00  0.00     0.288 A 
ATOM      6  C   UNL d   1      58.348  49.700  53.390  0.00  0.00     0.201 A 
ATOM      7  O   UNL d   1      59.956  49.705  53.759  0.00  0.00    -0.302 OA
ATOM      8  C   UNL d   1      58.591  49.703  54.177  0.00  0.00     0.064 A 
ATOM      9  C   UNL d   1      59.395  49.705  54.362  0.00  0.00     0.103 A 
ATOM     10  O   UNL d   1      60.955  49.704  52.185  0.00  0.00    -0.264 OA
ATOM     11  O   UNL d   1      57.544  49.698  53.205  0.00  0.00    -0.286 OA
ATOM     12  C   UNL d   1      58.031  49.703  54.771  0.00  0.00     0.035 A 
ATOM     13  C   UNL d   1      59.637  49.708  55.148  0.00  0.00     0.027 A 
ATOM     14  C   UNL d   1      58.272  49.705  55.566  0.00  0.00     0.140 A 
ATOM     15  C   UNL d   1      59.078  49.708  55.742  0.00  0.00     0.032 A 
ATOM     16  F   UNL d   1      57.710  49.705  56.167  0.00  0.00    -0.204 F 
ENDROOT
BRANCH   4  17
ATOM     17  C   UNL d   1      58.126  49.695  51.548  0.00  0.00     0.041 A 
ATOM     18  C   UNL d   1      58.136  49.694  50.724  0.00  0.00     0.118 A 
ATOM     19  C   UNL d   1      57.429  49.691  50.305  0.00  0.00     0.116 A 
ATOM     20  C   UNL d   1      56.707  49.689  50.709  0.00  0.00     0.026 A 
ATOM     21  C   UNL d   1      56.697  49.690  51.536  0.00  0.00     0.002 A 
ATOM     22  C   UNL d   1      57.409  49.693  51.956  0.00  0.00     0.004 A 
BRANCH  18  23
ATOM     23  O   UNL d   1      58.856  49.696  50.326  0.00  0.00    -0.326 OA
ATOM     24  C   UNL d   1      58.844  49.437  49.538  0.00  0.00     0.181 C 
ENDBRANCH  18  23
BRANCH  19  25
ATOM     25  O   UNL d   1      57.439  49.691  49.479  0.00  0.00    -0.326 OA
ATOM     26  C   UNL d   1      56.735  49.637  49.057  0.00  0.00     0.181 C 
ENDBRANCH  19  25
ENDBRANCH   4  17
BRANCH   3  27
ATOM     27  C   UNL d   1      59.768  49.697  50.843  0.00  0.00     0.102 C 
BRANCH  27  28
ATOM     28  C   UNL d   1      60.550  49.607  50.592  0.00  0.00     0.100 C 
BRANCH  28  29
ATOM     29  N   UNL d   1      60.902  48.860  50.588  0.00  0.00    -0.298 N 
ATOM     30  C   UNL d   1      60.773  48.351  49.953  0.00  0.00     0.107 A 
ATOM     31  C   UNL d   1      61.119  47.611  49.945  0.00  0.00     0.142 A 
ATOM     32  O   UNL d   1      61.601  47.375  50.579  0.00  0.00    -0.300 OA
ATOM     33  C   UNL d   1      61.730  47.883  51.214  0.00  0.00     0.142 A 
ATOM     34  C   UNL d   1      61.380  48.630  51.222  0.00  0.00     0.107 A 
ENDBRANCH  28  29
ENDBRANCH  27  28
ENDBRANCH   3  27
TORSDOF 6
ENDMDL
