MODEL 1
REMARK VINA RESULT:      -4.5      0.000      0.000
REMARK  11 active torsions:
REMARK  status: ('A' for Active; 'I' for Inactive)
REMARK    1  A    between atoms: C_14  and  C_3 
REMARK    2  A    between atoms: N_15  and  C_6 
REMARK    3  A    between atoms: N_12  and  C_19 
REMARK    4  A    between atoms: N_13  and  C_20 
REMARK    5  A    between atoms: N_16  and  C_14 
REMARK    6  A    between atoms: C_28  and  N_15 
REMARK    7  A    between atoms: C_23  and  N_16 
REMARK    8  A    between atoms: C_19  and  C_21 
REMARK    9  A    between atoms: C_20  and  C_22 
REMARK   10  A    between atoms: C_21  and  C_23 
REMARK   11  A    between atoms: C_22  and  C_28 
ROOT
ATOM      1  N   UNL d   1     -44.097  11.345  22.745  0.00  0.00    -0.258 N 
ATOM      2  C   UNL d   1     -43.738  11.921  22.260  0.00  0.00     0.270 A 
ATOM      3  C   UNL d   1     -44.148  12.586  22.037  0.00  0.00     0.111 A 
ATOM      4  N   UNL d   1     -45.281  12.143  22.761  0.00  0.00    -0.209 NA
ATOM      5  C   UNL d   1     -44.875  11.457  22.997  0.00  0.00     0.152 A 
ATOM      6  C   UNL d   1     -44.925  12.698  22.289  0.00  0.00     0.170 A 
ATOM      7  C   UNL d   1     -43.687  10.685  22.964  0.00  0.00     0.084 A 
ATOM      8  C   UNL d   1     -45.231  10.907  23.464  0.00  0.00     0.038 A 
ATOM      9  C   UNL d   1     -44.047  10.113  23.446  0.00  0.00     0.018 A 
ATOM     10  C   UNL d   1     -44.825  10.225  23.698  0.00  0.00     0.005 A 
ATOM     11  O   UNL d   1     -42.949  11.807  22.004  0.00  0.00    -0.266 OA
ATOM     12  C   UNL d   1     -43.637   9.437  23.675  0.00  0.00     0.002 C 
ENDROOT
BRANCH   3  13
ATOM     13  C   UNL d   1     -43.788  13.152  21.559  0.00  0.00     0.107 C 
BRANCH  13  14
ATOM     14  N   UNL d   1     -42.960  13.269  21.605  0.00  0.00    -0.242 NA
BRANCH  14  15
ATOM     15  C   UNL d   1     -42.612  13.898  21.201  0.00  0.00     0.101 C 
BRANCH  15  16
ATOM     16  C   UNL d   1     -41.817  13.867  21.007  0.00  0.00     0.040 C 
BRANCH  16  17
ATOM     17  C   UNL d   1     -41.388  14.576  20.852  0.00  0.00     0.082 C 
BRANCH  17  18
ATOM     18  N   UNL d   1     -40.620  14.543  20.569  0.00  0.00    -0.299 N 
ATOM     19  C   UNL d   1     -40.474  14.614  19.771  0.00  0.00     0.107 A 
ATOM     20  C   UNL d   1     -39.690  14.579  19.481  0.00  0.00     0.142 A 
ATOM     21  O   UNL d   1     -39.068  14.475  19.995  0.00  0.00    -0.300 OA
ATOM     22  C   UNL d   1     -39.216  14.401  20.819  0.00  0.00     0.142 A 
ATOM     23  C   UNL d   1     -39.990  14.435  21.105  0.00  0.00     0.107 A 
ENDBRANCH  17  18
ENDBRANCH  16  17
ENDBRANCH  15  16
ENDBRANCH  14  15
ENDBRANCH  13  14
ENDBRANCH   3  13
BRANCH   6  24
ATOM     24  N   UNL d   1     -45.331  13.374  22.059  0.00  0.00    -0.225 NA
BRANCH  24  25
ATOM     25  C   UNL d   1     -45.886  13.725  22.588  0.00  0.00     0.102 C 
BRANCH  25  26
ATOM     26  C   UNL d   1     -46.618  13.966  22.305  0.00  0.00     0.040 C 
BRANCH  26  27
ATOM     27  C   UNL d   1     -47.159  14.350  22.826  0.00  0.00     0.082 C 
BRANCH  27  28
ATOM     28  N   UNL d   1     -47.947  14.437  22.586  0.00  0.00    -0.299 N 
ATOM     29  C   UNL d   1     -48.297  15.189  22.635  0.00  0.00     0.107 A 
ATOM     30  C   UNL d   1     -49.075  15.308  22.406  0.00  0.00     0.142 A 
ATOM     31  O   UNL d   1     -49.508  14.659  22.121  0.00  0.00    -0.300 OA
ATOM     32  C   UNL d   1     -49.160  13.912  22.072  0.00  0.00     0.142 A 
ATOM     33  C   UNL d   1     -48.379  13.815  22.307  0.00  0.00     0.107 A 
ENDBRANCH  27  28
ENDBRANCH  26  27
ENDBRANCH  25  26
ENDBRANCH  24  25
ENDBRANCH   6  24
TORSDOF 11
ENDMDL
MODEL 2
REMARK VINA RESULT:      -3.5      2.526      5.657
REMARK  11 active torsions:
REMARK  status: ('A' for Active; 'I' for Inactive)
REMARK    1  A    between atoms: C_14  and  C_3 
REMARK    2  A    between atoms: N_15  and  C_6 
REMARK    3  A    between atoms: N_12  and  C_19 
REMARK    4  A    between atoms: N_13  and  C_20 
REMARK    5  A    between atoms: N_16  and  C_14 
REMARK    6  A    between atoms: C_28  and  N_15 
REMARK    7  A    between atoms: C_23  and  N_16 
REMARK    8  A    between atoms: C_19  and  C_21 
REMARK    9  A    between atoms: C_20  and  C_22 
REMARK   10  A    between atoms: C_21  and  C_23 
REMARK   11  A    between atoms: C_22  and  C_28 
ROOT
ATOM      1  N   UNL d   1     -44.735  12.574  22.483  0.00  0.00    -0.258 N 
ATOM      2  C   UNL d   1     -45.310  12.195  22.953  0.00  0.00     0.270 A 
ATOM      3  C   UNL d   1     -45.987  12.588  23.175  0.00  0.00     0.111 A 
ATOM      4  N   UNL d   1     -45.555  13.743  22.478  0.00  0.00    -0.209 NA
ATOM      5  C   UNL d   1     -44.858  13.354  22.244  0.00  0.00     0.152 A 
ATOM      6  C   UNL d   1     -46.110  13.368  22.935  0.00  0.00     0.170 A 
ATOM      7  C   UNL d   1     -44.065  12.180  22.265  0.00  0.00     0.084 A 
ATOM      8  C   UNL d   1     -44.310  13.729  21.790  0.00  0.00     0.038 A 
ATOM      9  C   UNL d   1     -43.494  12.560  21.797  0.00  0.00     0.018 A 
ATOM     10  C   UNL d   1     -43.617  13.339  21.558  0.00  0.00     0.005 A 
ATOM     11  O   UNL d   1     -45.185  11.403  23.196  0.00  0.00    -0.266 OA
ATOM     12  C   UNL d   1     -42.807  12.166  21.570  0.00  0.00     0.002 C 
ENDROOT
BRANCH   3  13
ATOM     13  C   UNL d   1     -46.551  12.209  23.639  0.00  0.00     0.107 C 
BRANCH  13  14
ATOM     14  N   UNL d   1     -47.222  11.862  23.278  0.00  0.00    -0.242 NA
BRANCH  14  15
ATOM     15  C   UNL d   1     -47.663  11.299  23.687  0.00  0.00     0.101 C 
BRANCH  15  16
ATOM     16  C   UNL d   1     -48.438  11.150  23.467  0.00  0.00     0.040 C 
BRANCH  16  17
ATOM     17  C   UNL d   1     -49.056  11.674  23.697  0.00  0.00     0.082 C 
BRANCH  17  18
ATOM     18  N   UNL d   1     -49.695  11.805  23.202  0.00  0.00    -0.299 N 
ATOM     19  C   UNL d   1     -50.411  12.040  23.510  0.00  0.00     0.107 A 
ATOM     20  C   UNL d   1     -51.064  12.174  23.004  0.00  0.00     0.142 A 
ATOM     21  O   UNL d   1     -50.987  12.070  22.201  0.00  0.00    -0.300 OA
ATOM     22  C   UNL d   1     -50.249  11.828  21.881  0.00  0.00     0.142 A 
ATOM     23  C   UNL d   1     -49.606  11.696  22.379  0.00  0.00     0.107 A 
ENDBRANCH  17  18
ENDBRANCH  16  17
ENDBRANCH  15  16
ENDBRANCH  14  15
ENDBRANCH  13  14
ENDBRANCH   3  13
BRANCH   6  24
ATOM     24  N   UNL d   1     -46.796  13.757  23.164  0.00  0.00    -0.225 NA
BRANCH  24  25
ATOM     25  C   UNL d   1     -46.968  14.518  22.844  0.00  0.00     0.102 C 
BRANCH  25  26
ATOM     26  C   UNL d   1     -47.691  14.871  23.008  0.00  0.00     0.040 C 
BRANCH  26  27
ATOM     27  C   UNL d   1     -48.137  15.213  22.380  0.00  0.00     0.082 C 
BRANCH  27  28
ATOM     28  N   UNL d   1     -48.944  15.358  22.499  0.00  0.00    -0.299 N 
ATOM     29  C   UNL d   1     -49.204  15.560  23.262  0.00  0.00     0.107 A 
ATOM     30  C   UNL d   1     -49.996  15.709  23.413  0.00  0.00     0.142 A 
ATOM     31  O   UNL d   1     -50.535  15.654  22.784  0.00  0.00    -0.300 OA
ATOM     32  C   UNL d   1     -50.278  15.453  22.027  0.00  0.00     0.142 A 
ATOM     33  C   UNL d   1     -49.480  15.308  21.898  0.00  0.00     0.107 A 
ENDBRANCH  27  28
ENDBRANCH  26  27
ENDBRANCH  25  26
ENDBRANCH  24  25
ENDBRANCH   6  24
TORSDOF 11
ENDMDL
