MODEL 1
REMARK VINA RESULT:      -5.0      0.000      0.000
REMARK  5 active torsions:
REMARK  status: ('A' for Active; 'I' for Inactive)
REMARK    1  A    between atoms: C_2  and  C_1 
REMARK       I    between atoms: N_3  and  C_1 
REMARK    2  A    between atoms: C_9  and  N_3 
REMARK    3  A    between atoms: N_8  and  C_6 
REMARK    4  A    between atoms: C_18  and  N_8 
REMARK    5  A    between atoms: C_19  and  N_8 
ROOT
ATOM      1  C   UNL d   1     -42.044-123.091 -49.380  0.00  0.00     0.064 A 
ATOM      2  C   UNL d   1     -41.712-122.496 -50.881  0.00  0.00     0.135 A 
ATOM      3  C   UNL d   1     -42.599-122.613 -49.768  0.00  0.00     0.020 A 
ATOM      4  C   UNL d   1     -41.334-123.269 -49.734  0.00  0.00     0.020 A 
ATOM      5  C   UNL d   1     -42.422-122.317 -50.526  0.00  0.00     0.034 A 
ATOM      6  C   UNL d   1     -41.162-122.974 -50.486  0.00  0.00     0.034 A 
ENDROOT
BRANCH   2   7
ATOM      7  N   UNL d   1     -41.551-122.200 -51.624  0.00  0.00    -0.365 NA
ATOM      8  C   UNL d   1     -41.386-121.890 -52.359  0.00  0.00     0.330 C 
ATOM      9  O   UNL d   1     -41.130-121.118 -52.447  0.00  0.00    -0.251 OA
BRANCH   8  10
ATOM     10  C   UNL d   1     -41.480-122.366 -53.034  0.00  0.00     0.090 A 
ATOM     11  C   UNL d   1     -41.927-122.103 -53.679  0.00  0.00     0.016 A 
ATOM     12  C   UNL d   1     -42.020-122.564 -54.339  0.00  0.00     0.054 A 
ATOM     13 BR   UNL d   1     -42.463-122.299 -54.973  0.00  0.00    -0.048 Br
ATOM     14  C   UNL d   1     -41.672-123.295 -54.372  0.00  0.00     0.106 A 
ATOM     15  N   UNL d   1     -41.226-123.576 -53.746  0.00  0.00    -0.242 NA
ATOM     16  C   UNL d   1     -41.132-123.096 -53.067  0.00  0.00     0.105 A 
ENDBRANCH   8  10
ENDBRANCH   2   7
BRANCH   1  17
ATOM     17  N   UNL d   1     -42.223-123.382 -48.628  0.00  0.00    -0.304 N 
BRANCH  17  18
ATOM     18  C   UNL d   1     -41.721-123.248 -48.001  0.00  0.00     0.080 C 
ATOM     19  C   UNL d   1     -41.662-123.798 -47.395  0.00  0.00     0.021 C 
ENDBRANCH  17  18
BRANCH  17  20
ATOM     20  C   UNL d   1     -42.925-123.816 -48.518  0.00  0.00     0.080 C 
ATOM     21  C   UNL d   1     -43.318-123.769 -47.793  0.00  0.00     0.021 C 
ENDBRANCH  17  20
ENDBRANCH   1  17
TORSDOF 5
ENDMDL
MODEL 2
REMARK VINA RESULT:      -3.4      1.214      1.632
REMARK  5 active torsions:
REMARK  status: ('A' for Active; 'I' for Inactive)
REMARK    1  A    between atoms: C_2  and  C_1 
REMARK       I    between atoms: N_3  and  C_1 
REMARK    2  A    between atoms: C_9  and  N_3 
REMARK    3  A    between atoms: N_8  and  C_6 
REMARK    4  A    between atoms: C_18  and  N_8 
REMARK    5  A    between atoms: C_19  and  N_8 
ROOT
ATOM      1  C   UNL d   1     -41.914-123.169 -50.229  0.00  0.00     0.064 A 
ATOM      2  C   UNL d   1     -41.699-123.164 -51.863  0.00  0.00     0.135 A 
ATOM      3  C   UNL d   1     -42.164-123.817 -50.682  0.00  0.00     0.020 A 
ATOM      4  C   UNL d   1     -41.562-122.528 -50.585  0.00  0.00     0.020 A 
ATOM      5  C   UNL d   1     -42.051-123.805 -51.507  0.00  0.00     0.034 A 
ATOM      6  C   UNL d   1     -41.452-122.521 -51.403  0.00  0.00     0.034 A 
ENDROOT
BRANCH   2   7
ATOM      7  N   UNL d   1     -41.594-123.165 -52.672  0.00  0.00    -0.365 NA
ATOM      8  C   UNL d   1     -41.482-123.180 -53.479  0.00  0.00     0.330 C 
ATOM      9  O   UNL d   1     -41.123-123.817 -53.846  0.00  0.00    -0.251 OA
BRANCH   8  10
ATOM     10  C   UNL d   1     -41.737-122.537 -53.940  0.00  0.00     0.090 A 
ATOM     11  C   UNL d   1     -42.039-122.655 -54.701  0.00  0.00     0.016 A 
ATOM     12  C   UNL d   1     -42.288-122.031 -55.153  0.00  0.00     0.054 A 
ATOM     13 BR   UNL d   1     -42.585-122.153 -55.905  0.00  0.00    -0.048 Br
ATOM     14  C   UNL d   1     -42.243-121.277 -54.859  0.00  0.00     0.106 A 
ATOM     15  N   UNL d   1     -41.949-121.136 -54.108  0.00  0.00    -0.242 NA
ATOM     16  C   UNL d   1     -41.692-121.784 -53.645  0.00  0.00     0.105 A 
ENDBRANCH   8  10
ENDBRANCH   2   7
BRANCH   1  17
ATOM     17  N   UNL d   1     -42.028-123.185 -49.411  0.00  0.00    -0.304 N 
BRANCH  17  18
ATOM     18  C   UNL d   1     -42.774-123.095 -49.095  0.00  0.00     0.080 C 
ATOM     19  C   UNL d   1     -42.964-123.449 -48.379  0.00  0.00     0.021 C 
ENDBRANCH  17  18
BRANCH  17  20
ATOM     20  C   UNL d   1     -41.371-123.294 -48.912  0.00  0.00     0.080 C 
ATOM     21  C   UNL d   1     -41.335-122.882 -48.197  0.00  0.00     0.021 C 
ENDBRANCH  17  20
ENDBRANCH   1  17
TORSDOF 5
ENDMDL
MODEL 3
REMARK VINA RESULT:      -2.9      1.670      4.877
REMARK  5 active torsions:
REMARK  status: ('A' for Active; 'I' for Inactive)
REMARK    1  A    between atoms: C_2  and  C_1 
REMARK       I    between atoms: N_3  and  C_1 
REMARK    2  A    between atoms: C_9  and  N_3 
REMARK    3  A    between atoms: N_8  and  C_6 
REMARK    4  A    between atoms: C_18  and  N_8 
REMARK    5  A    between atoms: C_19  and  N_8 
ROOT
ATOM      1  C   UNL d   1     -41.843-122.299 -54.083  0.00  0.00     0.064 A 
ATOM      2  C   UNL d   1     -41.648-122.147 -52.453  0.00  0.00     0.135 A 
ATOM      3  C   UNL d   1     -41.246-122.725 -53.695  0.00  0.00     0.020 A 
ATOM      4  C   UNL d   1     -42.335-121.804 -53.664  0.00  0.00     0.020 A 
ATOM      5  C   UNL d   1     -41.156-122.641 -52.872  0.00  0.00     0.034 A 
ATOM      6  C   UNL d   1     -42.242-121.725 -52.848  0.00  0.00     0.034 A 
ENDROOT
BRANCH   2   7
ATOM      7  N   UNL d   1     -41.549-122.074 -51.647  0.00  0.00    -0.365 NA
ATOM      8  C   UNL d   1     -41.444-121.987 -50.844  0.00  0.00     0.330 C 
ATOM      9  O   UNL d   1     -41.124-121.302 -50.529  0.00  0.00    -0.251 OA
BRANCH   8  10
ATOM     10  C   UNL d   1     -41.664-122.604 -50.332  0.00  0.00     0.090 A 
ATOM     11  C   UNL d   1     -42.426-122.637 -50.011  0.00  0.00     0.016 A 
ATOM     12  C   UNL d   1     -42.644-123.237 -49.513  0.00  0.00     0.054 A 
ATOM     13 BR   UNL d   1     -43.398-123.265 -49.198  0.00  0.00    -0.048 Br
ATOM     14  C   UNL d   1     -42.110-123.816 -49.322  0.00  0.00     0.106 A 
ATOM     15  N   UNL d   1     -41.350-123.804 -49.628  0.00  0.00    -0.242 NA
ATOM     16  C   UNL d   1     -41.130-123.183 -50.142  0.00  0.00     0.105 A 
ENDBRANCH   8  10
ENDBRANCH   2   7
BRANCH   1  17
ATOM     17  N   UNL d   1     -41.929-122.385 -54.900  0.00  0.00    -0.304 N 
BRANCH  17  18
ATOM     18  C   UNL d   1     -41.705-123.075 -55.271  0.00  0.00     0.080 C 
ATOM     19  C   UNL d   1     -42.255-123.670 -55.402  0.00  0.00     0.021 C 
ENDBRANCH  17  18
BRANCH  17  20
ATOM     20  C   UNL d   1     -42.249-121.756 -55.342  0.00  0.00     0.080 C 
ATOM     21  C   UNL d   1     -41.921-121.573 -56.077  0.00  0.00     0.021 C 
ENDBRANCH  17  20
ENDBRANCH   1  17
TORSDOF 5
ENDMDL
MODEL 4
REMARK VINA RESULT:      -2.5      1.962      4.864
REMARK  5 active torsions:
REMARK  status: ('A' for Active; 'I' for Inactive)
REMARK    1  A    between atoms: C_2  and  C_1 
REMARK       I    between atoms: N_3  and  C_1 
REMARK    2  A    between atoms: C_9  and  N_3 
REMARK    3  A    between atoms: N_8  and  C_6 
REMARK    4  A    between atoms: C_18  and  N_8 
REMARK    5  A    between atoms: C_19  and  N_8 
ROOT
ATOM      1  C   UNL d   1     -41.504-122.485 -53.087  0.00  0.00     0.064 A 
ATOM      2  C   UNL d   1     -41.554-122.416 -51.441  0.00  0.00     0.135 A 
ATOM      3  C   UNL d   1     -41.915-121.871 -52.710  0.00  0.00     0.020 A 
ATOM      4  C   UNL d   1     -41.124-123.056 -52.650  0.00  0.00     0.020 A 
ATOM      5  C   UNL d   1     -41.934-121.844 -51.878  0.00  0.00     0.034 A 
ATOM      6  C   UNL d   1     -41.146-123.026 -51.825  0.00  0.00     0.034 A 
ENDROOT
BRANCH   2   7
ATOM      7  N   UNL d   1     -41.580-122.378 -50.627  0.00  0.00    -0.365 NA
ATOM      8  C   UNL d   1     -41.596-122.330 -49.814  0.00  0.00     0.330 C 
ATOM      9  O   UNL d   1     -41.123-121.796 -49.411  0.00  0.00    -0.251 OA
BRANCH   8  10
ATOM     10  C   UNL d   1     -42.100-122.830 -49.383  0.00  0.00     0.090 A 
ATOM     11  C   UNL d   1     -41.911-123.059 -48.610  0.00  0.00     0.016 A 
ATOM     12  C   UNL d   1     -42.401-123.547 -48.187  0.00  0.00     0.054 A 
ATOM     13 BR   UNL d   1     -42.210-123.770 -47.425  0.00  0.00    -0.048 Br
ATOM     14  C   UNL d   1     -43.087-123.817 -48.522  0.00  0.00     0.106 A 
ATOM     15  N   UNL d   1     -43.295-123.604 -49.285  0.00  0.00    -0.242 NA
ATOM     16  C   UNL d   1     -42.786-123.100 -49.718  0.00  0.00     0.105 A 
ENDBRANCH   8  10
ENDBRANCH   2   7
BRANCH   1  17
ATOM     17  N   UNL d   1     -41.488-122.508 -53.913  0.00  0.00    -0.304 N 
BRANCH  17  18
ATOM     18  C   UNL d   1     -41.718-121.859 -54.350  0.00  0.00     0.080 C 
ATOM     19  C   UNL d   1     -41.993-121.957 -55.117  0.00  0.00     0.021 C 
ENDBRANCH  17  18
BRANCH  17  20
ATOM     20  C   UNL d   1     -41.233-123.203 -54.294  0.00  0.00     0.080 C 
ATOM     21  C   UNL d   1     -41.338-123.275 -55.110  0.00  0.00     0.021 C 
ENDBRANCH  17  20
ENDBRANCH   1  17
TORSDOF 5
ENDMDL
