MODEL 1
REMARK VINA RESULT:      -5.3      0.000      0.000
REMARK  7 active torsions:
REMARK  status: ('A' for Active; 'I' for Inactive)
REMARK    1  A    between atoms: C_7  and  C_1 
REMARK    2  A    between atoms: N_5  and  C_2 
REMARK       I    between atoms: C_8  and  N_5 
REMARK    3  A    between atoms: N_9  and  C_7 
REMARK    4  A    between atoms: C_11  and  C_7 
REMARK    5  A    between atoms: C_15  and  C_8 
REMARK    6  A    between atoms: O_25  and  C_20 
REMARK    7  A    between atoms: C_29  and  O_25 
ROOT
ATOM      1  C   UNL d   1     -39.400  14.402  18.395  0.00  0.00     0.066 C 
ENDROOT
BRANCH   1   2
ATOM      2  C   UNL d   1     -39.236  14.746  19.123  0.00  0.00     0.041 A 
ATOM      3  C   UNL d   1     -39.660  14.750  19.829  0.00  0.00     0.115 A 
ATOM      4  S   UNL d   1     -39.222  15.186  20.378  0.00  0.00    -0.068 SA
ATOM      5  C   UNL d   1     -38.538  15.441  20.001  0.00  0.00     0.031 A 
ATOM      6  C   UNL d   1     -38.542  15.171  19.224  0.00  0.00     0.009 A 
ATOM      7  C   UNL d   1     -37.940  15.914  20.395  0.00  0.00     0.007 C 
ATOM      8  C   UNL d   1     -37.958  15.293  18.624  0.00  0.00     0.001 C 
BRANCH   3   9
ATOM      9  N   UNL d   1     -40.386  14.395  19.988  0.00  0.00    -0.201 NA
ATOM     10  C   UNL d   1     -40.582  14.154  20.754  0.00  0.00     0.280 C 
ATOM     11  O   UNL d   1     -41.326  13.794  20.901  0.00  0.00    -0.265 OA
BRANCH  10  12
ATOM     12  C   UNL d   1     -40.046  14.269  21.360  0.00  0.00     0.058 A 
ATOM     13  C   UNL d   1     -39.557  13.660  21.590  0.00  0.00     0.005 A 
ATOM     14  C   UNL d   1     -39.024  13.771  22.192  0.00  0.00     0.000 A 
ATOM     15  C   UNL d   1     -38.973  14.488  22.568  0.00  0.00     0.000 A 
ATOM     16  C   UNL d   1     -39.463  15.109  22.341  0.00  0.00     0.000 A 
ATOM     17  C   UNL d   1     -40.004  15.003  21.734  0.00  0.00     0.005 A 
ENDBRANCH  10  12
ENDBRANCH   3   9
ENDBRANCH   1   2
BRANCH   1  18
ATOM     18  N   UNL d   1     -39.928  14.768  17.871  0.00  0.00    -0.301 N 
ATOM     19  C   UNL d   1     -39.672  15.402  17.374  0.00  0.00     0.100 A 
ATOM     20  C   UNL d   1     -40.230  15.754  16.852  0.00  0.00     0.100 A 
ATOM     21  N   UNL d   1     -41.015  15.503  16.809  0.00  0.00    -0.299 N 
ATOM     22  C   UNL d   1     -41.272  14.869  17.306  0.00  0.00     0.100 A 
ATOM     23  C   UNL d   1     -41.548  15.870  16.282  0.00  0.00     0.100 C 
ATOM     24  C   UNL d   1     -40.732  14.517  17.822  0.00  0.00     0.100 A 
ENDBRANCH   1  18
BRANCH   1  25
ATOM     25  C   UNL d   1     -39.044  13.688  18.172  0.00  0.00     0.016 A 
ATOM     26  C   UNL d   1     -38.437  13.696  17.623  0.00  0.00     0.004 A 
ATOM     27  C   UNL d   1     -38.072  13.005  17.388  0.00  0.00     0.025 A 
ATOM     28  C   UNL d   1     -38.310  12.271  17.704  0.00  0.00     0.100 A 
ATOM     29  C   UNL d   1     -38.940  12.245  18.277  0.00  0.00     0.025 A 
ATOM     30  C   UNL d   1     -39.307  12.968  18.509  0.00  0.00     0.004 A 
BRANCH  28  31
ATOM     31  O   UNL d   1     -37.942  11.575  17.467  0.00  0.00    -0.305 OA
BRANCH  31  32
ATOM     32  C   UNL d   1     -38.005  10.886  17.929  0.00  0.00     0.123 C 
ATOM     33  C   UNL d   1     -37.952  10.139  17.578  0.00  0.00     0.029 C 
ENDBRANCH  31  32
ENDBRANCH  28  31
ENDBRANCH   1  25
TORSDOF 7
ENDMDL
MODEL 2
REMARK VINA RESULT:      -4.4      1.630      4.440
REMARK  7 active torsions:
REMARK  status: ('A' for Active; 'I' for Inactive)
REMARK    1  A    between atoms: C_7  and  C_1 
REMARK    2  A    between atoms: N_5  and  C_2 
REMARK       I    between atoms: C_8  and  N_5 
REMARK    3  A    between atoms: N_9  and  C_7 
REMARK    4  A    between atoms: C_11  and  C_7 
REMARK    5  A    between atoms: C_15  and  C_8 
REMARK    6  A    between atoms: O_25  and  C_20 
REMARK    7  A    between atoms: C_29  and  O_25 
ROOT
ATOM      1  C   UNL d   1     -40.434  14.585  20.213  0.00  0.00     0.066 C 
ENDROOT
BRANCH   1   2
ATOM      2  C   UNL d   1     -40.378  14.678  19.398  0.00  0.00     0.041 A 
ATOM      3  C   UNL d   1     -40.005  14.221  18.825  0.00  0.00     0.115 A 
ATOM      4  S   UNL d   1     -40.135  14.585  18.094  0.00  0.00    -0.068 SA
ATOM      5  C   UNL d   1     -40.585  15.259  18.231  0.00  0.00     0.031 A 
ATOM      6  C   UNL d   1     -40.738  15.321  19.038  0.00  0.00     0.009 A 
ATOM      7  C   UNL d   1     -40.834  15.787  17.602  0.00  0.00     0.007 C 
ATOM      8  C   UNL d   1     -41.178  15.919  19.443  0.00  0.00     0.001 C 
BRANCH   3   9
ATOM      9  N   UNL d   1     -39.575  13.525  18.928  0.00  0.00    -0.201 NA
ATOM     10  C   UNL d   1     -38.922  13.355  18.451  0.00  0.00     0.280 C 
ATOM     11  O   UNL d   1     -38.494  12.642  18.569  0.00  0.00    -0.265 OA
BRANCH  10  12
ATOM     12  C   UNL d   1     -38.701  13.884  17.870  0.00  0.00     0.058 A 
ATOM     13  C   UNL d   1     -39.019  13.822  17.123  0.00  0.00     0.005 A 
ATOM     14  C   UNL d   1     -38.801  14.348  16.543  0.00  0.00     0.000 A 
ATOM     15  C   UNL d   1     -38.267  14.936  16.703  0.00  0.00     0.000 A 
ATOM     16  C   UNL d   1     -37.941  15.006  17.455  0.00  0.00     0.000 A 
ATOM     17  C   UNL d   1     -38.157  14.479  18.045  0.00  0.00     0.005 A 
ENDBRANCH  10  12
ENDBRANCH   3   9
ENDBRANCH   1   2
BRANCH   1  18
ATOM     18  N   UNL d   1     -39.822  14.851  20.705  0.00  0.00    -0.301 N 
ATOM     19  C   UNL d   1     -39.684  15.678  20.811  0.00  0.00     0.100 A 
ATOM     20  C   UNL d   1     -39.056  15.918  21.317  0.00  0.00     0.100 A 
ATOM     21  N   UNL d   1     -38.573  15.378  21.711  0.00  0.00    -0.299 N 
ATOM     22  C   UNL d   1     -38.711  14.551  21.606  0.00  0.00     0.100 A 
ATOM     23  C   UNL d   1     -37.957  15.644  22.207  0.00  0.00     0.100 C 
ATOM     24  C   UNL d   1     -39.326  14.304  21.111  0.00  0.00     0.100 A 
ENDBRANCH   1  18
BRANCH   1  25
ATOM     25  C   UNL d   1     -41.097  14.227  20.555  0.00  0.00     0.016 A 
ATOM     26  C   UNL d   1     -41.096  13.419  20.685  0.00  0.00     0.004 A 
ATOM     27  C   UNL d   1     -41.739  13.045  21.021  0.00  0.00     0.025 A 
ATOM     28  C   UNL d   1     -42.414  13.479  21.242  0.00  0.00     0.100 A 
ATOM     29  C   UNL d   1     -42.433  14.321  21.115  0.00  0.00     0.025 A 
ATOM     30  C   UNL d   1     -41.761  14.693  20.766  0.00  0.00     0.004 A 
BRANCH  28  31
ATOM     31  O   UNL d   1     -43.062  13.102  21.581  0.00  0.00    -0.305 OA
BRANCH  31  32
ATOM     32  C   UNL d   1     -42.965  12.388  21.997  0.00  0.00     0.123 C 
ATOM     33  C   UNL d   1     -43.622  11.931  22.206  0.00  0.00     0.029 C 
ENDBRANCH  31  32
ENDBRANCH  28  31
ENDBRANCH   1  25
TORSDOF 7
ENDMDL
MODEL 3
REMARK VINA RESULT:      -2.5      1.657      4.461
REMARK  7 active torsions:
REMARK  status: ('A' for Active; 'I' for Inactive)
REMARK    1  A    between atoms: C_7  and  C_1 
REMARK    2  A    between atoms: N_5  and  C_2 
REMARK       I    between atoms: C_8  and  N_5 
REMARK    3  A    between atoms: N_9  and  C_7 
REMARK    4  A    between atoms: C_11  and  C_7 
REMARK    5  A    between atoms: C_15  and  C_8 
REMARK    6  A    between atoms: O_25  and  C_20 
REMARK    7  A    between atoms: C_29  and  O_25 
ROOT
ATOM      1  C   UNL d   1     -39.963  14.266  20.407  0.00  0.00     0.066 C 
ENDROOT
BRANCH   1   2
ATOM      2  C   UNL d   1     -39.694  14.086  19.652  0.00  0.00     0.041 A 
ATOM      3  C   UNL d   1     -39.934  14.357  18.913  0.00  0.00     0.115 A 
ATOM      4  S   UNL d   1     -39.462  13.982  18.346  0.00  0.00    -0.068 SA
ATOM      5  C   UNL d   1     -38.942  13.488  18.747  0.00  0.00     0.031 A 
ATOM      6  C   UNL d   1     -39.082  13.549  19.556  0.00  0.00     0.009 A 
ATOM      7  C   UNL d   1     -38.360  13.002  18.346  0.00  0.00     0.007 C 
ATOM      8  C   UNL d   1     -38.687  13.149  20.188  0.00  0.00     0.001 C 
BRANCH   3   9
ATOM      9  N   UNL d   1     -40.529  14.899  18.737  0.00  0.00    -0.201 NA
ATOM     10  C   UNL d   1     -40.485  15.374  18.062  0.00  0.00     0.280 C 
ATOM     11  O   UNL d   1     -41.099  15.922  17.897  0.00  0.00    -0.265 OA
BRANCH  10  12
ATOM     12  C   UNL d   1     -39.843  15.303  17.563  0.00  0.00     0.058 A 
ATOM     13  C   UNL d   1     -39.864  14.771  16.947  0.00  0.00     0.005 A 
ATOM     14  C   UNL d   1     -39.226  14.698  16.449  0.00  0.00     0.000 A 
ATOM     15  C   UNL d   1     -38.565  15.153  16.561  0.00  0.00     0.000 A 
ATOM     16  C   UNL d   1     -38.535  15.693  17.181  0.00  0.00     0.000 A 
ATOM     17  C   UNL d   1     -39.175  15.771  17.687  0.00  0.00     0.005 A 
ENDBRANCH  10  12
ENDBRANCH   3   9
ENDBRANCH   1   2
BRANCH   1  18
ATOM     18  N   UNL d   1     -39.472  14.671  20.939  0.00  0.00    -0.301 N 
ATOM     19  C   UNL d   1     -38.851  14.267  21.344  0.00  0.00     0.100 A 
ATOM     20  C   UNL d   1     -38.369  14.704  21.878  0.00  0.00     0.100 A 
ATOM     21  N   UNL d   1     -38.482  15.509  22.019  0.00  0.00    -0.299 N 
ATOM     22  C   UNL d   1     -39.104  15.913  21.614  0.00  0.00     0.100 A 
ATOM     23  C   UNL d   1     -37.989  15.918  22.554  0.00  0.00     0.100 C 
ATOM     24  C   UNL d   1     -39.583  15.493  21.087  0.00  0.00     0.100 A 
ENDBRANCH   1  18
BRANCH   1  25
ATOM     25  C   UNL d   1     -40.724  14.047  20.651  0.00  0.00     0.016 A 
ATOM     26  C   UNL d   1     -41.343  14.574  20.558  0.00  0.00     0.004 A 
ATOM     27  C   UNL d   1     -42.101  14.380  20.791  0.00  0.00     0.025 A 
ATOM     28  C   UNL d   1     -42.263  13.637  21.131  0.00  0.00     0.100 A 
ATOM     29  C   UNL d   1     -41.630  13.076  21.235  0.00  0.00     0.025 A 
ATOM     30  C   UNL d   1     -40.852  13.291  20.989  0.00  0.00     0.004 A 
BRANCH  28  31
ATOM     31  O   UNL d   1     -43.026  13.441  21.365  0.00  0.00    -0.305 OA
BRANCH  31  32
ATOM     32  C   UNL d   1     -43.217  12.658  21.574  0.00  0.00     0.123 C 
ATOM     33  C   UNL d   1     -44.004  12.405  21.579  0.00  0.00     0.029 C 
ENDBRANCH  31  32
ENDBRANCH  28  31
ENDBRANCH   1  25
TORSDOF 7
ENDMDL
