MODEL 1
REMARK VINA RESULT:      42.1      0.000      0.000
REMARK  3 active torsions:
REMARK  status: ('A' for Active; 'I' for Inactive)
REMARK    1  A    between atoms: S_9  and  C_3 
REMARK    2  A    between atoms: C_12  and  S_9 
REMARK    3  A    between atoms: C_14  and  C_12 
ROOT
ATOM      1  C   UNL d   1     -57.986 -98.767 -44.732  0.00  0.00     0.155 A 
ATOM      2  C   UNL d   1     -57.631 -98.766 -43.982  0.00  0.00     0.107 A 
ATOM      3  C   UNL d   1     -56.342 -98.759 -44.600  0.00  0.00     0.182 A 
ATOM      4  N   UNL d   1     -56.691 -98.760 -45.342  0.00  0.00    -0.250 N 
ATOM      5  N   UNL d   1     -56.802 -98.762 -43.916  0.00  0.00    -0.220 NA
ATOM      6  C   UNL d   1     -57.519 -98.764 -45.408  0.00  0.00     0.285 A 
ATOM      7  N   UNL d   1     -58.805 -98.770 -44.628  0.00  0.00    -0.239 NA
ATOM      8  C   UNL d   1     -58.225 -98.769 -43.412  0.00  0.00     0.037 A 
ATOM      9  C   UNL d   1     -58.959 -98.772 -43.811  0.00  0.00     0.083 A 
ATOM     10  O   UNL d   1     -57.868 -98.764 -46.164  0.00  0.00    -0.265 OA
ATOM     11  C   UNL d   1     -56.218 -98.757 -46.025  0.00  0.00     0.104 C 
ATOM     12  C   UNL d   1     -58.207 -98.770 -42.588  0.00  0.00     0.003 A 
ATOM     13  C   UNL d   1     -59.667 -98.776 -43.380  0.00  0.00     0.019 A 
ATOM     14  C   UNL d   1     -58.915 -98.774 -42.158  0.00  0.00     0.000 A 
ATOM     15  C   UNL d   1     -59.639 -98.777 -42.553  0.00  0.00     0.002 A 
ENDROOT
BRANCH   3  16
ATOM     16  S   UNL d   1     -55.517 -98.756 -44.536  0.00  0.00    -0.050 SA
BRANCH  16  17
ATOM     17  C   UNL d   1     -55.140 -99.211 -43.958  0.00  0.00     0.032 C 
ATOM     18  C   UNL d   1     -54.849 -98.853 -43.275  0.00  0.00     0.007 C 
BRANCH  17  19
ATOM     19  C   UNL d   1     -55.064-100.023 -44.081  0.00  0.00     0.006 A 
ATOM     20  C   UNL d   1     -55.253-100.543 -43.474  0.00  0.00     0.001 A 
ATOM     21  C   UNL d   1     -55.181-101.365 -43.582  0.00  0.00     0.000 A 
ATOM     22  C   UNL d   1     -54.917-101.655 -44.304  0.00  0.00     0.000 A 
ATOM     23  C   UNL d   1     -54.725-101.142 -44.917  0.00  0.00     0.000 A 
ATOM     24  C   UNL d   1     -54.800-100.322 -44.802  0.00  0.00     0.001 A 
ENDBRANCH  17  19
ENDBRANCH  16  17
ENDBRANCH   3  16
TORSDOF 3
ENDMDL
