MODEL 1
REMARK VINA RESULT:      -0.9      0.000      0.000
REMARK  5 active torsions:
REMARK  status: ('A' for Active; 'I' for Inactive)
REMARK    1  A    between atoms: N_10  and  C_3 
REMARK    2  A    between atoms: C_11  and  C_5 
REMARK    3  A    between atoms: C_16  and  C_7 
REMARK    4  A    between atoms: C_15  and  N_10 
REMARK       I    between atoms: C_12  and  N_13 
REMARK    5  A    between atoms: N_13  and  C_17 
ROOT
ATOM      1  N   UNL d   1      32.667  20.592 -22.491  0.00  0.00    -0.184 N 
ATOM      2  C   UNL d   1      32.689  21.355 -22.178  0.00  0.00     0.168 A 
ATOM      3  C   UNL d   1      32.834  20.475 -23.264  0.00  0.00     0.217 A 
ATOM      4  N   UNL d   1      32.314  20.093 -21.251  0.00  0.00    -0.162 NA
ATOM      5  C   UNL d   1      32.524  21.471 -21.414  0.00  0.00     0.055 A 
ATOM      6  N   UNL d   1      32.876  21.969 -22.651  0.00  0.00    -0.227 NA
ATOM      7  C   UNL d   1      33.023  21.095 -23.739  0.00  0.00     0.066 A 
ATOM      8  C   UNL d   1      32.335  20.844 -20.942  0.00  0.00     0.104 A 
ATOM      9  C   UNL d   1      33.044  21.858 -23.426  0.00  0.00     0.087 A 
ATOM     10  C   UNL d   1      32.169  20.970 -20.169  0.00  0.00     0.023 C 
ATOM     11  C   UNL d   1      33.241  22.508 -23.920  0.00  0.00     0.021 C 
ENDROOT
BRANCH   3  12
ATOM     12  N   UNL d   1      32.811  19.705 -23.572  0.00  0.00    -0.383 NA
BRANCH  12  13
ATOM     13  C   UNL d   1      32.723  18.919 -23.813  0.00  0.00     0.134 A 
ATOM     14  C   UNL d   1      33.064  18.664 -24.520  0.00  0.00     0.034 A 
ATOM     15  C   UNL d   1      32.971  17.872 -24.754  0.00  0.00     0.022 A 
ATOM     16  C   UNL d   1      32.542  17.346 -24.285  0.00  0.00     0.085 A 
ATOM     17  C   UNL d   1      32.199  17.597 -23.575  0.00  0.00     0.022 A 
ATOM     18  C   UNL d   1      32.288  18.391 -23.333  0.00  0.00     0.034 A 
BRANCH  16  19
ATOM     19  N   UNL d   1      32.459  16.556 -24.534  0.00  0.00    -0.208 NA
ATOM     20  C   UNL d   1      31.711  16.291 -24.789  0.00  0.00     0.279 C 
ATOM     21  O   UNL d   1      31.617  15.518 -25.036  0.00  0.00    -0.265 OA
ATOM     22  C   UNL d   1      31.062  16.802 -24.796  0.00  0.00     0.068 C 
ENDBRANCH  16  19
ENDBRANCH  12  13
ENDBRANCH   3  12
BRANCH   7  23
ATOM     23  C   UNL d   1      33.198  20.990 -24.543  0.00  0.00     0.006 C 
ATOM     24  C   UNL d   1      33.201  21.639 -25.073  0.00  0.00     0.000 C 
ENDBRANCH   7  23
BRANCH   5  25
ATOM     25  C   UNL d   1      32.545  22.211 -21.110  0.00  0.00     0.004 A 
ATOM     26  C   UNL d   1      31.969  22.736 -21.280  0.00  0.00     0.000 A 
ATOM     27  C   UNL d   1      31.990  23.487 -20.971  0.00  0.00     0.000 A 
ATOM     28  C   UNL d   1      32.586  23.702 -20.498  0.00  0.00     0.000 A 
ATOM     29  C   UNL d   1      33.172  23.175 -20.324  0.00  0.00     0.000 A 
ATOM     30  C   UNL d   1      33.152  22.435 -20.627  0.00  0.00     0.000 A 
ENDBRANCH   5  25
TORSDOF 5
ENDMDL
MODEL 2
REMARK VINA RESULT:       0.0      2.113      5.338
REMARK  5 active torsions:
REMARK  status: ('A' for Active; 'I' for Inactive)
REMARK    1  A    between atoms: N_10  and  C_3 
REMARK    2  A    between atoms: C_11  and  C_5 
REMARK    3  A    between atoms: C_16  and  C_7 
REMARK    4  A    between atoms: C_15  and  N_10 
REMARK       I    between atoms: C_12  and  N_13 
REMARK    5  A    between atoms: N_13  and  C_17 
ROOT
ATOM      1  N   UNL d   1      32.848  19.137 -22.779  0.00  0.00    -0.184 N 
ATOM      2  C   UNL d   1      32.792  18.604 -23.406  0.00  0.00     0.168 A 
ATOM      3  C   UNL d   1      32.994  19.910 -22.926  0.00  0.00     0.217 A 
ATOM      4  N   UNL d   1      32.609  18.110 -21.884  0.00  0.00    -0.162 NA
ATOM      5  C   UNL d   1      32.648  17.841 -23.261  0.00  0.00     0.055 A 
ATOM      6  N   UNL d   1      32.886  18.865 -24.153  0.00  0.00    -0.227 NA
ATOM      7  C   UNL d   1      33.088  20.171 -23.680  0.00  0.00     0.066 A 
ATOM      8  C   UNL d   1      32.554  17.585 -22.501  0.00  0.00     0.104 A 
ATOM      9  C   UNL d   1      33.033  19.637 -24.307  0.00  0.00     0.087 A 
ATOM     10  C   UNL d   1      32.408  16.810 -22.362  0.00  0.00     0.023 C 
ATOM     11  C   UNL d   1      33.131  19.907 -25.096  0.00  0.00     0.021 C 
ENDROOT
BRANCH   3  12
ATOM     12  N   UNL d   1      33.049  20.440 -22.291  0.00  0.00    -0.383 NA
BRANCH  12  13
ATOM     13  C   UNL d   1      33.094  20.894 -21.600  0.00  0.00     0.134 A 
ATOM     14  C   UNL d   1      33.160  20.522 -20.866  0.00  0.00     0.034 A 
ATOM     15  C   UNL d   1      33.206  20.986 -20.179  0.00  0.00     0.022 A 
ATOM     16  C   UNL d   1      33.185  21.809 -20.228  0.00  0.00     0.085 A 
ATOM     17  C   UNL d   1      33.118  22.187 -20.962  0.00  0.00     0.022 A 
ATOM     18  C   UNL d   1      33.072  21.727 -21.658  0.00  0.00     0.034 A 
BRANCH  16  19
ATOM     19  N   UNL d   1      33.231  22.259 -19.529  0.00  0.00    -0.208 NA
ATOM     20  C   UNL d   1      32.703  22.894 -19.423  0.00  0.00     0.279 C 
ATOM     21  O   UNL d   1      32.739  23.343 -18.741  0.00  0.00    -0.265 OA
ATOM     22  C   UNL d   1      32.141  23.077 -20.000  0.00  0.00     0.068 C 
ENDBRANCH  16  19
ENDBRANCH  12  13
ENDBRANCH   3  12
BRANCH   7  23
ATOM     23  C   UNL d   1      33.241  20.968 -23.849  0.00  0.00     0.006 C 
ATOM     24  C   UNL d   1      33.131  21.275 -24.620  0.00  0.00     0.000 C 
ENDBRANCH   7  23
BRANCH   5  25
ATOM     25  C   UNL d   1      32.594  17.324 -23.869  0.00  0.00     0.004 A 
ATOM     26  C   UNL d   1      33.241  16.943 -24.136  0.00  0.00     0.000 A 
ATOM     27  C   UNL d   1      33.186  16.418 -24.753  0.00  0.00     0.000 A 
ATOM     28  C   UNL d   1      32.485  16.281 -25.093  0.00  0.00     0.000 A 
ATOM     29  C   UNL d   1      31.826  16.664 -24.827  0.00  0.00     0.000 A 
ATOM     30  C   UNL d   1      31.880  17.181 -24.219  0.00  0.00     0.000 A 
ENDBRANCH   5  25
TORSDOF 5
ENDMDL
