MODEL 1
REMARK VINA RESULT:      -0.3      0.000      0.000
REMARK  5 active torsions:
REMARK  status: ('A' for Active; 'I' for Inactive)
REMARK    1  A    between atoms: S_2  and  C_1 
REMARK    2  A    between atoms: C_8  and  S_2 
REMARK    3  A    between atoms: C_23  and  N_7 
REMARK    4  A    between atoms: N_13  and  C_10 
REMARK    5  A    between atoms: C_31  and  C_23 
ROOT
ATOM      1  C   UNL d   1      32.911  21.697 -20.809  0.00  0.00     0.144 A 
ATOM      2  C   UNL d   1      32.911  20.452 -21.527  0.00  0.00     0.058 A 
ATOM      3  C   UNL d   1      32.845  20.867 -20.817  0.00  0.00     0.209 A 
ATOM      4  C   UNL d   1      33.043  22.105 -21.516  0.00  0.00     0.095 A 
ATOM      5  C   UNL d   1      33.043  20.860 -22.234  0.00  0.00     0.069 A 
ATOM      6  N   UNL d   1      33.109  21.682 -22.231  0.00  0.00    -0.303 N 
ATOM      7  C   UNL d   1      33.109  20.445 -22.945  0.00  0.00     0.037 A 
ATOM      8  C   UNL d   1      33.044  19.623 -22.947  0.00  0.00     0.093 A 
ATOM      9  C   UNL d   1      32.846  19.630 -21.530  0.00  0.00     0.036 A 
ATOM     10  C   UNL d   1      32.912  19.215 -22.240  0.00  0.00     0.156 A 
ATOM     11  O   UNL d   1      32.714  20.459 -20.110  0.00  0.00    -0.286 OA
ATOM     12  F   UNL d   1      32.846  18.382 -22.249  0.00  0.00    -0.203 F 
ENDROOT
BRANCH   1  13
ATOM     13  S   UNL d   1      32.845  22.115 -20.097  0.00  0.00     0.214 S 
ATOM     14  O   UNL d   1      33.241  21.494 -19.701  0.00  0.00    -0.217 OA
ATOM     15  O   UNL d   1      32.450  22.735 -20.494  0.00  0.00    -0.217 OA
BRANCH  13  16
ATOM     16  C   UNL d   1      32.780  22.534 -19.377  0.00  0.00     0.088 A 
ATOM     17  C   UNL d   1      32.459  23.293 -19.365  0.00  0.00     0.011 A 
ATOM     18  C   UNL d   1      32.397  23.702 -18.651  0.00  0.00     0.001 A 
ATOM     19  C   UNL d   1      32.199  23.644 -20.067  0.00  0.00     0.001 C 
ATOM     20  C   UNL d   1      32.659  23.350 -17.946  0.00  0.00     0.000 A 
ATOM     21  C   UNL d   1      32.979  22.592 -17.961  0.00  0.00     0.001 A 
ATOM     22  C   UNL d   1      33.042  22.181 -18.672  0.00  0.00     0.011 A 
ATOM     23  C   UNL d   1      33.241  22.238 -17.261  0.00  0.00     0.000 C 
ENDBRANCH  13  16
ENDBRANCH   1  13
BRANCH   6  24
ATOM     24  C   UNL d   1      33.241  22.090 -22.938  0.00  0.00     0.080 C 
BRANCH  24  25
ATOM     25  C   UNL d   1      32.963  22.862 -23.028  0.00  0.00     0.019 C 
ATOM     26  C   UNL d   1      33.012  23.236 -23.763  0.00  0.00     0.002 C 
ENDBRANCH  24  25
ENDBRANCH   6  24
BRANCH   8  27
ATOM     27  N   UNL d   1      33.110  19.205 -23.660  0.00  0.00    -0.298 N 
ATOM     28  C   UNL d   1      33.132  18.379 -23.650  0.00  0.00     0.107 A 
ATOM     29  C   UNL d   1      33.198  17.961 -24.358  0.00  0.00     0.142 A 
ATOM     30  O   UNL d   1      33.241  18.383 -25.077  0.00  0.00    -0.300 OA
ATOM     31  C   UNL d   1      33.218  19.210 -25.080  0.00  0.00     0.142 A 
ATOM     32  C   UNL d   1      33.152  19.615 -24.371  0.00  0.00     0.107 A 
ENDBRANCH   8  27
TORSDOF 5
ENDMDL
