MODEL 1
REMARK VINA RESULT:      -3.9      0.000      0.000
REMARK  6 active torsions:
REMARK  status: ('A' for Active; 'I' for Inactive)
REMARK    1  A    between atoms: N_13  and  C_4 
REMARK    2  A    between atoms: O_17  and  C_9 
REMARK    3  A    between atoms: O_18  and  C_11 
REMARK    4  A    between atoms: C_19  and  N_13 
REMARK    5  A    between atoms: C_15  and  C_20 
REMARK    6  A    between atoms: C_20  and  C_19 
ROOT
ATOM      1  C   UNL d   1      58.056  -0.171  30.407  0.00  0.00     0.101 C 
ENDROOT
BRANCH   1   2
ATOM      2  N   UNL d   1      58.133  -0.445  29.652  0.00  0.00    -0.225 NA
BRANCH   2   3
ATOM      3  C   UNL d   1      58.861  -0.497  29.303  0.00  0.00     0.169 A 
ATOM      4  C   UNL d   1      59.145  -1.188  29.109  0.00  0.00     0.094 A 
ATOM      5  C   UNL d   1      59.851  -1.232  28.772  0.00  0.00     0.190 A 
ATOM      6  C   UNL d   1      59.034  -2.533  29.046  0.00  0.00     0.128 A 
ATOM      7  N   UNL d   1      60.259  -0.595  28.634  0.00  0.00    -0.203 NA
ATOM      8  N   UNL d   1      60.138  -1.924  28.577  0.00  0.00    -0.128 NA
ATOM      9  C   UNL d   1      59.973   0.107  28.830  0.00  0.00     0.202 A 
ATOM     10  N   UNL d   1      59.268   0.157  29.167  0.00  0.00    -0.205 NA
ATOM     11  N   UNL d   1      59.736  -2.569  28.711  0.00  0.00    -0.145 NA
ENDBRANCH   2   3
ENDBRANCH   1   2
BRANCH   1  12
ATOM     12  C   UNL d   1      57.310  -0.071  30.745  0.00  0.00     0.021 C 
BRANCH  12  13
ATOM     13  C   UNL d   1      57.231   0.042  31.554  0.00  0.00     0.004 A 
ATOM     14  C   UNL d   1      56.651  -0.365  31.961  0.00  0.00     0.026 A 
ATOM     15  C   UNL d   1      56.566  -0.254  32.781  0.00  0.00     0.116 A 
ATOM     16  C   UNL d   1      57.065   0.266  33.182  0.00  0.00     0.116 A 
ATOM     17  C   UNL d   1      57.653   0.678  32.766  0.00  0.00     0.026 A 
ATOM     18  C   UNL d   1      57.736   0.567  31.950  0.00  0.00     0.002 A 
BRANCH  15  19
ATOM     19  O   UNL d   1      55.976  -0.669  33.196  0.00  0.00    -0.326 OA
ATOM     20  C   UNL d   1      55.756  -1.435  32.954  0.00  0.00     0.181 C 
ENDBRANCH  15  19
BRANCH  16  21
ATOM     21  O   UNL d   1      56.984   0.382  34.007  0.00  0.00    -0.326 OA
ATOM     22  C   UNL d   1      57.627   0.682  34.441  0.00  0.00     0.181 C 
ENDBRANCH  16  21
ENDBRANCH  12  13
ENDBRANCH   1  12
TORSDOF 6
ENDMDL
MODEL 2
REMARK VINA RESULT:      -3.9      2.811      4.943
REMARK  6 active torsions:
REMARK  status: ('A' for Active; 'I' for Inactive)
REMARK    1  A    between atoms: N_13  and  C_4 
REMARK    2  A    between atoms: O_17  and  C_9 
REMARK    3  A    between atoms: O_18  and  C_11 
REMARK    4  A    between atoms: C_19  and  N_13 
REMARK    5  A    between atoms: C_15  and  C_20 
REMARK    6  A    between atoms: C_20  and  C_19 
ROOT
ATOM      1  C   UNL d   1      57.623   0.075  31.344  0.00  0.00     0.101 C 
ENDROOT
BRANCH   1   2
ATOM      2  N   UNL d   1      56.967   0.118  31.813  0.00  0.00    -0.225 NA
BRANCH   2   3
ATOM      3  C   UNL d   1      57.033   0.294  32.599  0.00  0.00     0.169 A 
ATOM      4  C   UNL d   1      56.412   0.247  33.055  0.00  0.00     0.094 A 
ATOM      5  C   UNL d   1      56.480   0.419  33.816  0.00  0.00     0.190 A 
ATOM      6  C   UNL d   1      55.098  -0.014  33.235  0.00  0.00     0.128 A 
ATOM      7  N   UNL d   1      57.158   0.633  34.110  0.00  0.00    -0.203 NA
ATOM      8  N   UNL d   1      55.859   0.373  34.276  0.00  0.00    -0.128 NA
ATOM      9  C   UNL d   1      57.789   0.682  33.649  0.00  0.00     0.202 A 
ATOM     10  N   UNL d   1      57.726   0.511  32.887  0.00  0.00    -0.205 NA
ATOM     11  N   UNL d   1      55.174   0.158  33.991  0.00  0.00    -0.145 NA
ENDBRANCH   2   3
ENDBRANCH   1   2
BRANCH   1  12
ATOM     12  C   UNL d   1      57.556  -0.101  30.541  0.00  0.00     0.021 C 
BRANCH  12  13
ATOM     13  C   UNL d   1      58.226  -0.154  30.069  0.00  0.00     0.004 A 
ATOM     14  C   UNL d   1      58.387  -0.853  29.679  0.00  0.00     0.026 A 
ATOM     15  C   UNL d   1      59.064  -0.912  29.198  0.00  0.00     0.116 A 
ATOM     16  C   UNL d   1      59.571  -0.267  29.116  0.00  0.00     0.116 A 
ATOM     17  C   UNL d   1      59.404   0.443  29.513  0.00  0.00     0.026 A 
ATOM     18  C   UNL d   1      58.730   0.500  29.991  0.00  0.00     0.002 A 
BRANCH  15  19
ATOM     19  O   UNL d   1      59.228  -1.625  28.801  0.00  0.00    -0.326 OA
ATOM     20  C   UNL d   1      58.897  -2.340  29.072  0.00  0.00     0.181 C 
ENDBRANCH  15  19
BRANCH  16  21
ATOM     21  O   UNL d   1      60.252  -0.320  28.635  0.00  0.00    -0.326 OA
ATOM     22  C   UNL d   1      60.822   0.286  28.665  0.00  0.00     0.181 C 
ENDBRANCH  16  21
ENDBRANCH  12  13
ENDBRANCH   1  12
TORSDOF 6
ENDMDL
MODEL 3
REMARK VINA RESULT:      -3.7      1.017      1.722
REMARK  6 active torsions:
REMARK  status: ('A' for Active; 'I' for Inactive)
REMARK    1  A    between atoms: N_13  and  C_4 
REMARK    2  A    between atoms: O_17  and  C_9 
REMARK    3  A    between atoms: O_18  and  C_11 
REMARK    4  A    between atoms: C_19  and  N_13 
REMARK    5  A    between atoms: C_15  and  C_20 
REMARK    6  A    between atoms: C_20  and  C_19 
ROOT
ATOM      1  C   UNL d   1      57.297  -0.619  31.287  0.00  0.00     0.101 C 
ENDROOT
BRANCH   1   2
ATOM      2  N   UNL d   1      57.559  -1.011  30.632  0.00  0.00    -0.225 NA
BRANCH   2   3
ATOM      3  C   UNL d   1      58.007  -0.631  30.076  0.00  0.00     0.169 A 
ATOM      4  C   UNL d   1      58.472  -1.039  29.615  0.00  0.00     0.094 A 
ATOM      5  C   UNL d   1      58.904  -0.667  29.078  0.00  0.00     0.190 A 
ATOM      6  C   UNL d   1      58.989  -2.220  29.208  0.00  0.00     0.128 A 
ATOM      7  N   UNL d   1      58.868   0.098  29.008  0.00  0.00    -0.203 NA
ATOM      8  N   UNL d   1      59.372  -1.074  28.614  0.00  0.00    -0.128 NA
ATOM      9  C   UNL d   1      58.396   0.514  29.475  0.00  0.00     0.202 A 
ATOM     10  N   UNL d   1      57.963   0.147  30.014  0.00  0.00    -0.205 NA
ATOM     11  N   UNL d   1      59.415  -1.843  28.676  0.00  0.00    -0.145 NA
ENDBRANCH   2   3
ENDBRANCH   1   2
BRANCH   1  12
ATOM     12  C   UNL d   1      56.982  -1.034  31.928  0.00  0.00     0.021 C 
BRANCH  12  13
ATOM     13  C   UNL d   1      56.551  -0.642  32.507  0.00  0.00     0.004 A 
ATOM     14  C   UNL d   1      56.943  -0.184  33.057  0.00  0.00     0.026 A 
ATOM     15  C   UNL d   1      56.512   0.215  33.646  0.00  0.00     0.116 A 
ATOM     16  C   UNL d   1      55.690   0.148  33.674  0.00  0.00     0.116 A 
ATOM     17  C   UNL d   1      55.295  -0.319  33.113  0.00  0.00     0.026 A 
ATOM     18  C   UNL d   1      55.726  -0.715  32.528  0.00  0.00     0.002 A 
BRANCH  15  19
ATOM     19  O   UNL d   1      56.911   0.682  34.207  0.00  0.00    -0.326 OA
ATOM     20  C   UNL d   1      57.742   0.657  34.256  0.00  0.00     0.181 C 
ENDBRANCH  15  19
BRANCH  16  21
ATOM     21  O   UNL d   1      55.251   0.546  34.264  0.00  0.00    -0.326 OA
ATOM     22  C   UNL d   1      54.423   0.590  34.196  0.00  0.00     0.181 C 
ENDBRANCH  16  21
ENDBRANCH  12  13
ENDBRANCH   1  12
TORSDOF 6
ENDMDL
MODEL 4
REMARK VINA RESULT:      -2.1      9.009      9.408
REMARK  6 active torsions:
REMARK  status: ('A' for Active; 'I' for Inactive)
REMARK    1  A    between atoms: N_13  and  C_4 
REMARK    2  A    between atoms: O_17  and  C_9 
REMARK    3  A    between atoms: O_18  and  C_11 
REMARK    4  A    between atoms: C_19  and  N_13 
REMARK    5  A    between atoms: C_15  and  C_20 
REMARK    6  A    between atoms: C_20  and  C_19 
ROOT
ATOM      1  C   UNL d   1      59.154  -9.511  32.656  0.00  0.00     0.101 C 
ENDROOT
BRANCH   1   2
ATOM      2  N   UNL d   1      59.063  -9.770  31.897  0.00  0.00    -0.225 NA
BRANCH   2   3
ATOM      3  C   UNL d   1      58.334  -9.774  31.546  0.00  0.00     0.169 A 
ATOM      4  C   UNL d   1      58.280  -9.771  30.776  0.00  0.00     0.094 A 
ATOM      5  C   UNL d   1      57.572  -9.776  30.441  0.00  0.00     0.190 A 
ATOM      6  C   UNL d   1      58.854  -9.760  29.554  0.00  0.00     0.128 A 
ATOM      7  N   UNL d   1      56.935  -9.784  30.873  0.00  0.00    -0.203 NA
ATOM      8  N   UNL d   1      57.513  -9.773  29.670  0.00  0.00    -0.128 NA
ATOM      9  C   UNL d   1      56.989  -9.787  31.655  0.00  0.00     0.202 A 
ATOM     10  N   UNL d   1      57.694  -9.782  31.994  0.00  0.00    -0.205 NA
ATOM     11  N   UNL d   1      58.146  -9.765  29.228  0.00  0.00    -0.145 NA
ENDBRANCH   2   3
ENDBRANCH   1   2
BRANCH   1  12
ATOM     12  C   UNL d   1      59.846  -9.670  33.075  0.00  0.00     0.021 C 
BRANCH  12  13
ATOM     13  C   UNL d   1      60.017  -9.264  33.768  0.00  0.00     0.004 A 
ATOM     14  C   UNL d   1      59.481  -9.280  34.384  0.00  0.00     0.026 A 
ATOM     15  C   UNL d   1      59.649  -8.870  35.089  0.00  0.00     0.116 A 
ATOM     16  C   UNL d   1      60.354  -8.449  35.165  0.00  0.00     0.116 A 
ATOM     17  C   UNL d   1      60.896  -8.434  34.537  0.00  0.00     0.026 A 
ATOM     18  C   UNL d   1      60.728  -8.843  33.837  0.00  0.00     0.002 A 
BRANCH  15  19
ATOM     19  O   UNL d   1      59.103  -8.886  35.717  0.00  0.00    -0.326 OA
ATOM     20  C   UNL d   1      59.096  -9.528  36.248  0.00  0.00     0.181 C 
ENDBRANCH  15  19
BRANCH  16  21
ATOM     21  O   UNL d   1      60.528  -8.035  35.870  0.00  0.00    -0.326 OA
ATOM     22  C   UNL d   1      61.004  -7.353  35.837  0.00  0.00     0.181 C 
ENDBRANCH  16  21
ENDBRANCH  12  13
ENDBRANCH   1  12
TORSDOF 6
ENDMDL
MODEL 5
REMARK VINA RESULT:      -1.5      9.142     10.136
REMARK  6 active torsions:
REMARK  status: ('A' for Active; 'I' for Inactive)
REMARK    1  A    between atoms: N_13  and  C_4 
REMARK    2  A    between atoms: O_17  and  C_9 
REMARK    3  A    between atoms: O_18  and  C_11 
REMARK    4  A    between atoms: C_19  and  N_13 
REMARK    5  A    between atoms: C_15  and  C_20 
REMARK    6  A    between atoms: C_20  and  C_19 
ROOT
ATOM      1  C   UNL d   1      59.124  -9.120  33.517  0.00  0.00     0.101 C 
ENDROOT
BRANCH   1   2
ATOM      2  N   UNL d   1      59.716  -9.043  34.060  0.00  0.00    -0.225 NA
BRANCH   2   3
ATOM      3  C   UNL d   1      59.548  -8.870  34.833  0.00  0.00     0.169 A 
ATOM      4  C   UNL d   1      59.948  -8.320  35.197  0.00  0.00     0.094 A 
ATOM      5  C   UNL d   1      59.782  -8.155  35.945  0.00  0.00     0.190 A 
ATOM      6  C   UNL d   1      60.914  -7.375  35.207  0.00  0.00     0.128 A 
ATOM      7  N   UNL d   1      59.225  -8.536  36.315  0.00  0.00    -0.203 NA
ATOM      8  N   UNL d   1      60.182  -7.605  36.313  0.00  0.00    -0.128 NA
ATOM      9  C   UNL d   1      58.818  -9.094  35.946  0.00  0.00     0.202 A 
ATOM     10  N   UNL d   1      58.980  -9.262  35.199  0.00  0.00    -0.205 NA
ATOM     11  N   UNL d   1      60.743  -7.217  35.951  0.00  0.00    -0.145 NA
ENDBRANCH   2   3
ENDBRANCH   1   2
BRANCH   1  12
ATOM     12  C   UNL d   1      59.037  -9.818  33.085  0.00  0.00     0.021 C 
BRANCH  12  13
ATOM     13  C   UNL d   1      58.675  -9.810  32.349  0.00  0.00     0.004 A 
ATOM     14  C   UNL d   1      59.136  -9.811  31.675  0.00  0.00     0.026 A 
ATOM     15  C   UNL d   1      58.775  -9.803  30.925  0.00  0.00     0.116 A 
ATOM     16  C   UNL d   1      57.952  -9.793  30.863  0.00  0.00     0.116 A 
ATOM     17  C   UNL d   1      57.486  -9.791  31.549  0.00  0.00     0.026 A 
ATOM     18  C   UNL d   1      57.847  -9.800  32.294  0.00  0.00     0.002 A 
BRANCH  15  19
ATOM     19  O   UNL d   1      59.245  -9.805  30.239  0.00  0.00    -0.326 OA
ATOM     20  C   UNL d   1      60.075  -9.769  30.301  0.00  0.00     0.181 C 
ENDBRANCH  15  19
BRANCH  16  21
ATOM     21  O   UNL d   1      57.583  -9.785  30.113  0.00  0.00    -0.326 OA
ATOM     22  C   UNL d   1      56.766  -9.634  30.061  0.00  0.00     0.181 C 
ENDBRANCH  16  21
ENDBRANCH  12  13
ENDBRANCH   1  12
TORSDOF 6
ENDMDL
