MODEL 1
REMARK VINA RESULT:      38.4      0.000      0.000
REMARK  5 active torsions:
REMARK  status: ('A' for Active; 'I' for Inactive)
REMARK    1  A    between atoms: O_8  and  C_1 
REMARK    2  A    between atoms: C_12  and  C_5 
REMARK    3  A    between atoms: C_10  and  O_8 
REMARK    4  A    between atoms: N_16  and  C_12 
REMARK    5  A    between atoms: O_19  and  C_15 
ROOT
ATOM      1  C   UNL d   1      13.597  13.463  -3.173  0.00  0.00     0.161 A 
ATOM      2  C   UNL d   1      14.505  13.165  -1.813  0.00  0.00     0.108 A 
ATOM      3  C   UNL d   1      13.918  12.619  -2.054  0.00  0.00     0.064 A 
ATOM      4  C   UNL d   1      13.469  12.766  -2.726  0.00  0.00     0.222 A 
ATOM      5  C   UNL d   1      14.959  13.017  -1.134  0.00  0.00     0.079 A 
ATOM      6  O   UNL d   1      14.639  13.858  -2.248  0.00  0.00    -0.305 OA
ATOM      7  C   UNL d   1      14.178  14.005  -2.934  0.00  0.00     0.126 A 
ATOM      8  C   UNL d   1      13.798  11.929  -1.604  0.00  0.00     0.009 A 
ATOM      9  C   UNL d   1      14.827  12.326  -0.697  0.00  0.00     0.199 A 
ATOM     10  O   UNL d   1      12.890  12.229  -2.967  0.00  0.00    -0.284 OA
ATOM     11  C   UNL d   1      14.250  11.785  -0.931  0.00  0.00     0.042 A 
ATOM     12  O   UNL d   1      15.285  12.188  -0.022  0.00  0.00    -0.286 OA
ATOM     13  C   UNL d   1      14.304  14.690  -3.373  0.00  0.00     0.029 C 
ENDROOT
BRANCH   1  14
ATOM     14  O   UNL d   1      13.146  13.608  -3.845  0.00  0.00    -0.300 OA
BRANCH  14  15
ATOM     15  C   UNL d   1      13.172  13.081  -4.478  0.00  0.00     0.122 A 
ATOM     16  C   UNL d   1      13.483  13.322  -5.200  0.00  0.00     0.117 A 
ATOM     17  C   UNL d   1      13.509  12.796  -5.833  0.00  0.00     0.026 A 
ATOM     18  C   UNL d   1      13.223  12.027  -5.742  0.00  0.00     0.002 A 
ATOM     19  C   UNL d   1      12.909  11.788  -5.007  0.00  0.00     0.002 A 
ATOM     20  C   UNL d   1      12.885  12.313  -4.382  0.00  0.00     0.027 A 
BRANCH  16  21
ATOM     21  O   UNL d   1      13.768  14.091  -5.291  0.00  0.00    -0.326 OA
ATOM     22  C   UNL d   1      13.244  14.724  -5.296  0.00  0.00     0.181 C 
ENDBRANCH  16  21
ENDBRANCH  14  15
ENDBRANCH   1  14
BRANCH   5  23
ATOM     23  C   UNL d   1      15.536  13.558  -0.900  0.00  0.00     0.086 C 
BRANCH  23  24
ATOM     24  N   UNL d   1      15.359  14.115  -0.327  0.00  0.00    -0.300 N 
ATOM     25  C   UNL d   1      14.596  14.156  -0.014  0.00  0.00     0.100 C 
ATOM     26  C   UNL d   1      15.940  14.639  -0.057  0.00  0.00     0.100 C 
ENDBRANCH  23  24
ENDBRANCH   5  23
TORSDOF 5
ENDMDL
MODEL 2
REMARK VINA RESULT:      41.0      1.454      4.008
REMARK  5 active torsions:
REMARK  status: ('A' for Active; 'I' for Inactive)
REMARK    1  A    between atoms: O_8  and  C_1 
REMARK    2  A    between atoms: C_12  and  C_5 
REMARK    3  A    between atoms: C_10  and  O_8 
REMARK    4  A    between atoms: N_16  and  C_12 
REMARK    5  A    between atoms: O_19  and  C_15 
ROOT
ATOM      1  C   UNL d   1      13.818  12.481  -2.634  0.00  0.00     0.161 A 
ATOM      2  C   UNL d   1      13.651  13.879  -3.517  0.00  0.00     0.108 A 
ATOM      3  C   UNL d   1      13.290  13.171  -3.781  0.00  0.00     0.064 A 
ATOM      4  C   UNL d   1      13.373  12.479  -3.345  0.00  0.00     0.222 A 
ATOM      5  C   UNL d   1      13.567  14.578  -3.959  0.00  0.00     0.079 A 
ATOM      6  O   UNL d   1      14.093  13.891  -2.816  0.00  0.00    -0.305 OA
ATOM      7  C   UNL d   1      14.174  13.183  -2.373  0.00  0.00     0.126 A 
ATOM      8  C   UNL d   1      12.851  13.178  -4.488  0.00  0.00     0.009 A 
ATOM      9  C   UNL d   1      13.127  14.569  -4.659  0.00  0.00     0.199 A 
ATOM     10  O   UNL d   1      13.019  11.779  -3.602  0.00  0.00    -0.284 OA
ATOM     11  C   UNL d   1      12.771  13.873  -4.922  0.00  0.00     0.042 A 
ATOM     12  O   UNL d   1      13.050  15.271  -5.091  0.00  0.00    -0.286 OA
ATOM     13  C   UNL d   1      14.611  13.185  -1.676  0.00  0.00     0.029 C 
ENDROOT
BRANCH   1  14
ATOM     14  O   UNL d   1      13.898  11.787  -2.200  0.00  0.00    -0.300 OA
BRANCH  14  15
ATOM     15  C   UNL d   1      14.345  11.785  -1.509  0.00  0.00     0.122 A 
ATOM     16  C   UNL d   1      13.970  11.782  -0.777  0.00  0.00     0.117 A 
ATOM     17  C   UNL d   1      14.417  11.779  -0.086  0.00  0.00     0.026 A 
ATOM     18  C   UNL d   1      15.241  11.781  -0.127  0.00  0.00     0.002 A 
ATOM     19  C   UNL d   1      15.617  11.784  -0.872  0.00  0.00     0.002 A 
ATOM     20  C   UNL d   1      15.169  11.787  -1.555  0.00  0.00     0.027 A 
BRANCH  16  21
ATOM     21  O   UNL d   1      13.146  11.780  -0.735  0.00  0.00    -0.326 OA
ATOM     22  C   UNL d   1      12.773  11.923  -0.017  0.00  0.00     0.181 C 
ENDBRANCH  16  21
ENDBRANCH  14  15
ENDBRANCH   1  14
BRANCH   5  23
ATOM     23  C   UNL d   1      13.924  15.274  -3.695  0.00  0.00     0.086 C 
BRANCH  23  24
ATOM     24  N   UNL d   1      14.309  15.758  -4.231  0.00  0.00    -0.300 N 
ATOM     25  C   UNL d   1      13.975  16.481  -4.447  0.00  0.00     0.100 C 
ATOM     26  C   UNL d   1      15.033  15.528  -4.560  0.00  0.00     0.100 C 
ENDBRANCH  23  24
ENDBRANCH   5  23
TORSDOF 5
ENDMDL
