MODEL 1
REMARK VINA RESULT:      -2.2      0.000      0.000
REMARK  5 active torsions:
REMARK  status: ('A' for Active; 'I' for Inactive)
REMARK    1  A    between atoms: N_2  and  C_1 
REMARK       I    between atoms: C_7  and  N_2 
REMARK    2  A    between atoms: C_17  and  N_3 
REMARK    3  A    between atoms: C_14  and  C_7 
REMARK       I    between atoms: C_10  and  N_11 
REMARK    4  A    between atoms: N_11  and  C_12 
REMARK    5  A    between atoms: C_16  and  C_17 
ROOT
ATOM      1  C   UNL d   1      32.990  20.670 -22.325  0.00  0.00     0.182 A 
ATOM      2  N   UNL d   1      32.855  20.590 -23.131  0.00  0.00    -0.285 N 
ATOM      3  S   UNL d   1      33.144  19.921 -22.017  0.00  0.00    -0.048 SA
ATOM      4  C   UNL d   1      33.105  19.374 -22.638  0.00  0.00     0.050 A 
ATOM      5  C   UNL d   1      32.925  19.789 -23.330  0.00  0.00     0.072 A 
ATOM      6  C   UNL d   1      33.208  18.557 -22.662  0.00  0.00     0.027 A 
ATOM      7  C   UNL d   1      32.850  19.387 -24.046  0.00  0.00     0.020 A 
ATOM      8  C   UNL d   1      33.133  18.154 -23.378  0.00  0.00     0.085 A 
ATOM      9  C   UNL d   1      32.954  18.569 -24.069  0.00  0.00     0.021 A 
ENDROOT
BRANCH   1  10
ATOM     10  N   UNL d   1      32.971  21.381 -21.904  0.00  0.00    -0.184 NA
ATOM     11  C   UNL d   1      32.753  21.376 -21.109  0.00  0.00     0.281 C 
ATOM     12  O   UNL d   1      32.557  20.665 -20.742  0.00  0.00    -0.265 OA
BRANCH  11  13
ATOM     13  C   UNL d   1      32.733  22.082 -20.681  0.00  0.00     0.058 A 
ATOM     14  C   UNL d   1      32.198  22.689 -20.887  0.00  0.00     0.005 A 
ATOM     15  C   UNL d   1      32.177  23.396 -20.459  0.00  0.00     0.000 A 
ATOM     16  C   UNL d   1      32.690  23.506 -19.819  0.00  0.00     0.000 A 
ATOM     17  C   UNL d   1      33.219  22.906 -19.616  0.00  0.00     0.000 A 
ATOM     18  C   UNL d   1      33.240  22.200 -20.044  0.00  0.00     0.005 A 
ENDBRANCH  11  13
ENDBRANCH   1  10
BRANCH   2  19
ATOM     19  C   UNL d   1      32.679  21.199 -23.661  0.00  0.00     0.082 C 
BRANCH  19  20
ATOM     20  C   UNL d   1      33.238  21.449 -24.213  0.00  0.00     0.019 C 
ATOM     21  C   UNL d   1      33.106  22.129 -24.657  0.00  0.00     0.002 C 
ENDBRANCH  19  20
ENDBRANCH   2  19
BRANCH   8  22
ATOM     22  N   UNL d   1      33.238  17.324 -23.404  0.00  0.00    -0.208 NA
ATOM     23  C   UNL d   1      32.586  16.834 -23.456  0.00  0.00     0.279 C 
ATOM     24  O   UNL d   1      32.692  16.017 -23.483  0.00  0.00    -0.265 OA
ATOM     25  C   UNL d   1      31.821  17.146 -23.482  0.00  0.00     0.068 C 
ENDBRANCH   8  22
TORSDOF 5
ENDMDL
MODEL 2
REMARK VINA RESULT:      -1.5      1.236      4.794
REMARK  5 active torsions:
REMARK  status: ('A' for Active; 'I' for Inactive)
REMARK    1  A    between atoms: N_2  and  C_1 
REMARK       I    between atoms: C_7  and  N_2 
REMARK    2  A    between atoms: C_17  and  N_3 
REMARK    3  A    between atoms: C_14  and  C_7 
REMARK       I    between atoms: C_10  and  N_11 
REMARK    4  A    between atoms: N_11  and  C_12 
REMARK    5  A    between atoms: C_16  and  C_17 
ROOT
ATOM      1  C   UNL d   1      33.166  20.768 -22.775  0.00  0.00     0.182 A 
ATOM      2  N   UNL d   1      33.206  21.560 -22.988  0.00  0.00    -0.285 N 
ATOM      3  S   UNL d   1      33.141  20.727 -21.952  0.00  0.00    -0.048 SA
ATOM      4  C   UNL d   1      33.166  21.501 -21.655  0.00  0.00     0.050 A 
ATOM      5  C   UNL d   1      33.206  22.018 -22.298  0.00  0.00     0.072 A 
ATOM      6  C   UNL d   1      33.157  21.797 -20.886  0.00  0.00     0.027 A 
ATOM      7  C   UNL d   1      33.238  22.832 -22.173  0.00  0.00     0.020 A 
ATOM      8  C   UNL d   1      33.188  22.612 -20.760  0.00  0.00     0.085 A 
ATOM      9  C   UNL d   1      33.229  23.129 -21.403  0.00  0.00     0.021 A 
ENDROOT
BRANCH   1  10
ATOM     10  N   UNL d   1      33.153  20.130 -23.300  0.00  0.00    -0.184 NA
ATOM     11  C   UNL d   1      32.863  19.401 -23.045  0.00  0.00     0.281 C 
ATOM     12  O   UNL d   1      32.590  19.316 -22.273  0.00  0.00    -0.265 OA
BRANCH  11  13
ATOM     13  C   UNL d   1      32.847  18.759 -23.564  0.00  0.00     0.058 A 
ATOM     14  C   UNL d   1      32.443  18.809 -24.293  0.00  0.00     0.005 A 
ATOM     15  C   UNL d   1      32.427  18.167 -24.811  0.00  0.00     0.000 A 
ATOM     16  C   UNL d   1      32.814  17.463 -24.609  0.00  0.00     0.000 A 
ATOM     17  C   UNL d   1      33.213  17.413 -23.889  0.00  0.00     0.000 A 
ATOM     18  C   UNL d   1      33.229  18.056 -23.371  0.00  0.00     0.005 A 
ENDBRANCH  11  13
ENDBRANCH   1  10
BRANCH   2  19
ATOM     19  C   UNL d   1      33.241  21.859 -23.758  0.00  0.00     0.082 C 
BRANCH  19  20
ATOM     20  C   UNL d   1      32.624  22.315 -24.059  0.00  0.00     0.019 C 
ATOM     21  C   UNL d   1      32.683  22.647 -24.810  0.00  0.00     0.002 C 
ENDBRANCH  19  20
ENDBRANCH   2  19
BRANCH   8  22
ATOM     22  N   UNL d   1      33.179  22.916 -19.980  0.00  0.00    -0.208 NA
ATOM     23  C   UNL d   1      32.560  23.390 -19.737  0.00  0.00     0.279 C 
ATOM     24  O   UNL d   1      32.553  23.688 -18.969  0.00  0.00    -0.265 OA
ATOM     25  C   UNL d   1      31.940  23.575 -20.250  0.00  0.00     0.068 C 
ENDBRANCH   8  22
TORSDOF 5
ENDMDL
