MODEL 1
REMARK VINA RESULT:      -2.6      0.000      0.000
REMARK  3 active torsions:
REMARK  status: ('A' for Active; 'I' for Inactive)
REMARK    1  A    between atoms: C_6  and  C_1 
REMARK    2  A    between atoms: C_7  and  C_4 
REMARK    3  A    between atoms: O_14  and  C_6 
ROOT
ATOM      1  C   UNL d   1      32.716  23.156 -18.526  0.00  0.00     0.167 A 
ATOM      2  C   UNL d   1      32.379  23.691 -19.064  0.00  0.00     0.047 A 
ATOM      3  N   UNL d   1      33.241  22.400 -19.601  0.00  0.00    -0.148 NA
ATOM      4  C   UNL d   1      32.908  22.930 -20.139  0.00  0.00     0.105 A 
ATOM      5  N   UNL d   1      33.148  22.508 -18.793  0.00  0.00    -0.143 NA
ENDROOT
BRANCH   4   6
ATOM      6  C   UNL d   1      32.888  22.995 -20.960  0.00  0.00     0.019 A 
ATOM      7  C   UNL d   1      32.513  22.410 -21.405  0.00  0.00     0.002 A 
ATOM      8  C   UNL d   1      32.492  22.474 -22.225  0.00  0.00     0.000 A 
ATOM      9  C   UNL d   1      32.162  21.767 -21.036  0.00  0.00     0.000 C 
ATOM     10  C   UNL d   1      32.847  23.123 -22.601  0.00  0.00     0.000 A 
ATOM     11  C   UNL d   1      33.219  23.702 -22.149  0.00  0.00     0.000 A 
ATOM     12  C   UNL d   1      32.825  23.185 -23.424  0.00  0.00     0.000 C 
ATOM     13  C   UNL d   1      33.240  23.641 -21.332  0.00  0.00     0.002 A 
ENDBRANCH   4   6
BRANCH   1  14
ATOM     14  C   UNL d   1      32.614  23.276 -17.714  0.00  0.00     0.316 C 
ATOM     15  O   UNL d   1      31.902  23.575 -17.431  0.00  0.00    -0.257 OA
BRANCH  14  16
ATOM     16  O   UNL d   1      33.221  23.099 -17.192  0.00  0.00    -0.294 OA
ATOM     17  C   UNL d   1      33.162  23.324 -16.367  0.00  0.00     0.185 C 
ENDBRANCH  14  16
ENDBRANCH   1  14
TORSDOF 3
ENDMDL
MODEL 2
REMARK VINA RESULT:      -2.4      3.222      4.093
REMARK  3 active torsions:
REMARK  status: ('A' for Active; 'I' for Inactive)
REMARK    1  A    between atoms: C_6  and  C_1 
REMARK    2  A    between atoms: C_7  and  C_4 
REMARK    3  A    between atoms: O_14  and  C_6 
ROOT
ATOM      1  C   UNL d   1      32.703  21.490 -21.446  0.00  0.00     0.167 A 
ATOM      2  C   UNL d   1      32.470  20.713 -21.271  0.00  0.00     0.047 A 
ATOM      3  N   UNL d   1      33.240  21.053 -22.680  0.00  0.00    -0.148 NA
ATOM      4  C   UNL d   1      33.009  20.279 -22.509  0.00  0.00     0.105 A 
ATOM      5  N   UNL d   1      33.089  21.663 -22.152  0.00  0.00    -0.143 NA
ENDROOT
BRANCH   4   6
ATOM      6  C   UNL d   1      33.066  19.553 -22.894  0.00  0.00     0.019 A 
ATOM      7  C   UNL d   1      33.175  19.534 -23.712  0.00  0.00     0.002 A 
ATOM      8  C   UNL d   1      33.232  18.808 -24.097  0.00  0.00     0.000 A 
ATOM      9  C   UNL d   1      33.227  20.230 -24.141  0.00  0.00     0.000 C 
ATOM     10  C   UNL d   1      33.180  18.102 -23.664  0.00  0.00     0.000 A 
ATOM     11  C   UNL d   1      33.071  18.131 -22.849  0.00  0.00     0.000 A 
ATOM     12  C   UNL d   1      33.238  17.376 -24.053  0.00  0.00     0.000 C 
ATOM     13  C   UNL d   1      33.014  18.851 -22.463  0.00  0.00     0.002 A 
ENDBRANCH   4   6
BRANCH   1  14
ATOM     14  C   UNL d   1      32.545  22.095 -20.905  0.00  0.00     0.316 C 
ATOM     15  O   UNL d   1      31.804  22.451 -20.895  0.00  0.00    -0.257 OA
BRANCH  14  16
ATOM     16  O   UNL d   1      33.125  22.340 -20.380  0.00  0.00    -0.294 OA
ATOM     17  C   UNL d   1      32.915  22.797 -19.686  0.00  0.00     0.185 C 
ENDBRANCH  14  16
ENDBRANCH   1  14
TORSDOF 3
ENDMDL
MODEL 3
REMARK VINA RESULT:      -2.4      7.052      8.259
REMARK  3 active torsions:
REMARK  status: ('A' for Active; 'I' for Inactive)
REMARK    1  A    between atoms: C_6  and  C_1 
REMARK    2  A    between atoms: C_7  and  C_4 
REMARK    3  A    between atoms: O_14  and  C_6 
ROOT
ATOM      1  C   UNL d   1      29.416  16.190 -24.443  0.00  0.00     0.167 A 
ATOM      2  C   UNL d   1      29.445  17.006 -24.293  0.00  0.00     0.047 A 
ATOM      3  N   UNL d   1      30.816  16.174 -24.648  0.00  0.00    -0.148 NA
ATOM      4  C   UNL d   1      30.849  16.986 -24.500  0.00  0.00     0.105 A 
ATOM      5  N   UNL d   1      30.102  15.771 -24.620  0.00  0.00    -0.143 NA
ENDROOT
BRANCH   4   6
ATOM      6  C   UNL d   1      31.446  17.554 -24.479  0.00  0.00     0.019 A 
ATOM      7  C   UNL d   1      31.971  17.569 -23.842  0.00  0.00     0.002 A 
ATOM      8  C   UNL d   1      32.567  18.135 -23.821  0.00  0.00     0.000 A 
ATOM      9  C   UNL d   1      31.901  17.024 -23.233  0.00  0.00     0.000 C 
ATOM     10  C   UNL d   1      32.640  18.687 -24.437  0.00  0.00     0.000 A 
ATOM     11  C   UNL d   1      32.111  18.664 -25.068  0.00  0.00     0.000 A 
ATOM     12  C   UNL d   1      33.239  19.254 -24.413  0.00  0.00     0.000 C 
ATOM     13  C   UNL d   1      31.517  18.101 -25.092  0.00  0.00     0.002 A 
ENDBRANCH   4   6
BRANCH   1  14
ATOM     14  C   UNL d   1      28.690  15.795 -24.412  0.00  0.00     0.316 C 
ATOM     15  O   UNL d   1      28.375  15.464 -25.096  0.00  0.00    -0.257 OA
BRANCH  14  16
ATOM     16  O   UNL d   1      28.284  15.735 -23.702  0.00  0.00    -0.294 OA
ATOM     17  C   UNL d   1      27.472  15.461 -23.691  0.00  0.00     0.185 C 
ENDBRANCH  14  16
ENDBRANCH   1  14
TORSDOF 3
ENDMDL
MODEL 4
REMARK VINA RESULT:      -2.1      4.179      5.415
REMARK  3 active torsions:
REMARK  status: ('A' for Active; 'I' for Inactive)
REMARK    1  A    between atoms: C_6  and  C_1 
REMARK    2  A    between atoms: C_7  and  C_4 
REMARK    3  A    between atoms: O_14  and  C_6 
ROOT
ATOM      1  C   UNL d   1      32.761  18.496 -23.230  0.00  0.00     0.167 A 
ATOM      2  C   UNL d   1      32.510  19.201 -23.591  0.00  0.00     0.047 A 
ATOM      3  N   UNL d   1      33.239  19.232 -22.120  0.00  0.00    -0.148 NA
ATOM      4  C   UNL d   1      32.991  19.935 -22.476  0.00  0.00     0.105 A 
ATOM      5  N   UNL d   1      33.126  18.510 -22.493  0.00  0.00    -0.143 NA
ENDROOT
BRANCH   4   6
ATOM      6  C   UNL d   1      33.012  20.733 -22.272  0.00  0.00     0.019 A 
ATOM      7  C   UNL d   1      32.821  20.961 -21.502  0.00  0.00     0.002 A 
ATOM      8  C   UNL d   1      32.842  21.758 -21.298  0.00  0.00     0.000 A 
ATOM      9  C   UNL d   1      32.613  20.400 -20.941  0.00  0.00     0.000 C 
ATOM     10  C   UNL d   1      33.053  22.327 -21.864  0.00  0.00     0.000 A 
ATOM     11  C   UNL d   1      33.241  22.090 -22.629  0.00  0.00     0.000 A 
ATOM     12  C   UNL d   1      33.073  23.126 -21.656  0.00  0.00     0.000 C 
ATOM     13  C   UNL d   1      33.221  21.298 -22.835  0.00  0.00     0.002 A 
ENDBRANCH   4   6
BRANCH   1  14
ATOM     14  C   UNL d   1      32.641  17.775 -23.617  0.00  0.00     0.316 C 
ATOM     15  O   UNL d   1      33.128  17.562 -24.244  0.00  0.00    -0.257 OA
BRANCH  14  16
ATOM     16  O   UNL d   1      32.038  17.275 -23.376  0.00  0.00    -0.294 OA
ATOM     17  C   UNL d   1      31.739  16.672 -23.908  0.00  0.00     0.185 C 
ENDBRANCH  14  16
ENDBRANCH   1  14
TORSDOF 3
ENDMDL
MODEL 5
REMARK VINA RESULT:      -1.5      1.747      2.270
REMARK  3 active torsions:
REMARK  status: ('A' for Active; 'I' for Inactive)
REMARK    1  A    between atoms: C_6  and  C_1 
REMARK    2  A    between atoms: C_7  and  C_4 
REMARK    3  A    between atoms: O_14  and  C_6 
ROOT
ATOM      1  C   UNL d   1      32.708  22.545 -19.863  0.00  0.00     0.167 A 
ATOM      2  C   UNL d   1      33.241  21.916 -19.959  0.00  0.00     0.047 A 
ATOM      3  N   UNL d   1      32.145  22.264 -21.130  0.00  0.00    -0.148 NA
ATOM      4  C   UNL d   1      32.673  21.637 -21.229  0.00  0.00     0.105 A 
ATOM      5  N   UNL d   1      32.158  22.721 -20.449  0.00  0.00    -0.143 NA
ENDROOT
BRANCH   4   6
ATOM      6  C   UNL d   1      32.815  21.079 -21.818  0.00  0.00     0.019 A 
ATOM      7  C   UNL d   1      32.712  20.277 -21.652  0.00  0.00     0.002 A 
ATOM      8  C   UNL d   1      32.854  19.719 -22.240  0.00  0.00     0.000 A 
ATOM      9  C   UNL d   1      32.469  20.034 -20.907  0.00  0.00     0.000 C 
ATOM     10  C   UNL d   1      33.099  19.962 -22.994  0.00  0.00     0.000 A 
ATOM     11  C   UNL d   1      33.200  20.764 -23.150  0.00  0.00     0.000 A 
ATOM     12  C   UNL d   1      33.241  19.400 -23.582  0.00  0.00     0.000 C 
ATOM     13  C   UNL d   1      33.059  21.322 -22.567  0.00  0.00     0.002 A 
ENDBRANCH   4   6
BRANCH   1  14
ATOM     14  C   UNL d   1      32.733  22.998 -19.172  0.00  0.00     0.316 C 
ATOM     15  O   UNL d   1      32.297  23.694 -19.124  0.00  0.00    -0.257 OA
BRANCH  14  16
ATOM     16  O   UNL d   1      33.189  22.755 -18.536  0.00  0.00    -0.294 OA
ATOM     17  C   UNL d   1      33.212  23.220 -17.817  0.00  0.00     0.185 C 
ENDBRANCH  14  16
ENDBRANCH   1  14
TORSDOF 3
ENDMDL
MODEL 6
REMARK VINA RESULT:      -1.5      4.658      5.677
REMARK  3 active torsions:
REMARK  status: ('A' for Active; 'I' for Inactive)
REMARK    1  A    between atoms: C_6  and  C_1 
REMARK    2  A    between atoms: C_7  and  C_4 
REMARK    3  A    between atoms: O_14  and  C_6 
ROOT
ATOM      1  C   UNL d   1      33.126  20.061 -22.223  0.00  0.00     0.167 A 
ATOM      2  C   UNL d   1      33.209  19.310 -21.878  0.00  0.00     0.047 A 
ATOM      3  N   UNL d   1      32.988  19.463 -23.498  0.00  0.00    -0.148 NA
ATOM      4  C   UNL d   1      33.071  18.715 -23.159  0.00  0.00     0.105 A 
ATOM      5  N   UNL d   1      33.015  20.140 -23.035  0.00  0.00    -0.143 NA
ENDROOT
BRANCH   4   6
ATOM      6  C   UNL d   1      33.073  17.941 -23.442  0.00  0.00     0.019 A 
ATOM      7  C   UNL d   1      32.907  17.799 -24.238  0.00  0.00     0.002 A 
ATOM      8  C   UNL d   1      32.909  17.026 -24.521  0.00  0.00     0.000 A 
ATOM      9  C   UNL d   1      32.741  18.421 -24.746  0.00  0.00     0.000 C 
ATOM     10  C   UNL d   1      33.077  16.396 -24.009  0.00  0.00     0.000 A 
ATOM     11  C   UNL d   1      33.241  16.547 -23.216  0.00  0.00     0.000 A 
ATOM     12  C   UNL d   1      33.078  15.621 -24.296  0.00  0.00     0.000 C 
ATOM     13  C   UNL d   1      33.240  17.315 -22.932  0.00  0.00     0.002 A 
ENDBRANCH   4   6
BRANCH   1  14
ATOM     14  C   UNL d   1      33.154  20.735 -21.744  0.00  0.00     0.316 C 
ATOM     15  O   UNL d   1      33.116  20.657 -20.927  0.00  0.00    -0.257 OA
BRANCH  14  16
ATOM     16  O   UNL d   1      33.221  21.478 -22.083  0.00  0.00    -0.294 OA
ATOM     17  C   UNL d   1      33.166  22.181 -21.596  0.00  0.00     0.185 C 
ENDBRANCH  14  16
ENDBRANCH   1  14
TORSDOF 3
ENDMDL
MODEL 7
REMARK VINA RESULT:      -1.4      5.281      6.446
REMARK  3 active torsions:
REMARK  status: ('A' for Active; 'I' for Inactive)
REMARK    1  A    between atoms: C_6  and  C_1 
REMARK    2  A    between atoms: C_7  and  C_4 
REMARK    3  A    between atoms: O_14  and  C_6 
ROOT
ATOM      1  C   UNL d   1      32.702  19.345 -22.814  0.00  0.00     0.167 A 
ATOM      2  C   UNL d   1      31.885  19.216 -22.887  0.00  0.00     0.047 A 
ATOM      3  N   UNL d   1      32.957  18.100 -23.436  0.00  0.00    -0.148 NA
ATOM      4  C   UNL d   1      32.145  17.968 -23.511  0.00  0.00     0.105 A 
ATOM      5  N   UNL d   1      33.241  18.787 -23.088  0.00  0.00    -0.143 NA
ENDROOT
BRANCH   4   6
ATOM      6  C   UNL d   1      31.677  17.364 -23.819  0.00  0.00     0.019 A 
ATOM      7  C   UNL d   1      31.355  17.445 -24.574  0.00  0.00     0.002 A 
ATOM      8  C   UNL d   1      30.887  16.843 -24.883  0.00  0.00     0.000 A 
ATOM      9  C   UNL d   1      31.498  18.120 -25.018  0.00  0.00     0.000 C 
ATOM     10  C   UNL d   1      30.740  16.159 -24.436  0.00  0.00     0.000 A 
ATOM     11  C   UNL d   1      31.066  16.087 -23.683  0.00  0.00     0.000 A 
ATOM     12  C   UNL d   1      30.270  15.556 -24.748  0.00  0.00     0.000 C 
ATOM     13  C   UNL d   1      31.532  16.685 -23.374  0.00  0.00     0.002 A 
ENDBRANCH   4   6
BRANCH   1  14
ATOM     14  C   UNL d   1      32.974  20.042 -22.461  0.00  0.00     0.316 C 
ATOM     15  O   UNL d   1      33.186  20.041 -21.667  0.00  0.00    -0.257 OA
BRANCH  14  16
ATOM     16  O   UNL d   1      33.032  20.730 -22.902  0.00  0.00    -0.294 OA
ATOM     17  C   UNL d   1      33.241  21.470 -22.522  0.00  0.00     0.185 C 
ENDBRANCH  14  16
ENDBRANCH   1  14
TORSDOF 3
ENDMDL
MODEL 8
REMARK VINA RESULT:      -1.2      7.556      8.766
REMARK  3 active torsions:
REMARK  status: ('A' for Active; 'I' for Inactive)
REMARK    1  A    between atoms: C_6  and  C_1 
REMARK    2  A    between atoms: C_7  and  C_4 
REMARK    3  A    between atoms: O_14  and  C_6 
ROOT
ATOM      1  C   UNL d   1      28.612  16.117 -23.510  0.00  0.00     0.167 A 
ATOM      2  C   UNL d   1      28.924  16.467 -24.194  0.00  0.00     0.047 A 
ATOM      3  N   UNL d   1      29.909  15.702 -23.126  0.00  0.00    -0.148 NA
ATOM      4  C   UNL d   1      30.224  16.050 -23.807  0.00  0.00     0.105 A 
ATOM      5  N   UNL d   1      29.103  15.733 -22.973  0.00  0.00    -0.143 NA
ENDROOT
BRANCH   4   6
ATOM      6  C   UNL d   1      30.978  16.125 -24.130  0.00  0.00     0.019 A 
ATOM      7  C   UNL d   1      31.450  16.767 -23.914  0.00  0.00     0.002 A 
ATOM      8  C   UNL d   1      32.203  16.842 -24.237  0.00  0.00     0.000 A 
ATOM      9  C   UNL d   1      31.174  17.327 -23.383  0.00  0.00     0.000 C 
ATOM     10  C   UNL d   1      32.485  16.277 -24.775  0.00  0.00     0.000 A 
ATOM     11  C   UNL d   1      32.006  15.640 -24.984  0.00  0.00     0.000 A 
ATOM     12  C   UNL d   1      33.241  16.355 -25.097  0.00  0.00     0.000 C 
ATOM     13  C   UNL d   1      31.256  15.562 -24.664  0.00  0.00     0.002 A 
ENDBRANCH   4   6
BRANCH   1  14
ATOM     14  C   UNL d   1      27.798  16.155 -23.368  0.00  0.00     0.316 C 
ATOM     15  O   UNL d   1      27.457  16.865 -23.132  0.00  0.00    -0.257 OA
BRANCH  14  16
ATOM     16  O   UNL d   1      27.332  15.488 -23.462  0.00  0.00    -0.294 OA
ATOM     17  C   UNL d   1      26.477  15.549 -23.428  0.00  0.00     0.185 C 
ENDBRANCH  14  16
ENDBRANCH   1  14
TORSDOF 3
ENDMDL
MODEL 9
REMARK VINA RESULT:      -1.2      1.054      1.644
REMARK  3 active torsions:
REMARK  status: ('A' for Active; 'I' for Inactive)
REMARK    1  A    between atoms: C_6  and  C_1 
REMARK    2  A    between atoms: C_7  and  C_4 
REMARK    3  A    between atoms: O_14  and  C_6 
ROOT
ATOM      1  C   UNL d   1      32.705  22.939 -20.114  0.00  0.00     0.167 A 
ATOM      2  C   UNL d   1      32.547  23.531 -20.675  0.00  0.00     0.047 A 
ATOM      3  N   UNL d   1      33.133  22.072 -21.147  0.00  0.00    -0.148 NA
ATOM      4  C   UNL d   1      32.977  22.659 -21.708  0.00  0.00     0.105 A 
ATOM      5  N   UNL d   1      32.998  22.208 -20.349  0.00  0.00    -0.143 NA
ENDROOT
BRANCH   4   6
ATOM      6  C   UNL d   1      33.043  22.718 -22.527  0.00  0.00     0.019 A 
ATOM      7  C   UNL d   1      33.141  22.033 -22.977  0.00  0.00     0.002 A 
ATOM      8  C   UNL d   1      33.206  22.091 -23.795  0.00  0.00     0.000 A 
ATOM      9  C   UNL d   1      33.172  21.298 -22.615  0.00  0.00     0.000 C 
ATOM     10  C   UNL d   1      33.175  22.834 -24.163  0.00  0.00     0.000 A 
ATOM     11  C   UNL d   1      33.077  23.512 -23.706  0.00  0.00     0.000 A 
ATOM     12  C   UNL d   1      33.241  22.890 -24.985  0.00  0.00     0.000 C 
ATOM     13  C   UNL d   1      33.012  23.457 -22.892  0.00  0.00     0.002 A 
ENDBRANCH   4   6
BRANCH   1  14
ATOM     14  C   UNL d   1      32.564  23.089 -19.313  0.00  0.00     0.316 C 
ATOM     15  O   UNL d   1      31.861  23.445 -19.081  0.00  0.00    -0.257 OA
BRANCH  14  16
ATOM     16  O   UNL d   1      33.125  22.882 -18.752  0.00  0.00    -0.294 OA
ATOM     17  C   UNL d   1      33.093  23.221 -17.965  0.00  0.00     0.185 C 
ENDBRANCH  14  16
ENDBRANCH   1  14
TORSDOF 3
ENDMDL
