MODEL 1
REMARK VINA RESULT:      19.9      0.000      0.000
REMARK  1 active torsions:
REMARK  status: ('A' for Active; 'I' for Inactive)
REMARK    1  A    between atoms: C_7  and  C_2 
ROOT
ATOM      1  N   UNL d   1      15.143  13.200  -2.150  0.00  0.00    -0.147 NA
ATOM      2  C   UNL d   1      14.434  12.785  -2.137  0.00  0.00     0.103 A 
ATOM      3  N   UNL d   1      15.551  13.323  -1.453  0.00  0.00    -0.137 NA
ATOM      4  C   UNL d   1      14.124  12.490  -1.429  0.00  0.00     0.022 A 
ATOM      5  C   UNL d   1      15.248  13.031  -0.743  0.00  0.00     0.157 A 
ATOM      6  C   UNL d   1      14.531  12.613  -0.732  0.00  0.00     0.031 A 
ATOM      7  S   UNL d   1      15.672  13.159  -0.019  0.00  0.00    -0.056 SA
ATOM      8  C   UNL d   1      13.411  12.073  -1.414  0.00  0.00     0.002 A 
ATOM      9  C   UNL d   1      14.225  12.319  -0.020  0.00  0.00     0.002 A 
ATOM     10  C   UNL d   1      13.109  11.783  -0.712  0.00  0.00     0.000 A 
ATOM     11  C   UNL d   1      13.516  11.906  -0.014  0.00  0.00     0.000 A 
ENDROOT
BRANCH   2  12
ATOM     12  C   UNL d   1      14.010  12.658  -2.862  0.00  0.00     0.019 A 
ATOM     13  C   UNL d   1      13.626  13.294  -3.231  0.00  0.00     0.002 A 
ATOM     14  C   UNL d   1      13.216  13.170  -3.933  0.00  0.00     0.000 A 
ATOM     15  C   UNL d   1      13.190  12.410  -4.265  0.00  0.00     0.000 A 
ATOM     16  C   UNL d   1      13.573  11.780  -3.896  0.00  0.00     0.000 A 
ATOM     17  C   UNL d   1      12.772  12.284  -4.980  0.00  0.00     0.000 C 
ATOM     18  C   UNL d   1      13.983  11.903  -3.194  0.00  0.00     0.002 A 
ENDBRANCH   2  12
TORSDOF 1
ENDMDL
