MODEL 1
REMARK VINA RESULT:     139.3      0.000      0.000
REMARK  4 active torsions:
REMARK  status: ('A' for Active; 'I' for Inactive)
REMARK    1  A    between atoms: N_6  and  C_1 
REMARK       I    between atoms: C_9  and  N_6 
REMARK    2  A    between atoms: C_15  and  C_9 
REMARK    3  A    between atoms: C_13  and  C_16 
REMARK    4  A    between atoms: C_19  and  C_13 
ROOT
ATOM      1  C   UNL d   1      61.500  44.773  50.825  0.00  0.00     0.123 A 
ATOM      2  C   UNL d   1      61.578  44.182  51.395  0.00  0.00     0.092 A 
ATOM      3  C   UNL d   1      61.948  43.541  51.041  0.00  0.00     0.013 A 
ATOM      4  C   UNL d   1      62.100  43.726  50.262  0.00  0.00     0.029 A 
ATOM      5  S   UNL d   1      61.823  44.492  50.118  0.00  0.00    -0.070 SA
ATOM      6  C   UNL d   1      62.473  43.177  49.764  0.00  0.00     0.104 A 
ATOM      7  N   UNL d   1      62.692  42.441  50.060  0.00  0.00    -0.294 NA
ATOM      8  C   UNL d   1      61.326  44.240  52.173  0.00  0.00     0.103 C 
ATOM      9  C   UNL d   1      62.538  42.254  50.851  0.00  0.00     0.099 A 
ATOM     10  C   UNL d   1      62.165  42.803  51.345  0.00  0.00    -0.004 A 
ATOM     11  N   UNL d   1      61.078  44.291  52.945  0.00  0.00    -0.191 NA
ATOM     12  C   UNL d   1      62.340  43.835  49.286  0.00  0.00     0.029 C 
ATOM     13  C   UNL d   1      62.825  42.777  49.130  0.00  0.00     0.029 C 
ATOM     14  C   UNL d   1      62.909  41.702  50.365  0.00  0.00     0.029 C 
ATOM     15  C   UNL d   1      62.383  42.067  51.642  0.00  0.00     0.029 C 
ENDROOT
BRANCH   1  16
ATOM     16  N   UNL d   1      61.158  45.519  50.934  0.00  0.00    -0.201 NA
ATOM     17  C   UNL d   1      61.482  46.181  50.563  0.00  0.00     0.280 C 
ATOM     18  O   UNL d   1      62.145  46.105  50.083  0.00  0.00    -0.265 OA
BRANCH  17  19
ATOM     19  C   UNL d   1      61.146  46.915  50.671  0.00  0.00     0.058 A 
ATOM     20  C   UNL d   1      60.481  46.999  51.153  0.00  0.00     0.005 A 
ATOM     21  C   UNL d   1      60.139  47.745  51.263  0.00  0.00     0.003 A 
ATOM     22  C   UNL d   1      60.463  48.406  50.891  0.00  0.00     0.039 A 
ATOM     23  C   UNL d   1      61.119  48.318  50.416  0.00  0.00     0.003 A 
ATOM     24  C   UNL d   1      61.460  47.572  50.306  0.00  0.00     0.005 A 
BRANCH  22  25
ATOM     25  C   UNL d   1      60.120  49.147  51.003  0.00  0.00     0.196 C 
ATOM     26  O   UNL d   1      60.494  49.706  51.468  0.00  0.00    -0.287 OA
BRANCH  25  27
ATOM     27  C   UNL d   1      59.401  49.323  50.645  0.00  0.00     0.039 A 
ATOM     28  C   UNL d   1      58.705  49.305  51.075  0.00  0.00     0.003 A 
ATOM     29  C   UNL d   1      57.986  49.480  50.717  0.00  0.00     0.000 A 
ATOM     30  C   UNL d   1      57.967  49.677  49.914  0.00  0.00     0.000 A 
ATOM     31  C   UNL d   1      58.667  49.696  49.476  0.00  0.00     0.000 A 
ATOM     32  C   UNL d   1      59.382  49.519  49.842  0.00  0.00     0.003 A 
ENDBRANCH  25  27
ENDBRANCH  22  25
ENDBRANCH  17  19
ENDBRANCH   1  16
TORSDOF 4
ENDMDL
