MODEL 1
REMARK VINA RESULT:      -4.1      0.000      0.000
REMARK  6 active torsions:
REMARK  status: ('A' for Active; 'I' for Inactive)
REMARK       I    between atoms: C_3  and  N_1 
REMARK    1  A    between atoms: C_8  and  C_3 
REMARK    2  A    between atoms: S_4  and  N_9 
REMARK    3  A    between atoms: C_24  and  S_4 
REMARK    4  A    between atoms: C_10  and  C_5 
REMARK    5  A    between atoms: C_11  and  C_6 
REMARK    6  A    between atoms: N_9  and  C_23 
ROOT
ATOM      1  N   UNL d   1     -40.642  14.422  20.389  0.00  0.00    -0.193 N 
ATOM      2  N   UNL d   1     -41.394  14.072  20.247  0.00  0.00    -0.163 NA
ATOM      3  C   UNL d   1     -40.104  14.655  19.810  0.00  0.00     0.303 C 
ATOM      4  C   UNL d   1     -40.531  14.491  21.182  0.00  0.00     0.088 A 
ATOM      5  C   UNL d   1     -41.737  13.932  20.981  0.00  0.00     0.103 A 
ATOM      6  C   UNL d   1     -41.208  14.190  21.570  0.00  0.00     0.040 A 
ATOM      7  O   UNL d   1     -39.388  14.990  20.026  0.00  0.00    -0.263 OA
ENDROOT
BRANCH   5   8
ATOM      8  C   UNL d   1     -42.469  13.600  21.140  0.00  0.00     0.019 A 
ATOM      9  C   UNL d   1     -42.536  12.776  21.193  0.00  0.00     0.003 A 
ATOM     10  C   UNL d   1     -43.260  12.439  21.350  0.00  0.00     0.020 A 
ATOM     11  C   UNL d   1     -43.928  12.914  21.457  0.00  0.00     0.094 A 
ATOM     12  C   UNL d   1     -43.860  13.734  21.404  0.00  0.00     0.020 A 
ATOM     13  C   UNL d   1     -43.129  14.078  21.245  0.00  0.00     0.003 A 
BRANCH  11  14
ATOM     14  N   UNL d   1     -44.672  12.581  21.618  0.00  0.00    -0.158 NA
BRANCH  14  15
ATOM     15  S   UNL d   1     -44.962  12.585  22.378  0.00  0.00     0.286 S 
ATOM     16  O   UNL d   1     -44.341  12.088  22.621  0.00  0.00    -0.198 OA
ATOM     17  O   UNL d   1     -45.269  12.595  23.160  0.00  0.00    -0.198 OA
BRANCH  15  18
ATOM     18  C   UNL d   1     -45.584  13.082  22.137  0.00  0.00     0.117 C 
ATOM     19  C   UNL d   1     -46.318  13.035  22.499  0.00  0.00     0.014 C 
ENDBRANCH  15  18
ENDBRANCH  14  15
ENDBRANCH  11  14
ENDBRANCH   5   8
BRANCH   4  20
ATOM     20  C   UNL d   1     -39.892  14.795  21.572  0.00  0.00     0.018 A 
ATOM     21  C   UNL d   1     -39.254  14.315  21.783  0.00  0.00     0.002 A 
ATOM     22  C   UNL d   1     -38.598  14.626  22.184  0.00  0.00     0.000 A 
ATOM     23  C   UNL d   1     -38.586  15.437  22.374  0.00  0.00     0.000 A 
ATOM     24  C   UNL d   1     -39.225  15.922  22.163  0.00  0.00     0.000 A 
ATOM     25  C   UNL d   1     -37.941  15.759  22.771  0.00  0.00     0.000 C 
ATOM     26  C   UNL d   1     -39.874  15.605  21.764  0.00  0.00     0.002 A 
ENDBRANCH   4  20
BRANCH   3  27
ATOM     27  C   UNL d   1     -40.293  14.549  19.014  0.00  0.00     0.158 A 
ATOM     28  O   UNL d   1     -40.169  13.856  18.582  0.00  0.00    -0.300 OA
ATOM     29  C   UNL d   1     -40.434  13.990  17.816  0.00  0.00     0.123 A 
ATOM     30  C   UNL d   1     -40.721  14.765  17.774  0.00  0.00     0.029 A 
ATOM     31  C   UNL d   1     -40.631  15.105  18.517  0.00  0.00     0.032 A 
ENDBRANCH   3  27
TORSDOF 6
ENDMDL
MODEL 2
REMARK VINA RESULT:      -2.7      1.840      6.185
REMARK  6 active torsions:
REMARK  status: ('A' for Active; 'I' for Inactive)
REMARK       I    between atoms: C_3  and  N_1 
REMARK    1  A    between atoms: C_8  and  C_3 
REMARK    2  A    between atoms: S_4  and  N_9 
REMARK    3  A    between atoms: C_24  and  S_4 
REMARK    4  A    between atoms: C_10  and  C_5 
REMARK    5  A    between atoms: C_11  and  C_6 
REMARK    6  A    between atoms: N_9  and  C_23 
ROOT
ATOM      1  N   UNL d   1     -44.946  12.274  22.576  0.00  0.00    -0.193 N 
ATOM      2  N   UNL d   1     -44.143  12.267  22.324  0.00  0.00    -0.163 NA
ATOM      3  C   UNL d   1     -45.308  11.699  23.042  0.00  0.00     0.303 C 
ATOM      4  C   UNL d   1     -45.304  12.933  22.290  0.00  0.00     0.088 A 
ATOM      5  C   UNL d   1     -44.026  12.945  21.874  0.00  0.00     0.103 A 
ATOM      6  C   UNL d   1     -44.743  13.367  21.847  0.00  0.00     0.040 A 
ATOM      7  O   UNL d   1     -46.097  11.774  23.248  0.00  0.00    -0.263 OA
ENDROOT
BRANCH   5   8
ATOM      8  C   UNL d   1     -43.338  13.192  21.505  0.00  0.00     0.019 A 
ATOM      9  C   UNL d   1     -43.158  14.000  21.480  0.00  0.00     0.003 A 
ATOM     10  C   UNL d   1     -42.476  14.251  21.115  0.00  0.00     0.020 A 
ATOM     11  C   UNL d   1     -41.961  13.704  20.768  0.00  0.00     0.094 A 
ATOM     12  C   UNL d   1     -42.141  12.900  20.793  0.00  0.00     0.020 A 
ATOM     13  C   UNL d   1     -42.831  12.642  21.162  0.00  0.00     0.003 A 
BRANCH  11  14
ATOM     14  N   UNL d   1     -41.263  13.950  20.392  0.00  0.00    -0.158 NA
BRANCH  14  15
ATOM     15  S   UNL d   1     -40.745  14.443  20.781  0.00  0.00     0.286 S 
ATOM     16  O   UNL d   1     -40.736  13.926  21.432  0.00  0.00    -0.198 OA
ATOM     17  O   UNL d   1     -40.210  14.958  21.174  0.00  0.00    -0.198 OA
BRANCH  15  18
ATOM     18  C   UNL d   1     -40.752  14.962  20.130  0.00  0.00     0.117 C 
ATOM     19  C   UNL d   1     -40.198  15.563  20.071  0.00  0.00     0.014 C 
ENDBRANCH  15  18
ENDBRANCH  14  15
ENDBRANCH  11  14
ENDBRANCH   5   8
BRANCH   4  20
ATOM     20  C   UNL d   1     -46.071  13.169  22.391  0.00  0.00     0.018 A 
ATOM     21  C   UNL d   1     -46.289  13.646  23.028  0.00  0.00     0.002 A 
ATOM     22  C   UNL d   1     -47.076  13.889  23.132  0.00  0.00     0.000 A 
ATOM     23  C   UNL d   1     -47.652  13.643  22.582  0.00  0.00     0.000 A 
ATOM     24  C   UNL d   1     -47.435  13.164  21.941  0.00  0.00     0.000 A 
ATOM     25  C   UNL d   1     -48.436  13.876  22.673  0.00  0.00     0.000 C 
ATOM     26  C   UNL d   1     -46.651  12.927  21.845  0.00  0.00     0.002 A 
ENDBRANCH   4  20
BRANCH   3  27
ATOM     27  C   UNL d   1     -44.869  11.048  23.298  0.00  0.00     0.158 A 
ATOM     28  O   UNL d   1     -44.059  11.051  23.456  0.00  0.00    -0.300 OA
ATOM     29  C   UNL d   1     -43.849  10.293  23.695  0.00  0.00     0.123 A 
ATOM     30  C   UNL d   1     -44.530   9.822  23.685  0.00  0.00     0.029 A 
ATOM     31  C   UNL d   1     -45.156  10.294  23.439  0.00  0.00     0.032 A 
ENDBRANCH   3  27
TORSDOF 6
ENDMDL
MODEL 3
REMARK VINA RESULT:      -2.3      2.607      5.783
REMARK  6 active torsions:
REMARK  status: ('A' for Active; 'I' for Inactive)
REMARK       I    between atoms: C_3  and  N_1 
REMARK    1  A    between atoms: C_8  and  C_3 
REMARK    2  A    between atoms: S_4  and  N_9 
REMARK    3  A    between atoms: C_24  and  S_4 
REMARK    4  A    between atoms: C_10  and  C_5 
REMARK    5  A    between atoms: C_11  and  C_6 
REMARK    6  A    between atoms: N_9  and  C_23 
ROOT
ATOM      1  N   UNL d   1     -39.930  14.491  20.982  0.00  0.00    -0.193 N 
ATOM      2  N   UNL d   1     -39.312  14.734  20.466  0.00  0.00    -0.163 NA
ATOM      3  C   UNL d   1     -39.904  14.511  21.805  0.00  0.00     0.303 C 
ATOM      4  C   UNL d   1     -40.552  14.236  20.543  0.00  0.00     0.088 A 
ATOM      5  C   UNL d   1     -39.579  14.618  19.698  0.00  0.00     0.103 A 
ATOM      6  C   UNL d   1     -40.351  14.308  19.734  0.00  0.00     0.040 A 
ATOM      7  O   UNL d   1     -40.549  14.256  22.243  0.00  0.00    -0.263 OA
ENDROOT
BRANCH   5   8
ATOM      8  C   UNL d   1     -39.181  14.770  18.998  0.00  0.00     0.019 A 
ATOM      9  C   UNL d   1     -39.306  15.491  18.609  0.00  0.00     0.003 A 
ATOM     10  C   UNL d   1     -38.915  15.648  17.914  0.00  0.00     0.020 A 
ATOM     11  C   UNL d   1     -38.392  15.093  17.593  0.00  0.00     0.094 A 
ATOM     12  C   UNL d   1     -38.268  14.375  17.981  0.00  0.00     0.020 A 
ATOM     13  C   UNL d   1     -38.663  14.213  18.685  0.00  0.00     0.003 A 
BRANCH  11  14
ATOM     14  N   UNL d   1     -37.987  15.243  16.884  0.00  0.00    -0.158 NA
BRANCH  14  15
ATOM     15  S   UNL d   1     -38.395  15.265  16.180  0.00  0.00     0.286 S 
ATOM     16  O   UNL d   1     -38.836  15.915  16.453  0.00  0.00    -0.198 OA
ATOM     17  O   UNL d   1     -38.811  15.280  15.451  0.00  0.00    -0.198 OA
BRANCH  15  18
ATOM     18  C   UNL d   1     -37.955  14.614  15.905  0.00  0.00     0.117 C 
ATOM     19  C   UNL d   1     -37.940  14.430  15.107  0.00  0.00     0.014 C 
ENDBRANCH  15  18
ENDBRANCH  14  15
ENDBRANCH  11  14
ENDBRANCH   5   8
BRANCH   4  20
ATOM     20  C   UNL d   1     -41.264  13.952  20.801  0.00  0.00     0.018 A 
ATOM     21  C   UNL d   1     -41.930  14.439  20.833  0.00  0.00     0.002 A 
ATOM     22  C   UNL d   1     -42.661  14.148  21.098  0.00  0.00     0.000 A 
ATOM     23  C   UNL d   1     -42.718  13.352  21.335  0.00  0.00     0.000 A 
ATOM     24  C   UNL d   1     -42.050  12.861  21.304  0.00  0.00     0.000 A 
ATOM     25  C   UNL d   1     -43.436  13.050  21.601  0.00  0.00     0.000 C 
ATOM     26  C   UNL d   1     -41.327  13.157  21.039  0.00  0.00     0.002 A 
ENDBRANCH   4  20
BRANCH   3  27
ATOM     27  C   UNL d   1     -39.226  14.788  22.184  0.00  0.00     0.158 A 
ATOM     28  O   UNL d   1     -38.524  14.363  22.277  0.00  0.00    -0.300 OA
ATOM     29  C   UNL d   1     -37.995  14.843  22.683  0.00  0.00     0.123 A 
ATOM     30  C   UNL d   1     -38.370  15.564  22.842  0.00  0.00     0.029 A 
ATOM     31  C   UNL d   1     -39.129  15.523  22.531  0.00  0.00     0.032 A 
ENDBRANCH   3  27
TORSDOF 6
ENDMDL
MODEL 4
REMARK VINA RESULT:      -2.2      2.821      5.157
REMARK  6 active torsions:
REMARK  status: ('A' for Active; 'I' for Inactive)
REMARK       I    between atoms: C_3  and  N_1 
REMARK    1  A    between atoms: C_8  and  C_3 
REMARK    2  A    between atoms: S_4  and  N_9 
REMARK    3  A    between atoms: C_24  and  S_4 
REMARK    4  A    between atoms: C_10  and  C_5 
REMARK    5  A    between atoms: C_11  and  C_6 
REMARK    6  A    between atoms: N_9  and  C_23 
ROOT
ATOM      1  N   UNL d   1     -44.494  12.269  22.398  0.00  0.00    -0.193 N 
ATOM      2  N   UNL d   1     -45.286  12.306  22.680  0.00  0.00    -0.163 NA
ATOM      3  C   UNL d   1     -43.962  11.656  22.542  0.00  0.00     0.303 C 
ATOM      4  C   UNL d   1     -44.339  12.928  21.966  0.00  0.00     0.088 A 
ATOM      5  C   UNL d   1     -45.607  13.011  22.404  0.00  0.00     0.103 A 
ATOM      6  C   UNL d   1     -45.025  13.405  21.958  0.00  0.00     0.040 A 
ATOM      7  O   UNL d   1     -43.204  11.690  22.232  0.00  0.00    -0.263 OA
ENDROOT
BRANCH   5   8
ATOM      8  C   UNL d   1     -46.362  13.302  22.528  0.00  0.00     0.019 A 
ATOM      9  C   UNL d   1     -46.975  13.069  22.021  0.00  0.00     0.003 A 
ATOM     10  C   UNL d   1     -47.727  13.355  22.139  0.00  0.00     0.020 A 
ATOM     11  C   UNL d   1     -47.884  13.877  22.761  0.00  0.00     0.094 A 
ATOM     12  C   UNL d   1     -47.273  14.109  23.265  0.00  0.00     0.020 A 
ATOM     13  C   UNL d   1     -46.511  13.821  23.148  0.00  0.00     0.003 A 
BRANCH  11  14
ATOM     14  N   UNL d   1     -48.648  14.175  22.890  0.00  0.00    -0.158 NA
BRANCH  14  15
ATOM     15  S   UNL d   1     -48.960  14.728  22.381  0.00  0.00     0.286 S 
ATOM     16  O   UNL d   1     -48.329  15.243  22.549  0.00  0.00    -0.198 OA
ATOM     17  O   UNL d   1     -49.288  15.293  21.853  0.00  0.00    -0.198 OA
BRANCH  15  18
ATOM     18  C   UNL d   1     -49.592  14.214  22.210  0.00  0.00     0.117 C 
ATOM     19  C   UNL d   1     -50.334  14.512  22.034  0.00  0.00     0.014 C 
ENDBRANCH  15  18
ENDBRANCH  14  15
ENDBRANCH  11  14
ENDBRANCH   5   8
BRANCH   4  20
ATOM     20  C   UNL d   1     -43.652  13.128  21.589  0.00  0.00     0.018 A 
ATOM     21  C   UNL d   1     -43.220  13.793  21.817  0.00  0.00     0.002 A 
ATOM     22  C   UNL d   1     -42.515  14.000  21.430  0.00  0.00     0.000 A 
ATOM     23  C   UNL d   1     -42.243  13.524  20.803  0.00  0.00     0.000 A 
ATOM     24  C   UNL d   1     -42.675  12.854  20.573  0.00  0.00     0.000 A 
ATOM     25  C   UNL d   1     -41.545  13.716  20.411  0.00  0.00     0.000 C 
ATOM     26  C   UNL d   1     -43.375  12.656  20.961  0.00  0.00     0.002 A 
ENDBRANCH   4  20
BRANCH   3  27
ATOM     27  C   UNL d   1     -44.198  11.011  22.998  0.00  0.00     0.158 A 
ATOM     28  O   UNL d   1     -44.967  10.871  23.264  0.00  0.00    -0.300 OA
ATOM     29  C   UNL d   1     -44.957  10.172  23.696  0.00  0.00     0.123 A 
ATOM     30  C   UNL d   1     -44.182   9.880  23.697  0.00  0.00     0.029 A 
ATOM     31  C   UNL d   1     -43.719  10.403  23.264  0.00  0.00     0.032 A 
ENDBRANCH   3  27
TORSDOF 6
ENDMDL
MODEL 5
REMARK VINA RESULT:      -1.8      3.836      5.117
REMARK  6 active torsions:
REMARK  status: ('A' for Active; 'I' for Inactive)
REMARK       I    between atoms: C_3  and  N_1 
REMARK    1  A    between atoms: C_8  and  C_3 
REMARK    2  A    between atoms: S_4  and  N_9 
REMARK    3  A    between atoms: C_24  and  S_4 
REMARK    4  A    between atoms: C_10  and  C_5 
REMARK    5  A    between atoms: C_11  and  C_6 
REMARK    6  A    between atoms: N_9  and  C_23 
ROOT
ATOM      1  N   UNL d   1     -39.186  13.665  18.137  0.00  0.00    -0.193 N 
ATOM      2  N   UNL d   1     -38.791  13.515  18.865  0.00  0.00    -0.163 NA
ATOM      3  C   UNL d   1     -39.172  13.176  17.474  0.00  0.00     0.303 C 
ATOM      4  C   UNL d   1     -39.581  14.362  18.193  0.00  0.00     0.088 A 
ATOM      5  C   UNL d   1     -38.959  14.145  19.364  0.00  0.00     0.103 A 
ATOM      6  C   UNL d   1     -39.450  14.679  18.956  0.00  0.00     0.040 A 
ATOM      7  O   UNL d   1     -39.584  13.390  16.798  0.00  0.00    -0.263 OA
ENDROOT
BRANCH   5   8
ATOM      8  C   UNL d   1     -38.704  14.259  20.135  0.00  0.00     0.019 A 
ATOM      9  C   UNL d   1     -38.968  14.922  20.555  0.00  0.00     0.003 A 
ATOM     10  C   UNL d   1     -38.718  15.041  21.321  0.00  0.00     0.020 A 
ATOM     11  C   UNL d   1     -38.202  14.503  21.680  0.00  0.00     0.094 A 
ATOM     12  C   UNL d   1     -37.940  13.844  21.260  0.00  0.00     0.020 A 
ATOM     13  C   UNL d   1     -38.190  13.721  20.486  0.00  0.00     0.003 A 
BRANCH  11  14
ATOM     14  N   UNL d   1     -37.941  14.615  22.461  0.00  0.00    -0.158 NA
BRANCH  14  15
ATOM     15  S   UNL d   1     -38.481  14.645  23.069  0.00  0.00     0.286 S 
ATOM     16  O   UNL d   1     -38.509  13.814  23.090  0.00  0.00    -0.198 OA
ATOM     17  O   UNL d   1     -39.038  14.687  23.696  0.00  0.00    -0.198 OA
BRANCH  15  18
ATOM     18  C   UNL d   1     -38.455  15.477  23.050  0.00  0.00     0.117 C 
ATOM     19  C   UNL d   1     -38.936  15.920  23.543  0.00  0.00     0.014 C 
ENDBRANCH  15  18
ENDBRANCH  14  15
ENDBRANCH  11  14
ENDBRANCH   5   8
BRANCH   4  20
ATOM     20  C   UNL d   1     -40.035  14.726  17.631  0.00  0.00     0.018 A 
ATOM     21  C   UNL d   1     -39.694  15.207  17.054  0.00  0.00     0.002 A 
ATOM     22  C   UNL d   1     -40.159  15.581  16.477  0.00  0.00     0.000 A 
ATOM     23  C   UNL d   1     -40.984  15.464  16.485  0.00  0.00     0.000 A 
ATOM     24  C   UNL d   1     -41.329  14.981  17.064  0.00  0.00     0.000 A 
ATOM     25  C   UNL d   1     -41.458  15.828  15.919  0.00  0.00     0.000 C 
ATOM     26  C   UNL d   1     -40.860  14.613  17.634  0.00  0.00     0.002 A 
ENDBRANCH   4  20
BRANCH   3  27
ATOM     27  C   UNL d   1     -38.742  12.473  17.495  0.00  0.00     0.158 A 
ATOM     28  O   UNL d   1     -38.602  12.020  18.172  0.00  0.00    -0.300 OA
ATOM     29  C   UNL d   1     -38.153  11.370  17.947  0.00  0.00     0.123 A 
ATOM     30  C   UNL d   1     -38.015  11.421  17.132  0.00  0.00     0.029 A 
ATOM     31  C   UNL d   1     -38.381  12.104  16.860  0.00  0.00     0.032 A 
ENDBRANCH   3  27
TORSDOF 6
ENDMDL
MODEL 6
REMARK VINA RESULT:      -1.6      3.050      7.971
REMARK  6 active torsions:
REMARK  status: ('A' for Active; 'I' for Inactive)
REMARK       I    between atoms: C_3  and  N_1 
REMARK    1  A    between atoms: C_8  and  C_3 
REMARK    2  A    between atoms: S_4  and  N_9 
REMARK    3  A    between atoms: C_24  and  S_4 
REMARK    4  A    between atoms: C_10  and  C_5 
REMARK    5  A    between atoms: C_11  and  C_6 
REMARK    6  A    between atoms: N_9  and  C_23 
ROOT
ATOM      1  N   UNL d   1     -48.475  13.069  22.827  0.00  0.00    -0.193 N 
ATOM      2  N   UNL d   1     -47.694  12.770  22.732  0.00  0.00    -0.163 NA
ATOM      3  C   UNL d   1     -49.121  12.645  23.112  0.00  0.00     0.303 C 
ATOM      4  C   UNL d   1     -48.490  13.838  22.594  0.00  0.00     0.088 A 
ATOM      5  C   UNL d   1     -47.235  13.384  22.434  0.00  0.00     0.103 A 
ATOM      6  C   UNL d   1     -47.721  14.053  22.344  0.00  0.00     0.040 A 
ATOM      7  O   UNL d   1     -49.853  13.005  23.176  0.00  0.00    -0.263 OA
ENDROOT
BRANCH   5   8
ATOM      8  C   UNL d   1     -46.438  13.371  22.248  0.00  0.00     0.019 A 
ATOM      9  C   UNL d   1     -45.906  13.807  22.710  0.00  0.00     0.003 A 
ATOM     10  C   UNL d   1     -45.113  13.798  22.530  0.00  0.00     0.020 A 
ATOM     11  C   UNL d   1     -44.834  13.357  21.889  0.00  0.00     0.094 A 
ATOM     12  C   UNL d   1     -45.364  12.923  21.429  0.00  0.00     0.020 A 
ATOM     13  C   UNL d   1     -46.167  12.930  21.608  0.00  0.00     0.003 A 
BRANCH  11  14
ATOM     14  N   UNL d   1     -44.026  13.341  21.696  0.00  0.00    -0.158 NA
BRANCH  14  15
ATOM     15  S   UNL d   1     -43.615  12.640  21.729  0.00  0.00     0.286 S 
ATOM     16  O   UNL d   1     -43.955  12.472  22.469  0.00  0.00    -0.198 OA
ATOM     17  O   UNL d   1     -43.187  11.917  21.754  0.00  0.00    -0.198 OA
BRANCH  15  18
ATOM     18  C   UNL d   1     -43.274  12.805  20.988  0.00  0.00     0.117 C 
ATOM     19  C   UNL d   1     -42.550  13.186  20.939  0.00  0.00     0.014 C 
ENDBRANCH  15  18
ENDBRANCH  14  15
ENDBRANCH  11  14
ENDBRANCH   5   8
BRANCH   4  20
ATOM     20  C   UNL d   1     -49.119  14.346  22.588  0.00  0.00     0.018 A 
ATOM     21  C   UNL d   1     -49.226  14.899  23.191  0.00  0.00     0.002 A 
ATOM     22  C   UNL d   1     -49.871  15.421  23.185  0.00  0.00     0.000 A 
ATOM     23  C   UNL d   1     -50.418  15.381  22.558  0.00  0.00     0.000 A 
ATOM     24  C   UNL d   1     -50.313  14.827  21.951  0.00  0.00     0.000 A 
ATOM     25  C   UNL d   1     -51.063  15.892  22.539  0.00  0.00     0.000 C 
ATOM     26  C   UNL d   1     -49.669  14.312  21.964  0.00  0.00     0.002 A 
ENDBRANCH   4  20
BRANCH   3  27
ATOM     27  C   UNL d   1     -49.023  11.855  23.331  0.00  0.00     0.158 A 
ATOM     28  O   UNL d   1     -49.633  11.304  23.411  0.00  0.00    -0.300 OA
ATOM     29  C   UNL d   1     -49.294  10.590  23.637  0.00  0.00     0.123 A 
ATOM     30  C   UNL d   1     -48.476  10.700  23.696  0.00  0.00     0.029 A 
ATOM     31  C   UNL d   1     -48.315  11.484  23.506  0.00  0.00     0.032 A 
ENDBRANCH   3  27
TORSDOF 6
ENDMDL
