MODEL 1
REMARK VINA RESULT:      -6.8      0.000      0.000
REMARK  5 active torsions:
REMARK  status: ('A' for Active; 'I' for Inactive)
REMARK    1  A    between atoms: C_11  and  N_1 
REMARK    2  A    between atoms: C_5  and  C_3 
REMARK       I    between atoms: N_14  and  C_5 
REMARK    3  A    between atoms: N_7  and  C_18 
REMARK    4  A    between atoms: C_17  and  N_14 
REMARK    5  A    between atoms: C_18  and  C_17 
ROOT
ATOM      1  C   UNL d   1     -46.064  13.199  22.631  0.00  0.00     0.281 C 
ATOM      2  O   UNL d   1     -45.941  13.991  22.816  0.00  0.00    -0.265 OA
ATOM      3  N   UNL d   1     -46.821  12.935  22.459  0.00  0.00    -0.205 NA
ENDROOT
BRANCH   1   4
ATOM      4  C   UNL d   1     -45.424  12.672  22.620  0.00  0.00     0.080 A 
ATOM      5  C   UNL d   1     -45.362  11.975  23.058  0.00  0.00     0.088 A 
ATOM      6  N   UNL d   1     -44.635  11.630  22.873  0.00  0.00    -0.273 N 
ATOM      7  C   UNL d   1     -44.251  12.107  22.327  0.00  0.00     0.265 A 
ATOM      8  C   UNL d   1     -44.739  12.755  22.168  0.00  0.00     0.067 A 
ATOM      9  O   UNL d   1     -43.504  11.929  22.017  0.00  0.00    -0.267 OA
BRANCH   6  10
ATOM     10  C   UNL d   1     -44.344  10.923  23.185  0.00  0.00     0.067 A 
ATOM     11  C   UNL d   1     -43.546  10.747  23.312  0.00  0.00     0.018 A 
ATOM     12  C   UNL d   1     -43.504   9.987  23.629  0.00  0.00     0.002 A 
ATOM     13  C   UNL d   1     -44.276   9.702  23.695  0.00  0.00     0.002 A 
ATOM     14  C   UNL d   1     -44.793  10.271  23.425  0.00  0.00     0.018 A 
ENDBRANCH   6  10
ENDBRANCH   1   4
BRANCH   3  15
ATOM     15  C   UNL d   1     -47.454  13.457  22.471  0.00  0.00     0.121 C 
BRANCH  15  16
ATOM     16  C   UNL d   1     -48.191  13.227  22.194  0.00  0.00     0.101 C 
BRANCH  16  17
ATOM     17  N   UNL d   1     -48.873  13.558  22.535  0.00  0.00    -0.301 N 
ATOM     18  C   UNL d   1     -48.902  14.368  22.681  0.00  0.00     0.080 A 
ATOM     19  C   UNL d   1     -49.582  14.692  23.020  0.00  0.00     0.018 A 
ATOM     20  C   UNL d   1     -49.622  15.495  23.169  0.00  0.00     0.002 A 
ATOM     21  C   UNL d   1     -50.223  14.213  23.210  0.00  0.00     0.003 A 
ATOM     22  C   UNL d   1     -50.292  15.823  23.504  0.00  0.00     0.000 A 
ATOM     23  C   UNL d   1     -50.938  15.343  23.697  0.00  0.00     0.000 A 
ATOM     24  C   UNL d   1     -50.904  14.533  23.549  0.00  0.00     0.000 A 
ATOM     25  C   UNL d   1     -50.185  13.401  23.060  0.00  0.00     0.019 A 
ATOM     26  C   UNL d   1     -49.505  13.069  22.720  0.00  0.00     0.080 A 
ENDBRANCH  16  17
ENDBRANCH  15  16
ENDBRANCH   3  15
TORSDOF 5
ENDMDL
MODEL 2
REMARK VINA RESULT:      -6.7      2.780      4.114
REMARK  5 active torsions:
REMARK  status: ('A' for Active; 'I' for Inactive)
REMARK    1  A    between atoms: C_11  and  N_1 
REMARK    2  A    between atoms: C_5  and  C_3 
REMARK       I    between atoms: N_14  and  C_5 
REMARK    3  A    between atoms: N_7  and  C_18 
REMARK    4  A    between atoms: C_17  and  N_14 
REMARK    5  A    between atoms: C_18  and  C_17 
ROOT
ATOM      1  C   UNL d   1     -43.443  12.913  21.565  0.00  0.00     0.281 C 
ATOM      2  O   UNL d   1     -43.393  12.138  21.836  0.00  0.00    -0.265 OA
ATOM      3  N   UNL d   1     -44.137  13.336  21.671  0.00  0.00    -0.205 NA
ENDROOT
BRANCH   1   4
ATOM      4  C   UNL d   1     -42.792  13.263  21.188  0.00  0.00     0.080 A 
ATOM      5  C   UNL d   1     -42.267  13.802  21.527  0.00  0.00     0.088 A 
ATOM      6  N   UNL d   1     -41.710  14.001  20.952  0.00  0.00    -0.273 N 
ATOM      7  C   UNL d   1     -41.887  13.591  20.265  0.00  0.00     0.265 A 
ATOM      8  C   UNL d   1     -42.559  13.132  20.408  0.00  0.00     0.067 A 
ATOM      9  O   UNL d   1     -41.440  13.658  19.569  0.00  0.00    -0.267 OA
BRANCH   6  10
ATOM     10  C   UNL d   1     -41.080  14.526  21.053  0.00  0.00     0.067 A 
ATOM     11  C   UNL d   1     -41.120  15.347  20.966  0.00  0.00     0.018 A 
ATOM     12  C   UNL d   1     -40.369  15.652  21.116  0.00  0.00     0.002 A 
ATOM     13  C   UNL d   1     -39.872  15.017  21.292  0.00  0.00     0.002 A 
ATOM     14  C   UNL d   1     -40.303  14.325  21.255  0.00  0.00     0.018 A 
ENDBRANCH   6  10
ENDBRANCH   1   4
BRANCH   3  15
ATOM     15  C   UNL d   1     -44.780  12.989  22.044  0.00  0.00     0.121 C 
BRANCH  15  16
ATOM     16  C   UNL d   1     -45.444  13.433  22.233  0.00  0.00     0.101 C 
BRANCH  16  17
ATOM     17  N   UNL d   1     -46.122  13.046  22.517  0.00  0.00    -0.301 N 
ATOM     18  C   UNL d   1     -46.819  13.075  22.080  0.00  0.00     0.080 A 
ATOM     19  C   UNL d   1     -47.491  12.688  22.368  0.00  0.00     0.018 A 
ATOM     20  C   UNL d   1     -48.189  12.709  21.943  0.00  0.00     0.002 A 
ATOM     21  C   UNL d   1     -47.464  12.280  23.082  0.00  0.00     0.003 A 
ATOM     22  C   UNL d   1     -48.857  12.329  22.221  0.00  0.00     0.000 A 
ATOM     23  C   UNL d   1     -48.833  11.917  22.939  0.00  0.00     0.000 A 
ATOM     24  C   UNL d   1     -48.132  11.893  23.372  0.00  0.00     0.000 A 
ATOM     25  C   UNL d   1     -46.759  12.257  23.513  0.00  0.00     0.019 A 
ATOM     26  C   UNL d   1     -46.082  12.642  23.230  0.00  0.00     0.080 A 
ENDBRANCH  16  17
ENDBRANCH  15  16
ENDBRANCH   3  15
TORSDOF 5
ENDMDL
MODEL 3
REMARK VINA RESULT:      -6.7      3.687      7.192
REMARK  5 active torsions:
REMARK  status: ('A' for Active; 'I' for Inactive)
REMARK    1  A    between atoms: C_11  and  N_1 
REMARK    2  A    between atoms: C_5  and  C_3 
REMARK       I    between atoms: N_14  and  C_5 
REMARK    3  A    between atoms: N_7  and  C_18 
REMARK    4  A    between atoms: C_17  and  N_14 
REMARK    5  A    between atoms: C_18  and  C_17 
ROOT
ATOM      1  C   UNL d   1     -43.521  12.874  21.453  0.00  0.00     0.281 C 
ATOM      2  O   UNL d   1     -43.297  12.258  20.956  0.00  0.00    -0.265 OA
ATOM      3  N   UNL d   1     -43.045  13.537  21.517  0.00  0.00    -0.205 NA
ENDROOT
BRANCH   1   4
ATOM      4  C   UNL d   1     -44.227  12.821  21.887  0.00  0.00     0.080 A 
ATOM      5  C   UNL d   1     -44.874  13.329  21.824  0.00  0.00     0.088 A 
ATOM      6  N   UNL d   1     -45.447  13.068  22.357  0.00  0.00    -0.273 N 
ATOM      7  C   UNL d   1     -45.159  12.406  22.746  0.00  0.00     0.265 A 
ATOM      8  C   UNL d   1     -44.401  12.250  22.455  0.00  0.00     0.067 A 
ATOM      9  O   UNL d   1     -45.591  11.996  23.323  0.00  0.00    -0.267 OA
BRANCH   6  10
ATOM     10  C   UNL d   1     -46.187  13.415  22.478  0.00  0.00     0.067 A 
ATOM     11  C   UNL d   1     -46.330  14.095  22.925  0.00  0.00     0.018 A 
ATOM     12  C   UNL d   1     -47.140  14.246  22.899  0.00  0.00     0.002 A 
ATOM     13  C   UNL d   1     -47.489  13.658  22.437  0.00  0.00     0.002 A 
ATOM     14  C   UNL d   1     -46.909  13.147  22.177  0.00  0.00     0.018 A 
ENDBRANCH   6  10
ENDBRANCH   1   4
BRANCH   3  15
ATOM     15  C   UNL d   1     -42.348  13.589  21.088  0.00  0.00     0.121 C 
BRANCH  15  16
ATOM     16  C   UNL d   1     -41.906  14.281  21.088  0.00  0.00     0.101 C 
BRANCH  16  17
ATOM     17  N   UNL d   1     -41.190  14.304  20.668  0.00  0.00    -0.301 N 
ATOM     18  C   UNL d   1     -41.203  14.334  19.845  0.00  0.00     0.080 A 
ATOM     19  C   UNL d   1     -40.487  14.357  19.432  0.00  0.00     0.018 A 
ATOM     20  C   UNL d   1     -40.487  14.387  18.614  0.00  0.00     0.002 A 
ATOM     21  C   UNL d   1     -39.771  14.350  19.836  0.00  0.00     0.003 A 
ATOM     22  C   UNL d   1     -39.784  14.410  18.199  0.00  0.00     0.000 A 
ATOM     23  C   UNL d   1     -39.061  14.403  18.603  0.00  0.00     0.000 A 
ATOM     24  C   UNL d   1     -39.055  14.373  19.427  0.00  0.00     0.000 A 
ATOM     25  C   UNL d   1     -39.768  14.320  20.662  0.00  0.00     0.019 A 
ATOM     26  C   UNL d   1     -40.482  14.297  21.083  0.00  0.00     0.080 A 
ENDBRANCH  16  17
ENDBRANCH  15  16
ENDBRANCH   3  15
TORSDOF 5
ENDMDL
MODEL 4
REMARK VINA RESULT:      -6.2      2.640      6.331
REMARK  5 active torsions:
REMARK  status: ('A' for Active; 'I' for Inactive)
REMARK    1  A    between atoms: C_11  and  N_1 
REMARK    2  A    between atoms: C_5  and  C_3 
REMARK       I    between atoms: N_14  and  C_5 
REMARK    3  A    between atoms: N_7  and  C_18 
REMARK    4  A    between atoms: C_17  and  N_14 
REMARK    5  A    between atoms: C_18  and  C_17 
ROOT
ATOM      1  C   UNL d   1     -45.094  12.888  22.314  0.00  0.00     0.281 C 
ATOM      2  O   UNL d   1     -44.791  12.279  22.779  0.00  0.00    -0.265 OA
ATOM      3  N   UNL d   1     -44.603  13.277  21.786  0.00  0.00    -0.205 NA
ENDROOT
BRANCH   1   4
ATOM      4  C   UNL d   1     -45.892  13.103  22.383  0.00  0.00     0.080 A 
ATOM      5  C   UNL d   1     -46.535  12.681  22.085  0.00  0.00     0.088 A 
ATOM      6  N   UNL d   1     -47.219  13.099  22.281  0.00  0.00    -0.273 N 
ATOM      7  C   UNL d   1     -47.003  13.772  22.697  0.00  0.00     0.265 A 
ATOM      8  C   UNL d   1     -46.178  13.777  22.761  0.00  0.00     0.067 A 
ATOM      9  O   UNL d   1     -47.551  14.324  22.983  0.00  0.00    -0.267 OA
BRANCH   6  10
ATOM     10  C   UNL d   1     -47.992  12.877  22.092  0.00  0.00     0.067 A 
ATOM     11  C   UNL d   1     -48.479  12.395  22.554  0.00  0.00     0.018 A 
ATOM     12  C   UNL d   1     -49.199  12.316  22.159  0.00  0.00     0.002 A 
ATOM     13  C   UNL d   1     -49.149  12.748  21.459  0.00  0.00     0.002 A 
ATOM     14  C   UNL d   1     -48.411  13.094  21.413  0.00  0.00     0.018 A 
ENDBRANCH   6  10
ENDBRANCH   1   4
BRANCH   3  15
ATOM     15  C   UNL d   1     -43.814  13.063  21.719  0.00  0.00     0.121 C 
BRANCH  15  16
ATOM     16  C   UNL d   1     -43.393  13.227  21.034  0.00  0.00     0.101 C 
BRANCH  16  17
ATOM     17  N   UNL d   1     -42.610  13.498  21.095  0.00  0.00    -0.301 N 
ATOM     18  C   UNL d   1     -42.441  14.288  20.938  0.00  0.00     0.080 A 
ATOM     19  C   UNL d   1     -41.660  14.553  21.001  0.00  0.00     0.018 A 
ATOM     20  C   UNL d   1     -41.480  15.336  20.847  0.00  0.00     0.002 A 
ATOM     21  C   UNL d   1     -41.059  14.035  21.217  0.00  0.00     0.003 A 
ATOM     22  C   UNL d   1     -40.710  15.605  20.907  0.00  0.00     0.000 A 
ATOM     23  C   UNL d   1     -40.104  15.086  21.124  0.00  0.00     0.000 A 
ATOM     24  C   UNL d   1     -40.279  14.296  21.281  0.00  0.00     0.000 A 
ATOM     25  C   UNL d   1     -41.239  13.243  21.373  0.00  0.00     0.019 A 
ATOM     26  C   UNL d   1     -42.020  12.971  21.312  0.00  0.00     0.080 A 
ENDBRANCH  16  17
ENDBRANCH  15  16
ENDBRANCH   3  15
TORSDOF 5
ENDMDL
MODEL 5
REMARK VINA RESULT:      -5.9      3.827      5.434
REMARK  5 active torsions:
REMARK  status: ('A' for Active; 'I' for Inactive)
REMARK    1  A    between atoms: C_11  and  N_1 
REMARK    2  A    between atoms: C_5  and  C_3 
REMARK       I    between atoms: N_14  and  C_5 
REMARK    3  A    between atoms: N_7  and  C_18 
REMARK    4  A    between atoms: C_17  and  N_14 
REMARK    5  A    between atoms: C_18  and  C_17 
ROOT
ATOM      1  C   UNL d   1     -41.872  13.641  21.218  0.00  0.00     0.281 C 
ATOM      2  O   UNL d   1     -41.573  13.330  21.919  0.00  0.00    -0.265 OA
ATOM      3  N   UNL d   1     -42.664  13.541  21.035  0.00  0.00    -0.205 NA
ENDROOT
BRANCH   1   4
ATOM      4  C   UNL d   1     -41.370  14.052  20.701  0.00  0.00     0.080 A 
ATOM      5  C   UNL d   1     -41.147  13.807  19.945  0.00  0.00     0.088 A 
ATOM      6  N   UNL d   1     -40.646  14.385  19.634  0.00  0.00    -0.273 N 
ATOM      7  C   UNL d   1     -40.560  14.982  20.191  0.00  0.00     0.265 A 
ATOM      8  C   UNL d   1     -41.009  14.777  20.855  0.00  0.00     0.067 A 
ATOM      9  O   UNL d   1     -40.093  15.655  20.065  0.00  0.00    -0.267 OA
BRANCH   6  10
ATOM     10  C   UNL d   1     -40.292  14.366  18.889  0.00  0.00     0.067 A 
ATOM     11  C   UNL d   1     -39.572  14.002  18.709  0.00  0.00     0.018 A 
ATOM     12  C   UNL d   1     -39.427  14.116  17.905  0.00  0.00     0.002 A 
ATOM     13  C   UNL d   1     -40.058  14.550  17.597  0.00  0.00     0.002 A 
ATOM     14  C   UNL d   1     -40.590  14.705  18.196  0.00  0.00     0.018 A 
ENDBRANCH   6  10
ENDBRANCH   1   4
BRANCH   3  15
ATOM     15  C   UNL d   1     -43.159  13.135  21.547  0.00  0.00     0.121 C 
BRANCH  15  16
ATOM     16  C   UNL d   1     -43.883  12.846  21.288  0.00  0.00     0.101 C 
BRANCH  16  17
ATOM     17  N   UNL d   1     -44.513  12.791  21.827  0.00  0.00    -0.301 N 
ATOM     18  C   UNL d   1     -45.072  13.394  21.860  0.00  0.00     0.080 A 
ATOM     19  C   UNL d   1     -45.697  13.334  22.398  0.00  0.00     0.018 A 
ATOM     20  C   UNL d   1     -46.259  13.927  22.440  0.00  0.00     0.002 A 
ATOM     21  C   UNL d   1     -45.760  12.682  22.895  0.00  0.00     0.003 A 
ATOM     22  C   UNL d   1     -46.880  13.875  22.970  0.00  0.00     0.000 A 
ATOM     23  C   UNL d   1     -46.946  13.220  23.471  0.00  0.00     0.000 A 
ATOM     24  C   UNL d   1     -46.382  12.619  23.433  0.00  0.00     0.000 A 
ATOM     25  C   UNL d   1     -45.193  12.081  22.855  0.00  0.00     0.019 A 
ATOM     26  C   UNL d   1     -44.564  12.135  22.317  0.00  0.00     0.080 A 
ENDBRANCH  16  17
ENDBRANCH  15  16
ENDBRANCH   3  15
TORSDOF 5
ENDMDL
MODEL 6
REMARK VINA RESULT:      -5.7      1.399      6.225
REMARK  5 active torsions:
REMARK  status: ('A' for Active; 'I' for Inactive)
REMARK    1  A    between atoms: C_11  and  N_1 
REMARK    2  A    between atoms: C_5  and  C_3 
REMARK       I    between atoms: N_14  and  C_5 
REMARK    3  A    between atoms: N_7  and  C_18 
REMARK    4  A    between atoms: C_17  and  N_14 
REMARK    5  A    between atoms: C_18  and  C_17 
ROOT
ATOM      1  C   UNL d   1     -48.259  12.659  22.352  0.00  0.00     0.281 C 
ATOM      2  O   UNL d   1     -48.067  12.549  21.559  0.00  0.00    -0.265 OA
ATOM      3  N   UNL d   1     -47.720  12.450  22.932  0.00  0.00    -0.205 NA
ENDROOT
BRANCH   1   4
ATOM      4  C   UNL d   1     -48.996  12.980  22.559  0.00  0.00     0.080 A 
ATOM      5  C   UNL d   1     -49.174  13.783  22.621  0.00  0.00     0.088 A 
ATOM      6  N   UNL d   1     -49.968  13.844  22.839  0.00  0.00    -0.273 N 
ATOM      7  C   UNL d   1     -50.277  13.088  22.913  0.00  0.00     0.265 A 
ATOM      8  C   UNL d   1     -49.675  12.549  22.739  0.00  0.00     0.067 A 
ATOM      9  O   UNL d   1     -51.064  12.940  23.126  0.00  0.00    -0.267 OA
BRANCH   6  10
ATOM     10  C   UNL d   1     -50.381  14.549  22.964  0.00  0.00     0.067 A 
ATOM     11  C   UNL d   1     -50.690  15.035  22.371  0.00  0.00     0.018 A 
ATOM     12  C   UNL d   1     -51.056  15.676  22.739  0.00  0.00     0.002 A 
ATOM     13  C   UNL d   1     -50.970  15.579  23.553  0.00  0.00     0.002 A 
ATOM     14  C   UNL d   1     -50.556  14.890  23.696  0.00  0.00     0.018 A 
ENDBRANCH   6  10
ENDBRANCH   1   4
BRANCH   3  15
ATOM     15  C   UNL d   1     -46.992  12.133  22.727  0.00  0.00     0.121 C 
BRANCH  15  16
ATOM     16  C   UNL d   1     -46.333  12.256  23.200  0.00  0.00     0.101 C 
BRANCH  16  17
ATOM     17  N   UNL d   1     -45.787  11.639  23.302  0.00  0.00    -0.301 N 
ATOM     18  C   UNL d   1     -44.996  11.759  23.106  0.00  0.00     0.080 A 
ATOM     19  C   UNL d   1     -44.457  11.141  23.210  0.00  0.00     0.018 A 
ATOM     20  C   UNL d   1     -43.669  11.249  23.019  0.00  0.00     0.002 A 
ATOM     21  C   UNL d   1     -44.706  10.414  23.504  0.00  0.00     0.003 A 
ATOM     22  C   UNL d   1     -43.130  10.642  23.119  0.00  0.00     0.000 A 
ATOM     23  C   UNL d   1     -43.378   9.910  23.415  0.00  0.00     0.000 A 
ATOM     24  C   UNL d   1     -44.171   9.796  23.609  0.00  0.00     0.000 A 
ATOM     25  C   UNL d   1     -45.502  10.303  23.698  0.00  0.00     0.019 A 
ATOM     26  C   UNL d   1     -46.048  10.919  23.597  0.00  0.00     0.080 A 
ENDBRANCH  16  17
ENDBRANCH  15  16
ENDBRANCH   3  15
TORSDOF 5
ENDMDL
MODEL 7
REMARK VINA RESULT:      -5.7      7.914      9.640
REMARK  5 active torsions:
REMARK  status: ('A' for Active; 'I' for Inactive)
REMARK    1  A    between atoms: C_11  and  N_1 
REMARK    2  A    between atoms: C_5  and  C_3 
REMARK       I    between atoms: N_14  and  C_5 
REMARK    3  A    between atoms: N_7  and  C_18 
REMARK    4  A    between atoms: C_17  and  N_14 
REMARK    5  A    between atoms: C_18  and  C_17 
ROOT
ATOM      1  C   UNL d   1     -40.306  14.496  18.784  0.00  0.00     0.281 C 
ATOM      2  O   UNL d   1     -40.892  13.921  18.849  0.00  0.00    -0.265 OA
ATOM      3  N   UNL d   1     -40.016  14.857  19.460  0.00  0.00    -0.205 NA
ENDROOT
BRANCH   1   4
ATOM      4  C   UNL d   1     -40.013  14.706  18.037  0.00  0.00     0.080 A 
ATOM      5  C   UNL d   1     -39.421  14.311  17.620  0.00  0.00     0.088 A 
ATOM      6  N   UNL d   1     -39.309  14.712  16.907  0.00  0.00    -0.273 N 
ATOM      7  C   UNL d   1     -39.825  15.349  16.883  0.00  0.00     0.265 A 
ATOM      8  C   UNL d   1     -40.264  15.348  17.584  0.00  0.00     0.067 A 
ATOM      9  O   UNL d   1     -39.865  15.876  16.245  0.00  0.00    -0.267 OA
BRANCH   6  10
ATOM     10  C   UNL d   1     -38.768  14.507  16.318  0.00  0.00     0.067 A 
ATOM     11  C   UNL d   1     -38.457  15.022  15.751  0.00  0.00     0.018 A 
ATOM     12  C   UNL d   1     -37.942  14.589  15.275  0.00  0.00     0.002 A 
ATOM     13  C   UNL d   1     -37.940  13.812  15.552  0.00  0.00     0.002 A 
ATOM     14  C   UNL d   1     -38.444  13.757  16.190  0.00  0.00     0.018 A 
ENDBRANCH   6  10
ENDBRANCH   1   4
BRANCH   3  15
ATOM     15  C   UNL d   1     -40.307  14.649  20.198  0.00  0.00     0.121 C 
BRANCH  15  16
ATOM     16  C   UNL d   1     -40.315  15.192  20.814  0.00  0.00     0.101 C 
BRANCH  16  17
ATOM     17  N   UNL d   1     -39.828  15.062  21.474  0.00  0.00    -0.301 N 
ATOM     18  C   UNL d   1     -39.655  14.291  21.706  0.00  0.00     0.080 A 
ATOM     19  C   UNL d   1     -39.170  14.168  22.364  0.00  0.00     0.018 A 
ATOM     20  C   UNL d   1     -38.992  13.406  22.604  0.00  0.00     0.002 A 
ATOM     21  C   UNL d   1     -38.864  14.806  22.783  0.00  0.00     0.003 A 
ATOM     22  C   UNL d   1     -38.513  13.277  23.254  0.00  0.00     0.000 A 
ATOM     23  C   UNL d   1     -38.204  13.917  23.677  0.00  0.00     0.000 A 
ATOM     24  C   UNL d   1     -38.380  14.686  23.440  0.00  0.00     0.000 A 
ATOM     25  C   UNL d   1     -39.044  15.577  22.542  0.00  0.00     0.019 A 
ATOM     26  C   UNL d   1     -39.529  15.707  21.884  0.00  0.00     0.080 A 
ENDBRANCH  16  17
ENDBRANCH  15  16
ENDBRANCH   3  15
TORSDOF 5
ENDMDL
