MODEL 1
REMARK VINA RESULT:      -4.7      0.000      0.000
REMARK  5 active torsions:
REMARK  status: ('A' for Active; 'I' for Inactive)
REMARK    1  A    between atoms: C_11  and  C_1 
REMARK    2  A    between atoms: C_5  and  S_13 
REMARK       I    between atoms: C_12  and  N_14 
REMARK    3  A    between atoms: C_18  and  C_12 
REMARK    4  A    between atoms: S_13  and  C_18 
REMARK    5  A    between atoms: N_14  and  C_19 
ROOT
ATOM      1  C   UNL d   1      56.558   0.119  32.489  0.00  0.00     0.024 A 
ATOM      2  C   UNL d   1      56.445  -0.563  32.038  0.00  0.00     0.004 A 
ATOM      3  C   UNL d   1      57.126   0.667  32.287  0.00  0.00     0.004 A 
ATOM      4  C   UNL d   1      57.497  -0.130  31.161  0.00  0.00     0.085 A 
ATOM      5  C   UNL d   1      57.597   0.542  31.620  0.00  0.00     0.019 A 
ATOM      6  C   UNL d   1      56.917  -0.687  31.371  0.00  0.00     0.019 A 
ENDROOT
BRANCH   4   7
ATOM      7  N   UNL d   1      57.974  -0.243  30.498  0.00  0.00    -0.208 NA
ATOM      8  C   UNL d   1      58.048  -0.998  30.174  0.00  0.00     0.286 C 
ATOM      9  O   UNL d   1      57.649  -1.631  30.511  0.00  0.00    -0.265 OA
BRANCH   8  10
ATOM     10  C   UNL d   1      58.524  -1.116  29.510  0.00  0.00     0.100 C 
BRANCH  10  11
ATOM     11  S   UNL d   1      58.626  -1.880  29.208  0.00  0.00    -0.054 SA
BRANCH  11  12
ATOM     12  C   UNL d   1      59.375  -2.134  28.967  0.00  0.00     0.164 A 
ATOM     13  S   UNL d   1      59.674  -2.893  29.050  0.00  0.00    -0.039 SA
ATOM     14  C   UNL d   1      60.441  -2.899  28.733  0.00  0.00     0.134 A 
ATOM     15  C   UNL d   1      60.951  -3.554  28.700  0.00  0.00     0.030 C 
ATOM     16  N   UNL d   1      60.609  -2.139  28.455  0.00  0.00    -0.140 NA
ATOM     17  N   UNL d   1      59.950  -1.663  28.599  0.00  0.00    -0.134 NA
ENDBRANCH  11  12
ENDBRANCH  10  11
ENDBRANCH   8  10
ENDBRANCH   4   7
BRANCH   1  18
ATOM     18  C   UNL d   1      56.083   0.252  33.168  0.00  0.00     0.111 A 
ATOM     19  N   UNL d   1      55.268   0.330  33.137  0.00  0.00    -0.239 NA
ATOM     20  C   UNL d   1      54.996   0.454  33.903  0.00  0.00     0.088 A 
ATOM     21  C   UNL d   1      54.243   0.569  34.211  0.00  0.00     0.020 A 
ATOM     22  C   UNL d   1      55.650   0.452  34.407  0.00  0.00     0.049 A 
ATOM     23  C   UNL d   1      54.134   0.681  35.014  0.00  0.00     0.002 A 
ATOM     24  C   UNL d   1      54.782   0.680  35.524  0.00  0.00     0.001 A 
ATOM     25  C   UNL d   1      55.543   0.564  35.212  0.00  0.00     0.008 A 
ATOM     26  S   UNL d   1      56.319   0.327  33.951  0.00  0.00    -0.066 SA
ENDBRANCH   1  18
TORSDOF 5
ENDMDL
