MODEL 1
REMARK VINA RESULT:      -2.8      0.000      0.000
REMARK  7 active torsions:
REMARK  status: ('A' for Active; 'I' for Inactive)
REMARK    1  A    between atoms: C_3  and  S_1 
REMARK    2  A    between atoms: N_4  and  S_1 
REMARK    3  A    between atoms: C_6  and  C_2 
REMARK       I    between atoms: N_13  and  C_6 
REMARK    4  A    between atoms: C_17  and  N_13 
REMARK    5  A    between atoms: C_18  and  C_17 
REMARK    6  A    between atoms: C_20  and  C_18 
REMARK    7  A    between atoms: C_19  and  C_20 
ROOT
ATOM      1  C   UNL d   1      32.465  22.638 -21.300  0.00  0.00     0.086 A 
ATOM      2  C   UNL d   1      32.257  23.150 -19.977  0.00  0.00     0.104 A 
ATOM      3  C   UNL d   1      32.639  22.628 -20.488  0.00  0.00     0.020 A 
ATOM      4  C   UNL d   1      31.910  23.169 -21.595  0.00  0.00     0.145 A 
ATOM      5  C   UNL d   1      31.696  23.686 -20.274  0.00  0.00     0.015 A 
ATOM      6  C   UNL d   1      31.525  23.696 -21.075  0.00  0.00     0.030 A 
ATOM      7  F   UNL d   1      31.732  23.186 -22.395  0.00  0.00    -0.204 F 
ENDROOT
BRANCH   2   8
ATOM      8  S   UNL d   1      32.431  23.140 -19.162  0.00  0.00     0.271 S 
ATOM      9  O   UNL d   1      31.628  22.996 -19.005  0.00  0.00    -0.200 OA
ATOM     10  O   UNL d   1      33.226  23.283 -19.330  0.00  0.00    -0.200 OA
BRANCH   8  11
ATOM     11  N   UNL d   1      32.593  23.128 -18.356  0.00  0.00    -0.229 N 
ATOM     12  C   UNL d   1      33.081  22.542 -18.047  0.00  0.00     0.092 A 
ATOM     13  C   UNL d   1      33.241  22.535 -17.239  0.00  0.00     0.020 A 
ATOM     14  C   UNL d   1      32.920  23.103 -16.744  0.00  0.00     0.003 A 
ATOM     15  C   UNL d   1      32.431  23.691 -17.058  0.00  0.00     0.020 A 
ATOM     16  C   UNL d   1      32.267  23.702 -17.869  0.00  0.00     0.092 A 
ENDBRANCH   8  11
ENDBRANCH   2   8
BRANCH   1  17
ATOM     17  C   UNL d   1      32.851  22.113 -21.809  0.00  0.00     0.281 C 
ATOM     18  O   UNL d   1      33.241  22.410 -22.477  0.00  0.00    -0.265 OA
ATOM     19  N   UNL d   1      32.851  21.305 -21.657  0.00  0.00    -0.206 NA
BRANCH  19  20
ATOM     20  C   UNL d   1      33.236  20.779 -22.164  0.00  0.00     0.102 C 
BRANCH  20  21
ATOM     21  C   UNL d   1      32.888  20.063 -22.364  0.00  0.00     0.021 C 
BRANCH  21  22
ATOM     22  C   UNL d   1      33.204  19.613 -22.974  0.00  0.00     0.002 C 
BRANCH  22  23
ATOM     23  C   UNL d   1      32.782  18.967 -23.275  0.00  0.00     0.000 C 
ATOM     24  C   UNL d   1      33.165  18.395 -23.723  0.00  0.00     0.000 C 
ENDBRANCH  22  23
ENDBRANCH  21  22
ENDBRANCH  20  21
ENDBRANCH  19  20
ENDBRANCH   1  17
TORSDOF 7
ENDMDL
MODEL 2
REMARK VINA RESULT:      -2.5      3.469      6.760
REMARK  7 active torsions:
REMARK  status: ('A' for Active; 'I' for Inactive)
REMARK    1  A    between atoms: C_3  and  S_1 
REMARK    2  A    between atoms: N_4  and  S_1 
REMARK    3  A    between atoms: C_6  and  C_2 
REMARK       I    between atoms: N_13  and  C_6 
REMARK    4  A    between atoms: C_17  and  N_13 
REMARK    5  A    between atoms: C_18  and  C_17 
REMARK    6  A    between atoms: C_20  and  C_18 
REMARK    7  A    between atoms: C_19  and  C_20 
ROOT
ATOM      1  C   UNL d   1      32.571  18.943 -23.507  0.00  0.00     0.086 A 
ATOM      2  C   UNL d   1      31.729  18.044 -24.241  0.00  0.00     0.104 A 
ATOM      3  C   UNL d   1      32.064  18.286 -23.528  0.00  0.00     0.020 A 
ATOM      4  C   UNL d   1      32.740  19.353 -24.200  0.00  0.00     0.145 A 
ATOM      5  C   UNL d   1      31.899  18.458 -24.941  0.00  0.00     0.015 A 
ATOM      6  C   UNL d   1      32.401  19.106 -24.921  0.00  0.00     0.030 A 
ATOM      7  F   UNL d   1      33.241  20.003 -24.190  0.00  0.00    -0.204 F 
ENDROOT
BRANCH   2   8
ATOM      8  S   UNL d   1      31.220  17.385 -24.262  0.00  0.00     0.271 S 
ATOM      9  O   UNL d   1      30.571  17.902 -24.240  0.00  0.00    -0.200 OA
ATOM     10  O   UNL d   1      31.873  16.881 -24.284  0.00  0.00    -0.200 OA
BRANCH   8  11
ATOM     11  N   UNL d   1      30.709  16.741 -24.282  0.00  0.00    -0.229 N 
ATOM     12  C   UNL d   1      30.269  16.591 -24.961  0.00  0.00     0.092 A 
ATOM     13  C   UNL d   1      29.758  15.944 -24.977  0.00  0.00     0.020 A 
ATOM     14  C   UNL d   1      29.687  15.453 -24.326  0.00  0.00     0.003 A 
ATOM     15  C   UNL d   1      30.131  15.606 -23.646  0.00  0.00     0.020 A 
ATOM     16  C   UNL d   1      30.645  16.254 -23.625  0.00  0.00     0.092 A 
ENDBRANCH   8  11
ENDBRANCH   2   8
BRANCH   1  17
ATOM     17  C   UNL d   1      32.904  19.182 -22.789  0.00  0.00     0.281 C 
ATOM     18  O   UNL d   1      33.240  18.613 -22.290  0.00  0.00    -0.265 OA
ATOM     19  N   UNL d   1      32.904  19.975 -22.570  0.00  0.00    -0.206 NA
BRANCH  19  20
ATOM     20  C   UNL d   1      33.237  20.215 -21.853  0.00  0.00     0.102 C 
BRANCH  20  21
ATOM     21  C   UNL d   1      33.071  20.959 -21.546  0.00  0.00     0.021 C 
BRANCH  21  22
ATOM     22  C   UNL d   1      33.174  21.099 -20.744  0.00  0.00     0.002 C 
BRANCH  22  23
ATOM     23  C   UNL d   1      32.981  21.838 -20.425  0.00  0.00     0.000 C 
ATOM     24  C   UNL d   1      33.039  21.967 -19.615  0.00  0.00     0.000 C 
ENDBRANCH  22  23
ENDBRANCH  21  22
ENDBRANCH  20  21
ENDBRANCH  19  20
ENDBRANCH   1  17
TORSDOF 7
ENDMDL
MODEL 3
REMARK VINA RESULT:      -0.7      1.865      2.768
REMARK  7 active torsions:
REMARK  status: ('A' for Active; 'I' for Inactive)
REMARK    1  A    between atoms: C_3  and  S_1 
REMARK    2  A    between atoms: N_4  and  S_1 
REMARK    3  A    between atoms: C_6  and  C_2 
REMARK       I    between atoms: N_13  and  C_6 
REMARK    4  A    between atoms: C_17  and  N_13 
REMARK    5  A    between atoms: C_18  and  C_17 
REMARK    6  A    between atoms: C_20  and  C_18 
REMARK    7  A    between atoms: C_19  and  C_20 
ROOT
ATOM      1  C   UNL d   1      33.230  21.046 -23.543  0.00  0.00     0.086 A 
ATOM      2  C   UNL d   1      33.219  21.983 -22.458  0.00  0.00     0.104 A 
ATOM      3  C   UNL d   1      33.224  21.204 -22.728  0.00  0.00     0.020 A 
ATOM      4  C   UNL d   1      33.233  21.668 -24.082  0.00  0.00     0.145 A 
ATOM      5  C   UNL d   1      33.222  22.611 -23.001  0.00  0.00     0.015 A 
ATOM      6  C   UNL d   1      33.229  22.455 -23.806  0.00  0.00     0.030 A 
ATOM      7  F   UNL d   1      33.239  21.521 -24.889  0.00  0.00    -0.204 F 
ENDROOT
BRANCH   2   8
ATOM      8  S   UNL d   1      33.213  22.142 -21.640  0.00  0.00     0.271 S 
ATOM      9  O   UNL d   1      33.187  22.954 -21.811  0.00  0.00    -0.200 OA
ATOM     10  O   UNL d   1      33.239  21.332 -21.483  0.00  0.00    -0.200 OA
BRANCH   8  11
ATOM     11  N   UNL d   1      33.206  22.308 -20.835  0.00  0.00    -0.229 N 
ATOM     12  C   UNL d   1      33.165  21.691 -20.292  0.00  0.00     0.092 A 
ATOM     13  C   UNL d   1      33.158  21.863 -19.486  0.00  0.00     0.020 A 
ATOM     14  C   UNL d   1      33.192  22.638 -19.223  0.00  0.00     0.003 A 
ATOM     15  C   UNL d   1      33.233  23.255 -19.772  0.00  0.00     0.020 A 
ATOM     16  C   UNL d   1      33.240  23.088 -20.582  0.00  0.00     0.092 A 
ENDBRANCH   8  11
ENDBRANCH   2   8
BRANCH   1  17
ATOM     17  C   UNL d   1      33.234  20.263 -23.810  0.00  0.00     0.281 C 
ATOM     18  O   UNL d   1      33.236  20.113 -24.624  0.00  0.00    -0.265 OA
ATOM     19  N   UNL d   1      33.237  19.638 -23.275  0.00  0.00    -0.206 NA
BRANCH  19  20
ATOM     20  C   UNL d   1      33.241  18.856 -23.540  0.00  0.00     0.102 C 
BRANCH  20  21
ATOM     21  C   UNL d   1      33.025  18.245 -23.035  0.00  0.00     0.021 C 
BRANCH  21  22
ATOM     22  C   UNL d   1      32.599  17.607 -23.328  0.00  0.00     0.002 C 
BRANCH  22  23
ATOM     23  C   UNL d   1      32.756  16.842 -23.052  0.00  0.00     0.000 C 
ATOM     24  C   UNL d   1      32.162  16.275 -23.046  0.00  0.00     0.000 C 
ENDBRANCH  22  23
ENDBRANCH  21  22
ENDBRANCH  20  21
ENDBRANCH  19  20
ENDBRANCH   1  17
TORSDOF 7
ENDMDL
