MODEL 1
REMARK VINA RESULT:     103.1      0.000      0.000
REMARK  4 active torsions:
REMARK  status: ('A' for Active; 'I' for Inactive)
REMARK    1  A    between atoms: N_10  and  C_3 
REMARK    2  A    between atoms: C_15  and  C_5 
REMARK    3  A    between atoms: C_14  and  C_9 
REMARK       I    between atoms: C_11  and  N_12 
REMARK    4  A    between atoms: C_13  and  C_11 
ROOT
ATOM      1  N   UNL d   1      45.489 -18.156  40.910  0.00  0.00    -0.196 N 
ATOM      2  C   UNL d   1      45.632 -18.392  41.699  0.00  0.00     0.167 A 
ATOM      3  C   UNL d   1      45.120 -17.436  40.767  0.00  0.00     0.152 A 
ATOM      4  N   UNL d   1      46.086 -19.362  40.456  0.00  0.00    -0.163 NA
ATOM      5  C   UNL d   1      45.997 -19.103  41.859  0.00  0.00     0.055 A 
ATOM      6  N   UNL d   1      45.402 -17.901  42.326  0.00  0.00    -0.231 NA
ATOM      7  C   UNL d   1      44.888 -16.940  41.396  0.00  0.00     0.052 A 
ATOM      8  C   UNL d   1      46.226 -19.594  41.233  0.00  0.00     0.104 A 
ATOM      9  C   UNL d   1      45.028 -17.172  42.173  0.00  0.00     0.063 A 
ATOM     10  C   UNL d   1      46.595 -20.314  41.380  0.00  0.00     0.023 C 
ENDROOT
BRANCH   3  11
ATOM     11  N   UNL d   1      44.972 -17.193  39.953  0.00  0.00    -0.286 N 
ATOM     12  C   UNL d   1      44.297 -16.991  39.541  0.00  0.00     0.101 A 
ATOM     13  C   UNL d   1      44.353 -16.782  38.753  0.00  0.00     0.102 A 
ATOM     14  N   UNL d   1      45.080 -16.775  38.384  0.00  0.00    -0.267 N 
ATOM     15  C   UNL d   1      45.130 -16.568  37.606  0.00  0.00     0.288 C 
ATOM     16  C   UNL d   1      45.738 -16.975  38.799  0.00  0.00     0.102 A 
ATOM     17  O   UNL d   1      45.852 -16.559  37.234  0.00  0.00    -0.264 OA
ATOM     18  C   UNL d   1      45.688 -17.186  39.591  0.00  0.00     0.101 A 
BRANCH  15  19
ATOM     19  C   UNL d   1      44.467 -16.367  37.191  0.00  0.00     0.156 A 
ATOM     20  O   UNL d   1      43.852 -15.995  37.565  0.00  0.00    -0.300 OA
ATOM     21  C   UNL d   1      43.183 -15.791  37.155  0.00  0.00     0.123 A 
ATOM     22  C   UNL d   1      43.128 -15.959  36.367  0.00  0.00     0.029 A 
ATOM     23  C   UNL d   1      44.410 -16.534  36.404  0.00  0.00     0.032 A 
ENDBRANCH  15  19
ENDBRANCH   3  11
BRANCH   9  24
ATOM     24  C   UNL d   1      44.790 -16.663  42.825  0.00  0.00     0.036 C 
ATOM     25  C   UNL d   1      44.561 -16.159  43.470  0.00  0.00     0.006 C 
ATOM     26  C   UNL d   1      43.968 -16.652  43.081  0.00  0.00     0.006 C 
ATOM     27  C   UNL d   1      45.379 -16.174  43.211  0.00  0.00     0.006 C 
ENDBRANCH   9  24
BRANCH   5  28
ATOM     28  C   UNL d   1      46.138 -19.336  42.641  0.00  0.00     0.004 A 
ATOM     29  C   UNL d   1      46.502 -18.811  43.161  0.00  0.00     0.000 A 
ATOM     30  C   UNL d   1      46.645 -19.046  43.950  0.00  0.00     0.000 A 
ATOM     31  C   UNL d   1      46.419 -19.800  44.195  0.00  0.00     0.000 A 
ATOM     32  C   UNL d   1      46.054 -20.320  43.663  0.00  0.00     0.000 A 
ATOM     33  C   UNL d   1      45.913 -20.088  42.886  0.00  0.00     0.000 A 
ENDBRANCH   5  28
TORSDOF 4
ENDMDL
