MODEL 1
REMARK VINA RESULT:      -7.2      0.000      0.000
REMARK  4 active torsions:
REMARK  status: ('A' for Active; 'I' for Inactive)
REMARK    1  A    between atoms: C_7  and  N_1 
REMARK    2  A    between atoms: C_12  and  N_4 
REMARK    3  A    between atoms: C_8  and  C_7 
REMARK    4  A    between atoms: C_16  and  C_12 
ROOT
ATOM      1  N   UNL d   1     -49.057  13.198  22.736  0.00  0.00    -0.273 N 
ATOM      2  C   UNL d   1     -49.268  12.387  22.708  0.00  0.00     0.153 A 
ATOM      3  S   UNL d   1     -48.749  11.823  22.988  0.00  0.00    -0.039 SA
ATOM      4  N   UNL d   1     -47.808  12.853  23.326  0.00  0.00    -0.281 N 
ATOM      5  C   UNL d   1     -48.332  13.427  23.043  0.00  0.00     0.168 A 
ATOM      6  C   UNL d   1     -48.019  12.043  23.298  0.00  0.00     0.120 A 
ATOM      7  S   UNL d   1     -50.007  12.162  22.394  0.00  0.00    -0.052 SA
ENDROOT
BRANCH   4   8
ATOM      8  C   UNL d   1     -47.079  13.069  23.636  0.00  0.00     0.101 C 
BRANCH   8   9
ATOM      9  C   UNL d   1     -46.407  13.044  23.160  0.00  0.00     0.099 A 
ATOM     10  N   UNL d   1     -45.942  12.359  23.166  0.00  0.00    -0.242 NA
ATOM     11  C   UNL d   1     -45.264  12.327  22.689  0.00  0.00     0.099 A 
ATOM     12  C   UNL d   1     -45.060  12.973  22.216  0.00  0.00     0.021 A 
ATOM     13  C   UNL d   1     -45.533  13.652  22.219  0.00  0.00     0.003 A 
ATOM     14  C   UNL d   1     -46.201  13.684  22.688  0.00  0.00     0.021 A 
ENDBRANCH   8   9
ENDBRANCH   4   8
BRANCH   1  15
ATOM     15  C   UNL d   1     -49.592  13.762  22.449  0.00  0.00     0.107 C 
BRANCH  15  16
ATOM     16  C   UNL d   1     -49.675  14.496  22.822  0.00  0.00     0.118 A 
ATOM     17  O   UNL d   1     -50.068  14.631  23.538  0.00  0.00    -0.304 OA
ATOM     18  C   UNL d   1     -50.014  15.439  23.698  0.00  0.00     0.123 A 
ATOM     19  C   UNL d   1     -49.597  15.795  23.096  0.00  0.00     0.029 A 
ATOM     20  C   UNL d   1     -49.386  15.212  22.552  0.00  0.00     0.028 A 
ENDBRANCH  15  16
ENDBRANCH   1  15
TORSDOF 4
ENDMDL
MODEL 2
REMARK VINA RESULT:      -6.7      1.490      3.500
REMARK  4 active torsions:
REMARK  status: ('A' for Active; 'I' for Inactive)
REMARK    1  A    between atoms: C_7  and  N_1 
REMARK    2  A    between atoms: C_12  and  N_4 
REMARK    3  A    between atoms: C_8  and  C_7 
REMARK    4  A    between atoms: C_16  and  C_12 
ROOT
ATOM      1  N   UNL d   1     -47.304  12.230  23.648  0.00  0.00    -0.273 N 
ATOM      2  C   UNL d   1     -47.418  11.400  23.666  0.00  0.00     0.153 A 
ATOM      3  S   UNL d   1     -48.174  11.094  23.652  0.00  0.00    -0.039 SA
ATOM      4  N   UNL d   1     -48.714  12.423  23.604  0.00  0.00    -0.281 N 
ATOM      5  C   UNL d   1     -47.948  12.736  23.618  0.00  0.00     0.168 A 
ATOM      6  C   UNL d   1     -48.828  11.593  23.622  0.00  0.00     0.120 A 
ATOM      7  S   UNL d   1     -46.757  10.891  23.697  0.00  0.00    -0.052 SA
ENDROOT
BRANCH   4   8
ATOM      8  C   UNL d   1     -49.368  12.918  23.574  0.00  0.00     0.101 C 
BRANCH   8   9
ATOM      9  C   UNL d   1     -49.684  13.136  22.845  0.00  0.00     0.099 A 
ATOM     10  N   UNL d   1     -49.544  13.904  22.566  0.00  0.00    -0.242 NA
ATOM     11  C   UNL d   1     -49.858  14.131  21.834  0.00  0.00     0.099 A 
ATOM     12  C   UNL d   1     -50.305  13.594  21.391  0.00  0.00     0.021 A 
ATOM     13  C   UNL d   1     -50.438  12.831  21.680  0.00  0.00     0.003 A 
ATOM     14  C   UNL d   1     -50.128  12.607  22.402  0.00  0.00     0.021 A 
ENDBRANCH   8   9
ENDBRANCH   4   8
BRANCH   1  15
ATOM     15  C   UNL d   1     -46.532  12.530  23.662  0.00  0.00     0.107 C 
BRANCH  15  16
ATOM     16  C   UNL d   1     -46.326  13.192  23.211  0.00  0.00     0.118 A 
ATOM     17  O   UNL d   1     -46.364  13.980  23.464  0.00  0.00    -0.304 OA
ATOM     18  C   UNL d   1     -46.107  14.451  22.837  0.00  0.00     0.123 A 
ATOM     19  C   UNL d   1     -45.915  13.967  22.212  0.00  0.00     0.029 A 
ATOM     20  C   UNL d   1     -46.049  13.187  22.441  0.00  0.00     0.028 A 
ENDBRANCH  15  16
ENDBRANCH   1  15
TORSDOF 4
ENDMDL
MODEL 3
REMARK VINA RESULT:      -6.6      1.757      3.914
REMARK  4 active torsions:
REMARK  status: ('A' for Active; 'I' for Inactive)
REMARK    1  A    between atoms: C_7  and  N_1 
REMARK    2  A    between atoms: C_12  and  N_4 
REMARK    3  A    between atoms: C_8  and  C_7 
REMARK    4  A    between atoms: C_16  and  C_12 
ROOT
ATOM      1  N   UNL d   1     -47.720  14.031  22.648  0.00  0.00    -0.273 N 
ATOM      2  C   UNL d   1     -48.093  14.741  22.406  0.00  0.00     0.153 A 
ATOM      3  S   UNL d   1     -48.824  14.713  22.044  0.00  0.00    -0.039 SA
ATOM      4  N   UNL d   1     -48.826  13.282  22.156  0.00  0.00    -0.281 N 
ATOM      5  C   UNL d   1     -48.085  13.308  22.523  0.00  0.00     0.168 A 
ATOM      6  C   UNL d   1     -49.199  13.992  21.914  0.00  0.00     0.120 A 
ATOM      7  S   UNL d   1     -47.716  15.473  22.537  0.00  0.00    -0.052 SA
ENDROOT
BRANCH   4   8
ATOM      8  C   UNL d   1     -49.203  12.564  22.024  0.00  0.00     0.101 C 
BRANCH   8   9
ATOM      9  C   UNL d   1     -49.736  12.272  22.581  0.00  0.00     0.099 A 
ATOM     10  N   UNL d   1     -50.519  12.544  22.559  0.00  0.00    -0.242 NA
ATOM     11  C   UNL d   1     -51.061  12.256  23.116  0.00  0.00     0.099 A 
ATOM     12  C   UNL d   1     -50.819  11.704  23.682  0.00  0.00     0.021 A 
ATOM     13  C   UNL d   1     -50.035  11.440  23.693  0.00  0.00     0.003 A 
ATOM     14  C   UNL d   1     -49.500  11.725  23.145  0.00  0.00     0.021 A 
ENDBRANCH   8   9
ENDBRANCH   4   8
BRANCH   1  15
ATOM     15  C   UNL d   1     -46.978  14.072  23.015  0.00  0.00     0.107 C 
BRANCH  15  16
ATOM     16  C   UNL d   1     -46.416  13.475  22.902  0.00  0.00     0.118 A 
ATOM     17  O   UNL d   1     -46.285  12.833  23.410  0.00  0.00    -0.304 OA
ATOM     18  C   UNL d   1     -45.677  12.382  23.081  0.00  0.00     0.123 A 
ATOM     19  C   UNL d   1     -45.437  12.736  22.389  0.00  0.00     0.029 A 
ATOM     20  C   UNL d   1     -45.893  13.413  22.276  0.00  0.00     0.028 A 
ENDBRANCH  15  16
ENDBRANCH   1  15
TORSDOF 4
ENDMDL
MODEL 4
REMARK VINA RESULT:      -6.0      1.809      3.895
REMARK  4 active torsions:
REMARK  status: ('A' for Active; 'I' for Inactive)
REMARK    1  A    between atoms: C_7  and  N_1 
REMARK    2  A    between atoms: C_12  and  N_4 
REMARK    3  A    between atoms: C_8  and  C_7 
REMARK    4  A    between atoms: C_16  and  C_12 
ROOT
ATOM      1  N   UNL d   1     -47.449  13.492  23.105  0.00  0.00    -0.273 N 
ATOM      2  C   UNL d   1     -46.875  13.988  22.750  0.00  0.00     0.153 A 
ATOM      3  S   UNL d   1     -47.072  14.752  22.542  0.00  0.00    -0.039 SA
ATOM      4  N   UNL d   1     -48.405  14.545  23.032  0.00  0.00    -0.281 N 
ATOM      5  C   UNL d   1     -48.208  13.770  23.244  0.00  0.00     0.168 A 
ATOM      6  C   UNL d   1     -47.831  15.041  22.677  0.00  0.00     0.120 A 
ATOM      7  S   UNL d   1     -46.106  13.698  22.612  0.00  0.00    -0.052 SA
ENDROOT
BRANCH   4   8
ATOM      8  C   UNL d   1     -49.161  14.836  23.165  0.00  0.00     0.101 C 
BRANCH   8   9
ATOM      9  C   UNL d   1     -49.793  14.561  22.713  0.00  0.00     0.099 A 
ATOM     10  N   UNL d   1     -50.402  14.147  23.094  0.00  0.00    -0.242 NA
ATOM     11  C   UNL d   1     -51.040  13.867  22.646  0.00  0.00     0.099 A 
ATOM     12  C   UNL d   1     -51.064  14.001  21.830  0.00  0.00     0.021 A 
ATOM     13  C   UNL d   1     -50.450  14.415  21.462  0.00  0.00     0.003 A 
ATOM     14  C   UNL d   1     -49.821  14.691  21.904  0.00  0.00     0.021 A 
ENDBRANCH   8   9
ENDBRANCH   4   8
BRANCH   1  15
ATOM     15  C   UNL d   1     -47.239  12.718  23.313  0.00  0.00     0.107 C 
BRANCH  15  16
ATOM     16  C   UNL d   1     -47.742  12.083  23.148  0.00  0.00     0.118 A 
ATOM     17  O   UNL d   1     -47.939  11.805  22.392  0.00  0.00    -0.304 OA
ATOM     18  C   UNL d   1     -48.453  11.168  22.492  0.00  0.00     0.123 A 
ATOM     19  C   UNL d   1     -48.572  11.053  23.289  0.00  0.00     0.029 A 
ATOM     20  C   UNL d   1     -48.133  11.618  23.698  0.00  0.00     0.028 A 
ENDBRANCH  15  16
ENDBRANCH   1  15
TORSDOF 4
ENDMDL
MODEL 5
REMARK VINA RESULT:      -5.5      1.448      2.972
REMARK  4 active torsions:
REMARK  status: ('A' for Active; 'I' for Inactive)
REMARK    1  A    between atoms: C_7  and  N_1 
REMARK    2  A    between atoms: C_12  and  N_4 
REMARK    3  A    between atoms: C_8  and  C_7 
REMARK    4  A    between atoms: C_16  and  C_12 
ROOT
ATOM      1  N   UNL d   1     -47.239  13.653  23.021  0.00  0.00    -0.273 N 
ATOM      2  C   UNL d   1     -46.544  13.257  22.773  0.00  0.00     0.153 A 
ATOM      3  S   UNL d   1     -46.494  12.445  22.837  0.00  0.00    -0.039 SA
ATOM      4  N   UNL d   1     -47.818  12.406  23.392  0.00  0.00    -0.281 N 
ATOM      5  C   UNL d   1     -47.871  13.229  23.328  0.00  0.00     0.168 A 
ATOM      6  C   UNL d   1     -47.122  12.010  23.144  0.00  0.00     0.120 A 
ATOM      7  S   UNL d   1     -45.906  13.696  22.462  0.00  0.00    -0.052 SA
ENDROOT
BRANCH   4   8
ATOM      8  C   UNL d   1     -48.443  11.969  23.697  0.00  0.00     0.101 C 
BRANCH   8   9
ATOM      9  C   UNL d   1     -49.162  11.945  23.295  0.00  0.00     0.099 A 
ATOM     10  N   UNL d   1     -49.164  11.716  22.499  0.00  0.00    -0.242 NA
ATOM     11  C   UNL d   1     -49.883  11.690  22.088  0.00  0.00     0.099 A 
ATOM     12  C   UNL d   1     -50.587  11.891  22.474  0.00  0.00     0.021 A 
ATOM     13  C   UNL d   1     -50.572  12.119  23.269  0.00  0.00     0.003 A 
ATOM     14  C   UNL d   1     -49.863  12.144  23.673  0.00  0.00     0.021 A 
ENDBRANCH   8   9
ENDBRANCH   4   8
BRANCH   1  15
ATOM     15  C   UNL d   1     -47.279  14.478  22.951  0.00  0.00     0.107 C 
BRANCH  15  16
ATOM     16  C   UNL d   1     -47.990  14.854  22.757  0.00  0.00     0.118 A 
ATOM     17  O   UNL d   1     -48.557  15.123  23.298  0.00  0.00    -0.304 OA
ATOM     18  C   UNL d   1     -49.171  15.460  22.861  0.00  0.00     0.123 A 
ATOM     19  C   UNL d   1     -48.989  15.400  22.070  0.00  0.00     0.029 A 
ATOM     20  C   UNL d   1     -48.258  15.025  22.003  0.00  0.00     0.028 A 
ENDBRANCH  15  16
ENDBRANCH   1  15
TORSDOF 4
ENDMDL
MODEL 6
REMARK VINA RESULT:      -5.3      8.974     10.147
REMARK  4 active torsions:
REMARK  status: ('A' for Active; 'I' for Inactive)
REMARK    1  A    between atoms: C_7  and  N_1 
REMARK    2  A    between atoms: C_12  and  N_4 
REMARK    3  A    between atoms: C_8  and  C_7 
REMARK    4  A    between atoms: C_16  and  C_12 
ROOT
ATOM      1  N   UNL d   1     -39.691  15.028  17.779  0.00  0.00    -0.273 N 
ATOM      2  C   UNL d   1     -40.431  15.417  17.720  0.00  0.00     0.153 A 
ATOM      3  S   UNL d   1     -40.710  15.857  18.348  0.00  0.00    -0.039 SA
ATOM      4  N   UNL d   1     -39.531  15.532  19.101  0.00  0.00    -0.281 N 
ATOM      5  C   UNL d   1     -39.246  15.086  18.465  0.00  0.00     0.168 A 
ATOM      6  C   UNL d   1     -40.271  15.922  19.042  0.00  0.00     0.120 A 
ATOM      7  S   UNL d   1     -40.878  15.353  17.018  0.00  0.00    -0.052 SA
ENDROOT
BRANCH   4   8
ATOM      8  C   UNL d   1     -39.096  15.599  19.794  0.00  0.00     0.101 C 
BRANCH   8   9
ATOM      9  C   UNL d   1     -39.181  15.034  20.388  0.00  0.00     0.099 A 
ATOM     10  N   UNL d   1     -38.550  14.518  20.537  0.00  0.00    -0.242 NA
ATOM     11  C   UNL d   1     -38.628  13.947  21.133  0.00  0.00     0.099 A 
ATOM     12  C   UNL d   1     -39.329  13.898  21.570  0.00  0.00     0.021 A 
ATOM     13  C   UNL d   1     -39.951  14.420  21.412  0.00  0.00     0.003 A 
ATOM     14  C   UNL d   1     -39.874  14.982  20.824  0.00  0.00     0.021 A 
ENDBRANCH   8   9
ENDBRANCH   4   8
BRANCH   1  15
ATOM     15  C   UNL d   1     -39.418  14.585  17.135  0.00  0.00     0.107 C 
BRANCH  15  16
ATOM     16  C   UNL d   1     -38.997  13.881  17.252  0.00  0.00     0.118 A 
ATOM     17  O   UNL d   1     -39.314  13.172  17.539  0.00  0.00    -0.304 OA
ATOM     18  C   UNL d   1     -38.700  12.622  17.565  0.00  0.00     0.123 A 
ATOM     19  C   UNL d   1     -38.019  12.982  17.299  0.00  0.00     0.029 A 
ATOM     20  C   UNL d   1     -38.201  13.762  17.105  0.00  0.00     0.028 A 
ENDBRANCH  15  16
ENDBRANCH   1  15
TORSDOF 4
ENDMDL
MODEL 7
REMARK VINA RESULT:      -4.8      8.152      9.797
REMARK  4 active torsions:
REMARK  status: ('A' for Active; 'I' for Inactive)
REMARK    1  A    between atoms: C_7  and  N_1 
REMARK    2  A    between atoms: C_12  and  N_4 
REMARK    3  A    between atoms: C_8  and  C_7 
REMARK    4  A    between atoms: C_16  and  C_12 
ROOT
ATOM      1  N   UNL d   1     -38.938  14.795  20.356  0.00  0.00    -0.273 N 
ATOM      2  C   UNL d   1     -38.397  14.155  20.345  0.00  0.00     0.153 A 
ATOM      3  S   UNL d   1     -37.944  14.019  19.680  0.00  0.00    -0.039 SA
ATOM      4  N   UNL d   1     -38.553  15.144  19.030  0.00  0.00    -0.281 N 
ATOM      5  C   UNL d   1     -39.014  15.285  19.703  0.00  0.00     0.168 A 
ATOM      6  C   UNL d   1     -38.012  14.504  19.019  0.00  0.00     0.120 A 
ATOM      7  S   UNL d   1     -38.325  13.662  21.013  0.00  0.00    -0.052 SA
ENDROOT
BRANCH   4   8
ATOM      8  C   UNL d   1     -38.620  15.626  18.369  0.00  0.00     0.101 C 
BRANCH   8   9
ATOM      9  C   UNL d   1     -39.184  15.458  17.793  0.00  0.00     0.099 A 
ATOM     10  N   UNL d   1     -39.870  15.922  17.763  0.00  0.00    -0.242 NA
ATOM     11  C   UNL d   1     -40.442  15.758  17.186  0.00  0.00     0.099 A 
ATOM     12  C   UNL d   1     -40.325  15.139  16.650  0.00  0.00     0.021 A 
ATOM     13  C   UNL d   1     -39.636  14.684  16.691  0.00  0.00     0.003 A 
ATOM     14  C   UNL d   1     -39.072  14.845  17.259  0.00  0.00     0.021 A 
ENDBRANCH   8   9
ENDBRANCH   4   8
BRANCH   1  15
ATOM     15  C   UNL d   1     -39.393  14.925  21.036  0.00  0.00     0.107 C 
BRANCH  15  16
ATOM     16  C   UNL d   1     -40.183  15.165  20.978  0.00  0.00     0.118 A 
ATOM     17  O   UNL d   1     -40.824  14.677  20.786  0.00  0.00    -0.304 OA
ATOM     18  C   UNL d   1     -41.501  15.148  20.793  0.00  0.00     0.123 A 
ATOM     19  C   UNL d   1     -41.285  15.909  20.985  0.00  0.00     0.029 A 
ATOM     20  C   UNL d   1     -40.469  15.922  21.101  0.00  0.00     0.028 A 
ENDBRANCH  15  16
ENDBRANCH   1  15
TORSDOF 4
ENDMDL
MODEL 8
REMARK VINA RESULT:      -4.7      9.503     10.279
REMARK  4 active torsions:
REMARK  status: ('A' for Active; 'I' for Inactive)
REMARK    1  A    between atoms: C_7  and  N_1 
REMARK    2  A    between atoms: C_12  and  N_4 
REMARK    3  A    between atoms: C_8  and  C_7 
REMARK    4  A    between atoms: C_16  and  C_12 
ROOT
ATOM      1  N   UNL d   1     -39.544  14.697  18.631  0.00  0.00    -0.273 N 
ATOM      2  C   UNL d   1     -40.017  15.386  18.688  0.00  0.00     0.153 A 
ATOM      3  S   UNL d   1     -39.897  15.912  19.300  0.00  0.00    -0.039 SA
ATOM      4  N   UNL d   1     -38.840  15.084  19.807  0.00  0.00    -0.281 N 
ATOM      5  C   UNL d   1     -38.960  14.549  19.187  0.00  0.00     0.168 A 
ATOM      6  C   UNL d   1     -39.314  15.773  19.864  0.00  0.00     0.120 A 
ATOM      7  S   UNL d   1     -40.609  15.530  18.118  0.00  0.00    -0.052 SA
ENDROOT
BRANCH   4   8
ATOM      8  C   UNL d   1     -38.259  14.948  20.371  0.00  0.00     0.101 C 
BRANCH   8   9
ATOM      9  C   UNL d   1     -38.416  14.452  21.010  0.00  0.00     0.099 A 
ATOM     10  N   UNL d   1     -38.086  13.691  21.011  0.00  0.00    -0.242 NA
ATOM     11  C   UNL d   1     -38.240  13.187  21.651  0.00  0.00     0.099 A 
ATOM     12  C   UNL d   1     -38.715  13.445  22.277  0.00  0.00     0.021 A 
ATOM     13  C   UNL d   1     -39.038  14.206  22.263  0.00  0.00     0.003 A 
ATOM     14  C   UNL d   1     -38.887  14.703  21.633  0.00  0.00     0.021 A 
ENDBRANCH   8   9
ENDBRANCH   4   8
BRANCH   1  15
ATOM     15  C   UNL d   1     -39.674  14.170  18.005  0.00  0.00     0.107 C 
BRANCH  15  16
ATOM     16  C   UNL d   1     -39.041  13.795  17.628  0.00  0.00     0.118 A 
ATOM     17  O   UNL d   1     -38.458  14.170  17.173  0.00  0.00    -0.304 OA
ATOM     18  C   UNL d   1     -37.942  13.584  16.906  0.00  0.00     0.123 A 
ATOM     19  C   UNL d   1     -38.197  12.865  17.189  0.00  0.00     0.029 A 
ATOM     20  C   UNL d   1     -38.878  12.993  17.636  0.00  0.00     0.028 A 
ENDBRANCH  15  16
ENDBRANCH   1  15
TORSDOF 4
ENDMDL
