MODEL 1
REMARK VINA RESULT:      60.9      0.000      0.000
REMARK  2 active torsions:
REMARK  status: ('A' for Active; 'I' for Inactive)
REMARK    1  A    between atoms: C_7  and  N_1 
REMARK    2  A    between atoms: C_9  and  C_2 
ROOT
ATOM      1  N   UNL d   1      14.009  13.919  -3.263  0.00  0.00    -0.273 N 
ATOM      2  C   UNL d   1      13.785  13.717  -4.035  0.00  0.00     0.174 A 
ATOM      3  N   UNL d   1      13.869  14.387  -4.504  0.00  0.00    -0.204 NA
ATOM      4  C   UNL d   1      14.228  14.710  -3.264  0.00  0.00     0.185 A 
ATOM      5  C   UNL d   1      14.143  15.000  -4.028  0.00  0.00     0.199 A 
ATOM      6  N   UNL d   1      14.498  15.210  -2.662  0.00  0.00    -0.224 NA
ATOM      7  N   UNL d   1      14.325  15.786  -4.196  0.00  0.00    -0.223 NA
ATOM      8  C   UNL d   1      14.678  15.991  -2.830  0.00  0.00     0.101 A 
ATOM      9  C   UNL d   1      14.594  16.284  -3.591  0.00  0.00     0.101 A 
ATOM     10  C   UNL d   1      14.947  16.490  -2.230  0.00  0.00     0.021 A 
ATOM     11  C   UNL d   1      14.775  17.068  -3.762  0.00  0.00     0.021 A 
ATOM     12  C   UNL d   1      15.044  17.570  -3.165  0.00  0.00     0.002 A 
ATOM     13  C   UNL d   1      15.130  17.275  -2.392  0.00  0.00     0.002 A 
ENDROOT
BRANCH   1  14
ATOM     14  C   UNL d   1      13.997  13.385  -2.635  0.00  0.00     0.069 A 
ATOM     15  C   UNL d   1      14.587  13.421  -2.055  0.00  0.00     0.044 A 
ATOM     16  C   UNL d   1      14.576  12.889  -1.429  0.00  0.00     0.124 A 
ATOM     17  O   UNL d   1      15.161  12.927  -0.857  0.00  0.00    -0.301 OA
ATOM     18  C   UNL d   1      13.975  12.320  -1.382  0.00  0.00     0.123 A 
ATOM     19  C   UNL d   1      15.153  12.389  -0.218  0.00  0.00     0.149 A 
ATOM     20  C   UNL d   1      14.551  11.814  -0.165  0.00  0.00     0.149 A 
ATOM     21  O   UNL d   1      13.962  11.780  -0.747  0.00  0.00    -0.301 OA
ATOM     22  C   UNL d   1      13.388  12.282  -1.956  0.00  0.00     0.028 A 
ATOM     23  C   UNL d   1      13.399  12.814  -2.583  0.00  0.00     0.020 A 
ENDBRANCH   1  14
BRANCH   2  24
ATOM     24  C   UNL d   1      13.525  12.977  -4.284  0.00  0.00     0.135 A 
ATOM     25  O   UNL d   1      13.933  12.460  -4.781  0.00  0.00    -0.302 OA
ATOM     26  C   UNL d   1      13.464  11.781  -4.881  0.00  0.00     0.123 A 
ATOM     27  C   UNL d   1      12.769  11.887  -4.443  0.00  0.00     0.029 A 
ATOM     28  C   UNL d   1      12.807  12.625  -4.074  0.00  0.00     0.030 A 
ENDBRANCH   2  24
TORSDOF 2
ENDMDL
