MODEL 1
REMARK VINA RESULT:      -6.2      0.000      0.000
REMARK  3 active torsions:
REMARK  status: ('A' for Active; 'I' for Inactive)
REMARK    1  A    between atoms: C_6  and  N_2 
REMARK    2  A    between atoms: C_7  and  C_6 
REMARK       I    between atoms: N_11  and  C_7 
REMARK    3  A    between atoms: C_14  and  N_11 
ROOT
ATOM      1  S   UNL d   1     -41.712-121.719 -53.447  0.00  0.00     0.274 S 
ATOM      2  N   UNL d   1     -41.401-122.338 -53.018  0.00  0.00    -0.192 N 
ATOM      3  C   UNL d   1     -41.407-123.017 -53.492  0.00  0.00     0.275 A 
ATOM      4  C   UNL d   1     -41.727-122.800 -54.214  0.00  0.00     0.069 A 
ATOM      5  C   UNL d   1     -41.912-122.007 -54.186  0.00  0.00     0.109 A 
ATOM      6  O   UNL d   1     -41.465-121.568 -52.674  0.00  0.00    -0.200 OA
ATOM      7  O   UNL d   1     -41.979-120.961 -53.664  0.00  0.00    -0.200 OA
ATOM      8  O   UNL d   1     -41.147-123.764 -53.287  0.00  0.00    -0.266 OA
ATOM      9  C   UNL d   1     -41.871-123.237 -54.899  0.00  0.00     0.005 A 
ATOM     10  C   UNL d   1     -42.246-121.636 -54.843  0.00  0.00     0.013 A 
ATOM     11  C   UNL d   1     -42.205-122.865 -55.557  0.00  0.00     0.000 A 
ATOM     12  C   UNL d   1     -42.391-122.072 -55.530  0.00  0.00     0.001 A 
ENDROOT
BRANCH   2  13
ATOM     13  C   UNL d   1     -41.123-122.300 -52.236  0.00  0.00     0.157 C 
BRANCH  13  14
ATOM     14  C   UNL d   1     -41.546-122.665 -51.641  0.00  0.00     0.298 C 
ATOM     15  N   UNL d   1     -41.435-122.424 -50.854  0.00  0.00    -0.207 NA
ATOM     16  O   UNL d   1     -42.079-123.265 -51.806  0.00  0.00    -0.264 OA
BRANCH  15  17
ATOM     17  C   UNL d   1     -41.859-122.787 -50.245  0.00  0.00     0.085 A 
ATOM     18  C   UNL d   1     -42.572-122.470 -50.016  0.00  0.00     0.019 A 
ATOM     19  C   UNL d   1     -42.996-122.833 -49.407  0.00  0.00     0.002 A 
ATOM     20  C   UNL d   1     -42.699-123.501 -49.042  0.00  0.00     0.000 A 
ATOM     21  C   UNL d   1     -41.975-123.817 -49.280  0.00  0.00     0.002 A 
ATOM     22  C   UNL d   1     -41.558-123.464 -49.875  0.00  0.00     0.019 A 
ENDBRANCH  15  17
ENDBRANCH  13  14
ENDBRANCH   2  13
TORSDOF 3
ENDMDL
MODEL 2
REMARK VINA RESULT:      -5.7      0.997      4.258
REMARK  3 active torsions:
REMARK  status: ('A' for Active; 'I' for Inactive)
REMARK    1  A    between atoms: C_6  and  N_2 
REMARK    2  A    between atoms: C_7  and  C_6 
REMARK       I    between atoms: N_11  and  C_7 
REMARK    3  A    between atoms: C_14  and  N_11 
ROOT
ATOM      1  S   UNL d   1     -42.332-122.014 -50.722  0.00  0.00     0.274 S 
ATOM      2  N   UNL d   1     -41.767-122.415 -51.153  0.00  0.00    -0.192 N 
ATOM      3  C   UNL d   1     -41.649-123.157 -50.805  0.00  0.00     0.275 A 
ATOM      4  C   UNL d   1     -42.150-123.199 -50.159  0.00  0.00     0.069 A 
ATOM      5  C   UNL d   1     -42.567-122.501 -50.109  0.00  0.00     0.109 A 
ATOM      6  O   UNL d   1     -42.005-121.635 -51.378  0.00  0.00    -0.200 OA
ATOM      7  O   UNL d   1     -42.860-121.425 -50.464  0.00  0.00    -0.200 OA
ATOM      8  O   UNL d   1     -41.133-123.740 -51.052  0.00  0.00    -0.266 OA
ATOM      9  C   UNL d   1     -42.274-123.799 -49.606  0.00  0.00     0.005 A 
ATOM     10  C   UNL d   1     -43.117-122.389 -49.504  0.00  0.00     0.013 A 
ATOM     11  C   UNL d   1     -42.826-123.687 -49.000  0.00  0.00     0.000 A 
ATOM     12  C   UNL d   1     -43.244-122.989 -48.950  0.00  0.00     0.001 A 
ENDROOT
BRANCH   2  13
ATOM     13  C   UNL d   1     -41.374-122.131 -51.826  0.00  0.00     0.157 C 
BRANCH  13  14
ATOM     14  C   UNL d   1     -41.609-122.386 -52.566  0.00  0.00     0.298 C 
ATOM     15  N   UNL d   1     -41.426-121.927 -53.233  0.00  0.00    -0.207 NA
ATOM     16  O   UNL d   1     -42.023-123.086 -52.661  0.00  0.00    -0.264 OA
BRANCH  15  17
ATOM     17  C   UNL d   1     -41.660-122.176 -53.985  0.00  0.00     0.085 A 
ATOM     18  C   UNL d   1     -41.272-122.800 -54.334  0.00  0.00     0.019 A 
ATOM     19  C   UNL d   1     -41.506-123.049 -55.086  0.00  0.00     0.002 A 
ATOM     20  C   UNL d   1     -42.119-122.671 -55.471  0.00  0.00     0.000 A 
ATOM     21  C   UNL d   1     -42.509-122.039 -55.110  0.00  0.00     0.002 A 
ATOM     22  C   UNL d   1     -42.282-121.793 -54.376  0.00  0.00     0.019 A 
ENDBRANCH  15  17
ENDBRANCH  13  14
ENDBRANCH   2  13
TORSDOF 3
ENDMDL
