MODEL 1
REMARK VINA RESULT:      -2.2      0.000      0.000
REMARK  2 active torsions:
REMARK  status: ('A' for Active; 'I' for Inactive)
REMARK    1  A    between atoms: C_13  and  C_2 
REMARK    2  A    between atoms: N_12  and  C_8 
ROOT
ATOM      1  N   UNL d   1      33.131  20.991 -21.682  0.00  0.00    -0.301 N 
ATOM      2  C   UNL d   1      33.140  22.339 -22.161  0.00  0.00     0.121 A 
ATOM      3  C   UNL d   1      33.157  20.720 -22.452  0.00  0.00     0.092 A 
ATOM      4  C   UNL d   1      33.167  19.899 -22.609  0.00  0.00     0.134 A 
ATOM      5  C   UNL d   1      33.175  21.254 -23.081  0.00  0.00     0.060 A 
ATOM      6  C   UNL d   1      33.122  21.805 -21.532  0.00  0.00     0.090 A 
ATOM      7  C   UNL d   1      33.166  22.053 -22.933  0.00  0.00     0.204 A 
ATOM      8  C   UNL d   1      33.194  19.619 -23.386  0.00  0.00     0.116 A 
ATOM      9  O   UNL d   1      33.148  19.359 -21.973  0.00  0.00    -0.301 OA
ATOM     10  C   UNL d   1      33.212  20.153 -24.015  0.00  0.00     0.158 A 
ATOM     11  C   UNL d   1      33.202  20.976 -23.847  0.00  0.00     0.036 A 
ATOM     12  C   UNL d   1      33.113  20.459 -21.056  0.00  0.00     0.089 A 
ATOM     13  O   UNL d   1      33.185  22.592 -23.567  0.00  0.00    -0.286 OA
ATOM     14  C   UNL d   1      33.121  19.652 -21.195  0.00  0.00     0.140 A 
ATOM     15  F   UNL d   1      33.239  19.885 -24.806  0.00  0.00    -0.203 F 
ATOM     16  C   UNL d   1      33.086  20.737 -20.275  0.00  0.00     0.021 C 
ENDROOT
BRANCH   8  17
ATOM     17  N   UNL d   1      33.203  18.808 -23.539  0.00  0.00    -0.298 N 
ATOM     18  C   UNL d   1      33.204  18.537 -24.329  0.00  0.00     0.100 A 
ATOM     19  C   UNL d   1      33.213  17.714 -24.467  0.00  0.00     0.100 A 
ATOM     20  N   UNL d   1      33.221  17.180 -23.838  0.00  0.00    -0.299 N 
ATOM     21  C   UNL d   1      33.219  17.483 -23.059  0.00  0.00     0.100 A 
ATOM     22  C   UNL d   1      33.230  16.364 -23.985  0.00  0.00     0.100 C 
ATOM     23  C   UNL d   1      33.211  18.274 -22.910  0.00  0.00     0.100 A 
ENDBRANCH   8  17
BRANCH   2  24
ATOM     24  C   UNL d   1      33.131  23.163 -22.024  0.00  0.00     0.215 C 
ATOM     25  O   UNL d   1      33.040  23.701 -22.655  0.00  0.00    -0.644 OA
ATOM     26  O   UNL d   1      33.213  23.453 -21.260  0.00  0.00    -0.644 OA
ENDBRANCH   2  24
TORSDOF 2
ENDMDL
MODEL 2
REMARK VINA RESULT:      -1.8      1.691      4.587
REMARK  2 active torsions:
REMARK  status: ('A' for Active; 'I' for Inactive)
REMARK    1  A    between atoms: C_13  and  C_2 
REMARK    2  A    between atoms: N_12  and  C_8 
ROOT
ATOM      1  N   UNL d   1      32.232  18.772 -23.796  0.00  0.00    -0.301 N 
ATOM      2  C   UNL d   1      32.492  17.410 -23.449  0.00  0.00     0.121 A 
ATOM      3  C   UNL d   1      32.481  19.006 -23.055  0.00  0.00     0.092 A 
ATOM      4  C   UNL d   1      32.478  19.816 -22.847  0.00  0.00     0.134 A 
ATOM      5  C   UNL d   1      32.737  18.447 -22.505  0.00  0.00     0.060 A 
ATOM      6  C   UNL d   1      32.237  17.969 -23.998  0.00  0.00     0.090 A 
ATOM      7  C   UNL d   1      32.741  17.659 -22.704  0.00  0.00     0.204 A 
ATOM      8  C   UNL d   1      32.729  20.059 -22.098  0.00  0.00     0.116 A 
ATOM      9  O   UNL d   1      32.219  20.382 -23.402  0.00  0.00    -0.301 OA
ATOM     10  C   UNL d   1      32.984  19.499 -21.548  0.00  0.00     0.158 A 
ATOM     11  C   UNL d   1      32.983  18.688 -21.767  0.00  0.00     0.036 A 
ATOM     12  C   UNL d   1      31.977  19.330 -24.344  0.00  0.00     0.089 A 
ATOM     13  O   UNL d   1      32.999  17.093 -22.149  0.00  0.00    -0.286 OA
ATOM     14  C   UNL d   1      31.969  20.126 -24.153  0.00  0.00     0.140 A 
ATOM     15  F   UNL d   1      33.241  19.730 -20.787  0.00  0.00    -0.203 F 
ATOM     16  C   UNL d   1      31.725  19.089 -25.097  0.00  0.00     0.021 C 
ENDROOT
BRANCH   8  17
ATOM     17  N   UNL d   1      32.725  20.859 -21.895  0.00  0.00    -0.298 N 
ATOM     18  C   UNL d   1      33.228  21.389 -22.299  0.00  0.00     0.100 A 
ATOM     19  C   UNL d   1      33.213  22.195 -22.083  0.00  0.00     0.100 A 
ATOM     20  N   UNL d   1      32.714  22.462 -21.484  0.00  0.00    -0.299 N 
ATOM     21  C   UNL d   1      32.222  21.907 -21.098  0.00  0.00     0.100 A 
ATOM     22  C   UNL d   1      32.706  23.265 -21.276  0.00  0.00     0.100 C 
ATOM     23  C   UNL d   1      32.225  21.126 -21.295  0.00  0.00     0.100 A 
ENDBRANCH   8  17
BRANCH   2  24
ATOM     24  C   UNL d   1      32.502  16.595 -23.638  0.00  0.00     0.215 C 
ATOM     25  O   UNL d   1      33.204  16.222 -23.891  0.00  0.00    -0.644 OA
ATOM     26  O   UNL d   1      31.814  16.152 -23.575  0.00  0.00    -0.644 OA
ENDBRANCH   2  24
TORSDOF 2
ENDMDL
MODEL 3
REMARK VINA RESULT:      -1.4      1.245      2.220
REMARK  2 active torsions:
REMARK  status: ('A' for Active; 'I' for Inactive)
REMARK    1  A    between atoms: C_13  and  C_2 
REMARK    2  A    between atoms: N_12  and  C_8 
ROOT
ATOM      1  N   UNL d   1      32.939  20.426 -23.168  0.00  0.00    -0.301 N 
ATOM      2  C   UNL d   1      33.067  20.961 -21.848  0.00  0.00     0.121 A 
ATOM      3  C   UNL d   1      32.999  19.670 -22.865  0.00  0.00     0.092 A 
ATOM      4  C   UNL d   1      32.966  19.009 -23.375  0.00  0.00     0.134 A 
ATOM      5  C   UNL d   1      33.093  19.553 -22.053  0.00  0.00     0.060 A 
ATOM      6  C   UNL d   1      32.973  21.078 -22.659  0.00  0.00     0.090 A 
ATOM      7  C   UNL d   1      33.126  20.194 -21.554  0.00  0.00     0.204 A 
ATOM      8  C   UNL d   1      33.026  18.242 -23.073  0.00  0.00     0.116 A 
ATOM      9  O   UNL d   1      32.870  19.127 -24.195  0.00  0.00    -0.301 OA
ATOM     10  C   UNL d   1      33.120  18.125 -22.262  0.00  0.00     0.158 A 
ATOM     11  C   UNL d   1      33.152  18.796 -21.758  0.00  0.00     0.036 A 
ATOM     12  C   UNL d   1      32.846  20.542 -23.976  0.00  0.00     0.089 A 
ATOM     13  O   UNL d   1      33.221  20.076 -20.735  0.00  0.00    -0.286 OA
ATOM     14  C   UNL d   1      32.811  19.904 -24.487  0.00  0.00     0.140 A 
ATOM     15  F   UNL d   1      33.182  17.355 -21.943  0.00  0.00    -0.203 F 
ATOM     16  C   UNL d   1      32.785  21.312 -24.282  0.00  0.00     0.021 C 
ENDROOT
BRANCH   8  17
ATOM     17  N   UNL d   1      32.992  17.590 -23.579  0.00  0.00    -0.298 N 
ATOM     18  C   UNL d   1      33.240  17.671 -24.373  0.00  0.00     0.100 A 
ATOM     19  C   UNL d   1      33.200  17.004 -24.872  0.00  0.00     0.100 A 
ATOM     20  N   UNL d   1      32.923  16.281 -24.589  0.00  0.00    -0.299 N 
ATOM     21  C   UNL d   1      32.682  16.232 -23.790  0.00  0.00     0.100 A 
ATOM     22  C   UNL d   1      32.887  15.623 -25.093  0.00  0.00     0.100 C 
ATOM     23  C   UNL d   1      32.715  16.867 -23.296  0.00  0.00     0.100 A 
ENDBRANCH   8  17
BRANCH   2  24
ATOM     24  C   UNL d   1      33.103  21.610 -21.321  0.00  0.00     0.215 C 
ATOM     25  O   UNL d   1      33.226  22.385 -21.603  0.00  0.00    -0.644 OA
ATOM     26  O   UNL d   1      33.017  21.487 -20.514  0.00  0.00    -0.644 OA
ENDBRANCH   2  24
TORSDOF 2
ENDMDL
