MODEL 1
REMARK VINA RESULT:      -0.7      0.000      0.000
REMARK  7 active torsions:
REMARK  status: ('A' for Active; 'I' for Inactive)
REMARK    1  A    between atoms: N_6  and  C_1 
REMARK    2  A    between atoms: N_8  and  C_2 
REMARK    3  A    between atoms: N_10  and  C_7 
REMARK    4  A    between atoms: C_13  and  N_8 
REMARK    5  A    between atoms: C_14  and  N_10 
REMARK    6  A    between atoms: C_15  and  C_13 
REMARK    7  A    between atoms: C_16  and  C_14 
ROOT
ATOM      1  C   UNL d   1      56.545  -0.931  31.962  0.00  0.00     0.201 A 
ATOM      2  C   UNL d   1      56.607  -0.135  32.187  0.00  0.00     0.206 A 
ATOM      3  N   UNL d   1      57.160   0.349  31.811  0.00  0.00    -0.038 NA
ATOM      4  N   UNL d   1      57.581  -0.744  30.997  0.00  0.00    -0.036 NA
ATOM      5  C   UNL d   1      57.031  -1.234  31.369  0.00  0.00     0.227 A 
ATOM      6  C   UNL d   1      57.646   0.046  31.218  0.00  0.00     0.753 A 
ATOM      7  N   UNL d   1      56.958  -2.041  31.150  0.00  0.00    -0.125 N 
ENDROOT
BRANCH   2   8
ATOM      8  N   UNL d   1      56.109   0.175  32.795  0.00  0.00    -0.223 NA
BRANCH   8   9
ATOM      9  C   UNL d   1      56.442   0.551  33.446  0.00  0.00     0.101 C 
BRANCH   9  10
ATOM     10  C   UNL d   1      56.026   0.590  34.157  0.00  0.00     0.019 A 
ATOM     11  C   UNL d   1      55.201   0.597  34.150  0.00  0.00     0.002 A 
ATOM     12  C   UNL d   1      54.782   0.636  34.865  0.00  0.00     0.000 A 
ATOM     13  C   UNL d   1      55.192   0.668  35.580  0.00  0.00     0.000 A 
ATOM     14  C   UNL d   1      56.014   0.660  35.585  0.00  0.00     0.000 A 
ATOM     15  C   UNL d   1      56.432   0.621  34.871  0.00  0.00     0.002 A 
ENDBRANCH   9  10
ENDBRANCH   8   9
ENDBRANCH   2   8
BRANCH   1  16
ATOM     16  N   UNL d   1      55.974  -1.426  32.352  0.00  0.00    -0.107 N 
ATOM     17  O   UNL d   1      56.222  -1.913  32.968  0.00  0.00    -0.531 OA
ATOM     18  O   UNL d   1      55.179  -1.422  32.117  0.00  0.00    -0.531 OA
ENDBRANCH   1  16
BRANCH   6  19
ATOM     19  N   UNL d   1      58.196   0.535  30.847  0.00  0.00    -0.058 NA
BRANCH  19  20
ATOM     20  C   UNL d   1      58.950   0.634  31.176  0.00  0.00     0.118 C 
BRANCH  20  21
ATOM     21  C   UNL d   1      59.613   0.650  30.686  0.00  0.00     0.020 A 
ATOM     22  C   UNL d   1      60.364   0.650  31.011  0.00  0.00     0.002 A 
ATOM     23  C   UNL d   1      61.026   0.666  30.520  0.00  0.00     0.000 A 
ATOM     24  C   UNL d   1      60.930   0.682  29.701  0.00  0.00     0.000 A 
ATOM     25  C   UNL d   1      60.172   0.682  29.376  0.00  0.00     0.000 A 
ATOM     26  C   UNL d   1      59.517   0.666  29.867  0.00  0.00     0.002 A 
ENDBRANCH  20  21
ENDBRANCH  19  20
ENDBRANCH   6  19
TORSDOF 7
ENDMDL
MODEL 2
REMARK VINA RESULT:       1.8      8.989     10.302
REMARK  7 active torsions:
REMARK  status: ('A' for Active; 'I' for Inactive)
REMARK    1  A    between atoms: N_6  and  C_1 
REMARK    2  A    between atoms: N_8  and  C_2 
REMARK    3  A    between atoms: N_10  and  C_7 
REMARK    4  A    between atoms: C_13  and  N_8 
REMARK    5  A    between atoms: C_14  and  N_10 
REMARK    6  A    between atoms: C_15  and  C_13 
REMARK    7  A    between atoms: C_16  and  C_14 
ROOT
ATOM      1  C   UNL d   1      57.389  -9.370  30.169  0.00  0.00     0.201 A 
ATOM      2  C   UNL d   1      58.214  -9.388  30.093  0.00  0.00     0.206 A 
ATOM      3  N   UNL d   1      58.679  -9.537  30.759  0.00  0.00    -0.038 NA
ATOM      4  N   UNL d   1      57.508  -9.650  31.565  0.00  0.00    -0.036 NA
ATOM      5  C   UNL d   1      57.037  -9.501  30.904  0.00  0.00     0.227 A 
ATOM      6  C   UNL d   1      58.326  -9.668  31.493  0.00  0.00     0.753 A 
ATOM      7  N   UNL d   1      56.201  -9.480  30.968  0.00  0.00    -0.125 N 
ENDROOT
BRANCH   2   8
ATOM      8  N   UNL d   1      58.576  -9.254  29.341  0.00  0.00    -0.223 NA
BRANCH   8   9
ATOM      9  C   UNL d   1      59.379  -9.391  29.241  0.00  0.00     0.101 C 
BRANCH   9  10
ATOM     10  C   UNL d   1      59.872  -8.783  28.980  0.00  0.00     0.019 A 
ATOM     11  C   UNL d   1      60.638  -8.954  28.728  0.00  0.00     0.002 A 
ATOM     12  C   UNL d   1      61.133  -8.343  28.465  0.00  0.00     0.000 A 
ATOM     13  C   UNL d   1      60.857  -7.566  28.456  0.00  0.00     0.000 A 
ATOM     14  C   UNL d   1      60.093  -7.397  28.707  0.00  0.00     0.000 A 
ATOM     15  C   UNL d   1      59.598  -8.008  28.970  0.00  0.00     0.002 A 
ENDBRANCH   9  10
ENDBRANCH   8   9
ENDBRANCH   2   8
BRANCH   1  16
ATOM     16  N   UNL d   1      56.914  -9.215  29.481  0.00  0.00    -0.107 N 
ATOM     17  O   UNL d   1      56.617  -8.457  29.364  0.00  0.00    -0.531 OA
ATOM     18  O   UNL d   1      56.752  -9.817  28.935  0.00  0.00    -0.531 OA
ENDBRANCH   1  16
BRANCH   6  19
ATOM     19  N   UNL d   1      58.797  -9.817  32.154  0.00  0.00    -0.058 NA
BRANCH  19  20
ATOM     20  C   UNL d   1      58.593  -9.491  32.888  0.00  0.00     0.118 C 
BRANCH  20  21
ATOM     21  C   UNL d   1      59.171  -9.397  33.470  0.00  0.00     0.020 A 
ATOM     22  C   UNL d   1      59.962  -9.474  33.278  0.00  0.00     0.002 A 
ATOM     23  C   UNL d   1      60.539  -9.381  33.859  0.00  0.00     0.000 A 
ATOM     24  C   UNL d   1      60.316  -9.210  34.635  0.00  0.00     0.000 A 
ATOM     25  C   UNL d   1      59.517  -9.133  34.826  0.00  0.00     0.000 A 
ATOM     26  C   UNL d   1      58.948  -9.226  34.245  0.00  0.00     0.002 A 
ENDBRANCH  20  21
ENDBRANCH  19  20
ENDBRANCH   6  19
TORSDOF 7
ENDMDL
