MODEL 1
REMARK VINA RESULT:      -7.0      0.000      0.000
REMARK  4 active torsions:
REMARK  status: ('A' for Active; 'I' for Inactive)
REMARK    1  A    between atoms: C_13  and  C_2 
REMARK       I    between atoms: N_7  and  C_8 
REMARK    2  A    between atoms: C_8  and  C_15 
REMARK    3  A    between atoms: S_14  and  C_10 
REMARK    4  A    between atoms: C_15  and  S_14 
ROOT
ATOM      1  N   UNL d   1     -48.647  14.237  22.604  0.00  0.00    -0.191 N 
ATOM      2  C   UNL d   1     -49.455  14.128  22.513  0.00  0.00     0.187 A 
ATOM      3  N   UNL d   1     -49.758  14.796  22.147  0.00  0.00    -0.127 NA
ATOM      4  C   UNL d   1     -48.438  14.967  22.298  0.00  0.00     0.187 A 
ATOM      5  N   UNL d   1     -48.054  13.747  22.938  0.00  0.00    -0.156 NA
ATOM      6  N   UNL d   1     -49.135  15.321  22.010  0.00  0.00    -0.127 NA
ATOM      7  C   UNL d   1     -47.269  14.001  22.957  0.00  0.00     0.131 A 
ATOM      8  C   UNL d   1     -47.653  15.221  22.317  0.00  0.00     0.043 A 
ATOM      9  C   UNL d   1     -47.069  14.739  22.646  0.00  0.00     0.031 A 
ENDROOT
BRANCH   7  10
ATOM     10  S   UNL d   1     -46.685  13.518  23.286  0.00  0.00    -0.061 SA
BRANCH  10  11
ATOM     11  C   UNL d   1     -46.381  12.889  22.851  0.00  0.00     0.098 C 
BRANCH  11  12
ATOM     12  C   UNL d   1     -46.232  12.179  23.217  0.00  0.00     0.271 C 
ATOM     13  N   UNL d   1     -45.506  11.807  23.110  0.00  0.00    -0.273 N 
ATOM     14  C   UNL d   1     -44.937  12.153  22.636  0.00  0.00     0.067 A 
ATOM     15  C   UNL d   1     -45.363  11.088  23.484  0.00  0.00     0.083 A 
ATOM     16  C   UNL d   1     -44.219  11.780  22.533  0.00  0.00     0.016 A 
ATOM     17  C   UNL d   1     -45.088  12.871  22.266  0.00  0.00     0.018 A 
ATOM     18  C   UNL d   1     -43.636  12.122  22.056  0.00  0.00     0.001 A 
ATOM     19  C   UNL d   1     -44.057  11.065  22.896  0.00  0.00     0.003 A 
ATOM     20  C   UNL d   1     -43.779  12.844  21.679  0.00  0.00     0.000 A 
ATOM     21  C   UNL d   1     -44.513  13.221  21.787  0.00  0.00     0.002 A 
ATOM     22  C   UNL d   1     -44.643  10.723  23.376  0.00  0.00     0.019 A 
ATOM     23  O   UNL d   1     -46.807  11.829  23.696  0.00  0.00    -0.266 OA
ENDBRANCH  11  12
ENDBRANCH  10  11
ENDBRANCH   7  10
BRANCH   2  24
ATOM     24  C   UNL d   1     -49.889  13.473  22.744  0.00  0.00     0.038 A 
ATOM     25  C   UNL d   1     -50.284  13.468  23.462  0.00  0.00     0.003 A 
ATOM     26  C   UNL d   1     -50.723  12.808  23.697  0.00  0.00     0.000 A 
ATOM     27  C   UNL d   1     -50.760  12.149  23.198  0.00  0.00     0.000 A 
ATOM     28  C   UNL d   1     -50.364  12.148  22.475  0.00  0.00     0.000 A 
ATOM     29  C   UNL d   1     -49.926  12.813  22.246  0.00  0.00     0.003 A 
ENDBRANCH   2  24
TORSDOF 4
ENDMDL
MODEL 2
REMARK VINA RESULT:      -6.9      8.757      9.515
REMARK  4 active torsions:
REMARK  status: ('A' for Active; 'I' for Inactive)
REMARK    1  A    between atoms: C_13  and  C_2 
REMARK       I    between atoms: N_7  and  C_8 
REMARK    2  A    between atoms: C_8  and  C_15 
REMARK    3  A    between atoms: S_14  and  C_10 
REMARK    4  A    between atoms: C_15  and  S_14 
ROOT
ATOM      1  N   UNL d   1     -39.042  13.795  18.245  0.00  0.00    -0.191 N 
ATOM      2  C   UNL d   1     -39.568  13.889  17.624  0.00  0.00     0.187 A 
ATOM      3  N   UNL d   1     -39.583  13.186  17.201  0.00  0.00    -0.127 NA
ATOM      4  C   UNL d   1     -38.725  13.040  18.219  0.00  0.00     0.187 A 
ATOM      5  N   UNL d   1     -38.802  14.320  18.854  0.00  0.00    -0.156 NA
ATOM      6  N   UNL d   1     -39.065  12.655  17.563  0.00  0.00    -0.127 NA
ATOM      7  C   UNL d   1     -38.252  14.076  19.419  0.00  0.00     0.131 A 
ATOM      8  C   UNL d   1     -38.176  12.795  18.784  0.00  0.00     0.043 A 
ATOM      9  C   UNL d   1     -37.940  13.312  19.384  0.00  0.00     0.031 A 
ENDROOT
BRANCH   7  10
ATOM     10  S   UNL d   1     -38.016  14.593  20.019  0.00  0.00    -0.061 SA
BRANCH  10  11
ATOM     11  C   UNL d   1     -38.363  14.543  20.764  0.00  0.00     0.098 C 
BRANCH  11  12
ATOM     12  C   UNL d   1     -38.568  15.221  21.160  0.00  0.00     0.271 C 
ATOM     13  N   UNL d   1     -38.640  15.210  21.980  0.00  0.00    -0.273 N 
ATOM     14  C   UNL d   1     -38.506  14.516  22.392  0.00  0.00     0.067 A 
ATOM     15  C   UNL d   1     -38.848  15.901  22.374  0.00  0.00     0.083 A 
ATOM     16  C   UNL d   1     -38.579  14.511  23.204  0.00  0.00     0.016 A 
ATOM     17  C   UNL d   1     -38.298  13.831  21.989  0.00  0.00     0.018 A 
ATOM     18  C   UNL d   1     -38.445  13.815  23.630  0.00  0.00     0.001 A 
ATOM     19  C   UNL d   1     -38.785  15.188  23.616  0.00  0.00     0.003 A 
ATOM     20  C   UNL d   1     -38.236  13.120  23.235  0.00  0.00     0.000 A 
ATOM     21  C   UNL d   1     -38.162  13.129  22.405  0.00  0.00     0.002 A 
ATOM     22  C   UNL d   1     -38.919  15.887  23.186  0.00  0.00     0.019 A 
ATOM     23  O   UNL d   1     -38.704  15.922  20.744  0.00  0.00    -0.266 OA
ENDBRANCH  11  12
ENDBRANCH  10  11
ENDBRANCH   7  10
BRANCH   2  24
ATOM     24  C   UNL d   1     -40.004  14.560  17.448  0.00  0.00     0.038 A 
ATOM     25  C   UNL d   1     -40.746  14.670  17.776  0.00  0.00     0.003 A 
ATOM     26  C   UNL d   1     -41.188  15.347  17.601  0.00  0.00     0.000 A 
ATOM     27  C   UNL d   1     -40.872  15.914  17.088  0.00  0.00     0.000 A 
ATOM     28  C   UNL d   1     -40.125  15.808  16.755  0.00  0.00     0.000 A 
ATOM     29  C   UNL d   1     -39.687  15.127  16.935  0.00  0.00     0.003 A 
ENDBRANCH   2  24
TORSDOF 4
ENDMDL
MODEL 3
REMARK VINA RESULT:      -6.6      1.332      5.036
REMARK  4 active torsions:
REMARK  status: ('A' for Active; 'I' for Inactive)
REMARK    1  A    between atoms: C_13  and  C_2 
REMARK       I    between atoms: N_7  and  C_8 
REMARK    2  A    between atoms: C_8  and  C_15 
REMARK    3  A    between atoms: S_14  and  C_10 
REMARK    4  A    between atoms: C_15  and  S_14 
ROOT
ATOM      1  N   UNL d   1     -45.350  12.468  22.687  0.00  0.00    -0.191 N 
ATOM      2  C   UNL d   1     -44.657  12.042  22.592  0.00  0.00     0.187 A 
ATOM      3  N   UNL d   1     -44.185  12.447  22.058  0.00  0.00    -0.127 NA
ATOM      4  C   UNL d   1     -45.320  13.139  22.219  0.00  0.00     0.187 A 
ATOM      5  N   UNL d   1     -46.030  12.326  23.158  0.00  0.00    -0.156 NA
ATOM      6  N   UNL d   1     -44.588  13.128  21.822  0.00  0.00    -0.127 NA
ATOM      7  C   UNL d   1     -46.660  12.859  23.147  0.00  0.00     0.131 A 
ATOM      8  C   UNL d   1     -45.950  13.672  22.207  0.00  0.00     0.043 A 
ATOM      9  C   UNL d   1     -46.619  13.532  22.671  0.00  0.00     0.031 A 
ENDROOT
BRANCH   7  10
ATOM     10  S   UNL d   1     -47.329  12.719  23.611  0.00  0.00    -0.061 SA
BRANCH  10  11
ATOM     11  C   UNL d   1     -48.075  12.714  23.263  0.00  0.00     0.098 C 
BRANCH  11  12
ATOM     12  C   UNL d   1     -48.607  12.131  23.455  0.00  0.00     0.271 C 
ATOM     13  N   UNL d   1     -49.413  12.299  23.465  0.00  0.00    -0.273 N 
ATOM     14  C   UNL d   1     -49.674  13.052  23.281  0.00  0.00     0.067 A 
ATOM     15  C   UNL d   1     -49.945  11.703  23.661  0.00  0.00     0.083 A 
ATOM     16  C   UNL d   1     -50.474  13.212  23.292  0.00  0.00     0.016 A 
ATOM     17  C   UNL d   1     -49.135  13.640  23.087  0.00  0.00     0.018 A 
ATOM     18  C   UNL d   1     -50.750  13.970  23.108  0.00  0.00     0.001 A 
ATOM     19  C   UNL d   1     -51.020  12.634  23.485  0.00  0.00     0.003 A 
ATOM     20  C   UNL d   1     -50.215  14.569  22.911  0.00  0.00     0.000 A 
ATOM     21  C   UNL d   1     -49.400  14.401  22.901  0.00  0.00     0.002 A 
ATOM     22  C   UNL d   1     -50.742  11.873  23.670  0.00  0.00     0.019 A 
ATOM     23  O   UNL d   1     -48.343  11.371  23.641  0.00  0.00    -0.266 OA
ENDBRANCH  11  12
ENDBRANCH  10  11
ENDBRANCH   7  10
BRANCH   2  24
ATOM     24  C   UNL d   1     -44.461  11.336  22.960  0.00  0.00     0.038 A 
ATOM     25  C   UNL d   1     -45.039  10.884  23.323  0.00  0.00     0.003 A 
ATOM     26  C   UNL d   1     -44.845  10.171  23.695  0.00  0.00     0.000 A 
ATOM     27  C   UNL d   1     -44.057   9.918  23.697  0.00  0.00     0.000 A 
ATOM     28  C   UNL d   1     -43.471  10.370  23.333  0.00  0.00     0.000 A 
ATOM     29  C   UNL d   1     -43.673  11.083  22.962  0.00  0.00     0.003 A 
ENDBRANCH   2  24
TORSDOF 4
ENDMDL
MODEL 4
REMARK VINA RESULT:      -6.5      1.626      5.067
REMARK  4 active torsions:
REMARK  status: ('A' for Active; 'I' for Inactive)
REMARK    1  A    between atoms: C_13  and  C_2 
REMARK       I    between atoms: N_7  and  C_8 
REMARK    2  A    between atoms: C_8  and  C_15 
REMARK    3  A    between atoms: S_14  and  C_10 
REMARK    4  A    between atoms: C_15  and  S_14 
ROOT
ATOM      1  N   UNL d   1     -46.541  11.786  23.245  0.00  0.00    -0.191 N 
ATOM      2  C   UNL d   1     -45.825  12.169  23.131  0.00  0.00     0.187 A 
ATOM      3  N   UNL d   1     -45.228  11.650  23.347  0.00  0.00    -0.127 NA
ATOM      4  C   UNL d   1     -46.401  11.032  23.531  0.00  0.00     0.187 A 
ATOM      5  N   UNL d   1     -47.332  12.038  23.120  0.00  0.00    -0.156 NA
ATOM      6  N   UNL d   1     -45.576  10.944  23.596  0.00  0.00    -0.127 NA
ATOM      7  C   UNL d   1     -47.960  11.529  23.285  0.00  0.00     0.131 A 
ATOM      8  C   UNL d   1     -47.029  10.522  23.696  0.00  0.00     0.043 A 
ATOM      9  C   UNL d   1     -47.807  10.770  23.573  0.00  0.00     0.031 A 
ENDROOT
BRANCH   7  10
ATOM     10  S   UNL d   1     -48.738  11.777  23.163  0.00  0.00    -0.061 SA
BRANCH  10  11
ATOM     11  C   UNL d   1     -48.888  12.450  22.713  0.00  0.00     0.098 C 
BRANCH  11  12
ATOM     12  C   UNL d   1     -49.479  12.441  22.156  0.00  0.00     0.271 C 
ATOM     13  N   UNL d   1     -49.975  13.092  22.075  0.00  0.00    -0.273 N 
ATOM     14  C   UNL d   1     -49.871  13.746  22.556  0.00  0.00     0.067 A 
ATOM     15  C   UNL d   1     -50.572  13.076  21.509  0.00  0.00     0.083 A 
ATOM     16  C   UNL d   1     -50.365  14.389  22.471  0.00  0.00     0.016 A 
ATOM     17  C   UNL d   1     -49.272  13.754  23.118  0.00  0.00     0.018 A 
ATOM     18  C   UNL d   1     -50.269  15.055  22.951  0.00  0.00     0.001 A 
ATOM     19  C   UNL d   1     -50.965  14.393  21.914  0.00  0.00     0.003 A 
ATOM     20  C   UNL d   1     -49.670  15.073  23.520  0.00  0.00     0.000 A 
ATOM     21  C   UNL d   1     -49.167  14.415  23.604  0.00  0.00     0.002 A 
ATOM     22  C   UNL d   1     -51.061  13.723  21.431  0.00  0.00     0.019 A 
ATOM     23  O   UNL d   1     -49.584  11.780  21.671  0.00  0.00    -0.266 OA
ENDBRANCH  11  12
ENDBRANCH  10  11
ENDBRANCH   7  10
BRANCH   2  24
ATOM     24  C   UNL d   1     -45.716  12.931  22.852  0.00  0.00     0.038 A 
ATOM     25  C   UNL d   1     -45.462  13.059  22.084  0.00  0.00     0.003 A 
ATOM     26  C   UNL d   1     -45.351  13.828  21.800  0.00  0.00     0.000 A 
ATOM     27  C   UNL d   1     -45.501  14.470  22.300  0.00  0.00     0.000 A 
ATOM     28  C   UNL d   1     -45.758  14.346  23.075  0.00  0.00     0.000 A 
ATOM     29  C   UNL d   1     -45.866  13.573  23.352  0.00  0.00     0.003 A 
ENDBRANCH   2  24
TORSDOF 4
ENDMDL
MODEL 5
REMARK VINA RESULT:      -5.6      1.201      5.349
REMARK  4 active torsions:
REMARK  status: ('A' for Active; 'I' for Inactive)
REMARK    1  A    between atoms: C_13  and  C_2 
REMARK       I    between atoms: N_7  and  C_8 
REMARK    2  A    between atoms: C_8  and  C_15 
REMARK    3  A    between atoms: S_14  and  C_10 
REMARK    4  A    between atoms: C_15  and  S_14 
ROOT
ATOM      1  N   UNL d   1     -45.443  12.244  22.883  0.00  0.00    -0.191 N 
ATOM      2  C   UNL d   1     -44.703  11.961  22.673  0.00  0.00     0.187 A 
ATOM      3  N   UNL d   1     -44.590  11.245  23.057  0.00  0.00    -0.127 NA
ATOM      4  C   UNL d   1     -45.798  11.713  23.396  0.00  0.00     0.187 A 
ATOM      5  N   UNL d   1     -45.855  12.942  22.665  0.00  0.00    -0.156 NA
ATOM      6  N   UNL d   1     -45.264  11.084  23.507  0.00  0.00    -0.127 NA
ATOM      7  C   UNL d   1     -46.609  13.089  22.966  0.00  0.00     0.131 A 
ATOM      8  C   UNL d   1     -46.552  11.861  23.697  0.00  0.00     0.043 A 
ATOM      9  C   UNL d   1     -46.957  12.548  23.482  0.00  0.00     0.031 A 
ENDROOT
BRANCH   7  10
ATOM     10  S   UNL d   1     -47.013  13.777  22.751  0.00  0.00    -0.061 SA
BRANCH  10  11
ATOM     11  C   UNL d   1     -47.830  13.756  22.646  0.00  0.00     0.098 C 
BRANCH  11  12
ATOM     12  C   UNL d   1     -48.270  14.426  22.773  0.00  0.00     0.271 C 
ATOM     13  N   UNL d   1     -49.049  14.460  22.509  0.00  0.00    -0.273 N 
ATOM     14  C   UNL d   1     -49.376  13.818  22.120  0.00  0.00     0.067 A 
ATOM     15  C   UNL d   1     -49.489  15.142  22.641  0.00  0.00     0.083 A 
ATOM     16  C   UNL d   1     -50.148  13.857  21.861  0.00  0.00     0.016 A 
ATOM     17  C   UNL d   1     -48.929  13.141  21.993  0.00  0.00     0.018 A 
ATOM     18  C   UNL d   1     -50.488  13.215  21.467  0.00  0.00     0.001 A 
ATOM     19  C   UNL d   1     -50.603  14.527  21.982  0.00  0.00     0.003 A 
ATOM     20  C   UNL d   1     -50.047  12.529  21.333  0.00  0.00     0.000 A 
ATOM     21  C   UNL d   1     -49.259  12.493  21.600  0.00  0.00     0.002 A 
ATOM     22  C   UNL d   1     -50.260  15.172  22.378  0.00  0.00     0.019 A 
ATOM     23  O   UNL d   1     -47.941  15.074  23.166  0.00  0.00    -0.266 OA
ENDBRANCH  11  12
ENDBRANCH  10  11
ENDBRANCH   7  10
BRANCH   2  24
ATOM     24  C   UNL d   1     -44.166  12.322  22.170  0.00  0.00     0.038 A 
ATOM     25  C   UNL d   1     -44.423  12.852  21.601  0.00  0.00     0.003 A 
ATOM     26  C   UNL d   1     -43.883  13.218  21.092  0.00  0.00     0.000 A 
ATOM     27  C   UNL d   1     -43.077  13.042  21.164  0.00  0.00     0.000 A 
ATOM     28  C   UNL d   1     -42.814  12.509  21.735  0.00  0.00     0.000 A 
ATOM     29  C   UNL d   1     -43.361  12.146  22.242  0.00  0.00     0.003 A 
ENDBRANCH   2  24
TORSDOF 4
ENDMDL
