MODEL 1
REMARK VINA RESULT:      -5.2      0.000      0.000
REMARK  6 active torsions:
REMARK  status: ('A' for Active; 'I' for Inactive)
REMARK       I    between atoms: N_2  and  C_1 
REMARK    1  A    between atoms: C_14  and  C_1 
REMARK    2  A    between atoms: C_6  and  N_2 
REMARK    3  A    between atoms: C_4  and  O_13 
REMARK    4  A    between atoms: O_13  and  C_18 
REMARK    5  A    between atoms: C_19  and  C_14 
REMARK    6  A    between atoms: C_18  and  C_19 
ROOT
ATOM      1  C   UNL d   1      58.262   0.044  30.431  0.00  0.00     0.078 C 
ENDROOT
BRANCH   1   2
ATOM      2  C   UNL d   1      58.395  -0.143  29.641  0.00  0.00     0.328 C 
ATOM      3  N   UNL d   1      58.841  -0.818  29.438  0.00  0.00    -0.365 NA
ATOM      4  O   UNL d   1      58.088   0.336  29.045  0.00  0.00    -0.251 OA
BRANCH   3   5
ATOM      5  C   UNL d   1      59.278  -1.481  29.238  0.00  0.00     0.135 A 
ATOM      6  C   UNL d   1      60.109  -1.419  29.160  0.00  0.00     0.033 A 
ATOM      7  C   UNL d   1      60.544  -2.094  28.957  0.00  0.00     0.009 A 
ATOM      8  C   UNL d   1      60.166  -2.817  28.834  0.00  0.00     0.035 A 
ATOM      9  C   UNL d   1      59.347  -2.878  28.911  0.00  0.00     0.009 A 
ATOM     10 BR   UNL d   1      60.617  -3.479  28.633  0.00  0.00    -0.049 Br
ATOM     11  C   UNL d   1      58.901  -2.204  29.115  0.00  0.00     0.033 A 
ENDBRANCH   3   5
ENDBRANCH   1   2
BRANCH   1  12
ATOM     12  C   UNL d   1      57.519   0.270  30.685  0.00  0.00     0.033 C 
BRANCH  12  13
ATOM     13  C   UNL d   1      57.281   0.147  31.458  0.00  0.00     0.123 C 
BRANCH  13  14
ATOM     14  O   UNL d   1      56.631  -0.320  31.628  0.00  0.00    -0.305 OA
BRANCH  14  15
ATOM     15  C   UNL d   1      56.212  -0.212  32.328  0.00  0.00     0.100 A 
ATOM     16  C   UNL d   1      55.965  -0.870  32.777  0.00  0.00     0.023 A 
ATOM     17  C   UNL d   1      56.141  -1.628  32.516  0.00  0.00     0.002 C 
ATOM     18  C   UNL d   1      55.546  -0.758  33.478  0.00  0.00     0.002 A 
ATOM     19  C   UNL d   1      55.369   0.004  33.740  0.00  0.00     0.000 A 
ATOM     20  C   UNL d   1      55.608   0.665  33.305  0.00  0.00     0.002 A 
ATOM     21  C   UNL d   1      56.034   0.554  32.592  0.00  0.00     0.025 A 
ENDBRANCH  14  15
ENDBRANCH  13  14
ENDBRANCH  12  13
ENDBRANCH   1  12
TORSDOF 6
ENDMDL
MODEL 2
REMARK VINA RESULT:      -5.2      2.085      5.413
REMARK  6 active torsions:
REMARK  status: ('A' for Active; 'I' for Inactive)
REMARK       I    between atoms: N_2  and  C_1 
REMARK    1  A    between atoms: C_14  and  C_1 
REMARK    2  A    between atoms: C_6  and  N_2 
REMARK    3  A    between atoms: C_4  and  O_13 
REMARK    4  A    between atoms: O_13  and  C_18 
REMARK    5  A    between atoms: C_19  and  C_14 
REMARK    6  A    between atoms: C_18  and  C_19 
ROOT
ATOM      1  C   UNL d   1      58.134  -1.023  30.172  0.00  0.00     0.078 C 
ENDROOT
BRANCH   1   2
ATOM      2  C   UNL d   1      57.751  -0.314  30.340  0.00  0.00     0.328 C 
ATOM      3  N   UNL d   1      57.290  -0.240  31.032  0.00  0.00    -0.365 NA
ATOM      4  O   UNL d   1      57.821   0.326  29.827  0.00  0.00    -0.251 OA
BRANCH   3   5
ATOM      5  C   UNL d   1      56.838  -0.167  31.711  0.00  0.00     0.135 A 
ATOM      6  C   UNL d   1      56.532  -0.853  32.080  0.00  0.00     0.033 A 
ATOM      7  C   UNL d   1      56.076  -0.768  32.766  0.00  0.00     0.009 A 
ATOM      8  C   UNL d   1      55.923  -0.021  33.082  0.00  0.00     0.035 A 
ATOM      9  C   UNL d   1      56.224   0.655  32.717  0.00  0.00     0.009 A 
ATOM     10 BR   UNL d   1      55.466   0.042  33.766  0.00  0.00    -0.049 Br
ATOM     11  C   UNL d   1      56.685   0.580  32.026  0.00  0.00     0.033 A 
ENDBRANCH   3   5
ENDBRANCH   1   2
BRANCH   1  12
ATOM     12  C   UNL d   1      58.573  -1.105  29.488  0.00  0.00     0.033 C 
BRANCH  12  13
ATOM     13  C   UNL d   1      59.173  -1.660  29.435  0.00  0.00     0.123 C 
BRANCH  13  14
ATOM     14  O   UNL d   1      59.078  -2.338  28.987  0.00  0.00    -0.305 OA
BRANCH  14  15
ATOM     15  C   UNL d   1      59.712  -2.848  28.864  0.00  0.00     0.100 A 
ATOM     16  C   UNL d   1      59.581  -3.627  28.596  0.00  0.00     0.023 A 
ATOM     17  C   UNL d   1      58.814  -3.883  28.455  0.00  0.00     0.002 C 
ATOM     18  C   UNL d   1      60.219  -4.135  28.475  0.00  0.00     0.002 A 
ATOM     19  C   UNL d   1      60.989  -3.877  28.617  0.00  0.00     0.000 A 
ATOM     20  C   UNL d   1      61.133  -3.107  28.883  0.00  0.00     0.002 A 
ATOM     21  C   UNL d   1      60.486  -2.589  29.007  0.00  0.00     0.025 A 
ENDBRANCH  14  15
ENDBRANCH  13  14
ENDBRANCH  12  13
ENDBRANCH   1  12
TORSDOF 6
ENDMDL
MODEL 3
REMARK VINA RESULT:      -4.3      2.513      5.612
REMARK  6 active torsions:
REMARK  status: ('A' for Active; 'I' for Inactive)
REMARK       I    between atoms: N_2  and  C_1 
REMARK    1  A    between atoms: C_14  and  C_1 
REMARK    2  A    between atoms: C_6  and  N_2 
REMARK    3  A    between atoms: C_4  and  O_13 
REMARK    4  A    between atoms: O_13  and  C_18 
REMARK    5  A    between atoms: C_19  and  C_14 
REMARK    6  A    between atoms: C_18  and  C_19 
ROOT
ATOM      1  C   UNL d   1      57.092  -0.210  31.342  0.00  0.00     0.078 C 
ENDROOT
BRANCH   1   2
ATOM      2  C   UNL d   1      56.674  -0.723  31.831  0.00  0.00     0.328 C 
ATOM      3  N   UNL d   1      56.305  -0.437  32.522  0.00  0.00    -0.365 NA
ATOM      4  O   UNL d   1      56.618  -1.523  31.639  0.00  0.00    -0.251 OA
BRANCH   3   5
ATOM      5  C   UNL d   1      55.942  -0.158  33.201  0.00  0.00     0.135 A 
ATOM      6  C   UNL d   1      55.132  -0.321  33.333  0.00  0.00     0.033 A 
ATOM      7  C   UNL d   1      54.773  -0.035  34.022  0.00  0.00     0.009 A 
ATOM      8  C   UNL d   1      55.205   0.405  34.571  0.00  0.00     0.035 A 
ATOM      9  C   UNL d   1      56.004   0.566  34.440  0.00  0.00     0.009 A 
ATOM     10 BR   UNL d   1      54.830   0.682  35.252  0.00  0.00    -0.049 Br
ATOM     11  C   UNL d   1      56.374   0.282  33.749  0.00  0.00     0.033 A 
ENDBRANCH   3   5
ENDBRANCH   1   2
BRANCH   1  12
ATOM     12  C   UNL d   1      57.454  -0.485  30.664  0.00  0.00     0.033 C 
BRANCH  12  13
ATOM     13  C   UNL d   1      58.128  -0.126  30.368  0.00  0.00     0.123 C 
BRANCH  13  14
ATOM     14  O   UNL d   1      58.311  -0.168  29.571  0.00  0.00    -0.305 OA
BRANCH  14  15
ATOM     15  C   UNL d   1      59.088  -0.072  29.318  0.00  0.00     0.100 A 
ATOM     16  C   UNL d   1      59.424  -0.610  28.777  0.00  0.00     0.023 A 
ATOM     17  C   UNL d   1      58.975  -1.239  28.498  0.00  0.00     0.002 C 
ATOM     18  C   UNL d   1      60.203  -0.511  28.525  0.00  0.00     0.002 A 
ATOM     19  C   UNL d   1      60.654   0.120  28.805  0.00  0.00     0.000 A 
ATOM     20  C   UNL d   1      60.333   0.662  29.341  0.00  0.00     0.002 A 
ATOM     21  C   UNL d   1      59.541   0.563  29.599  0.00  0.00     0.025 A 
ENDBRANCH  14  15
ENDBRANCH  13  14
ENDBRANCH  12  13
ENDBRANCH   1  12
TORSDOF 6
ENDMDL
MODEL 4
REMARK VINA RESULT:      -2.6      1.402      1.909
REMARK  6 active torsions:
REMARK  status: ('A' for Active; 'I' for Inactive)
REMARK       I    between atoms: N_2  and  C_1 
REMARK    1  A    between atoms: C_14  and  C_1 
REMARK    2  A    between atoms: C_6  and  N_2 
REMARK    3  A    between atoms: C_4  and  O_13 
REMARK    4  A    between atoms: O_13  and  C_18 
REMARK    5  A    between atoms: C_19  and  C_14 
REMARK    6  A    between atoms: C_18  and  C_19 
ROOT
ATOM      1  C   UNL d   1      57.474  -0.410  31.391  0.00  0.00     0.078 C 
ENDROOT
BRANCH   1   2
ATOM      2  C   UNL d   1      57.538  -0.095  30.633  0.00  0.00     0.328 C 
ATOM      3  N   UNL d   1      58.259  -0.144  30.217  0.00  0.00    -0.365 NA
ATOM      4  O   UNL d   1      56.888   0.270  30.281  0.00  0.00    -0.251 OA
BRANCH   3   5
ATOM      5  C   UNL d   1      58.967  -0.192  29.808  0.00  0.00     0.135 A 
ATOM      6  C   UNL d   1      59.596   0.322  30.010  0.00  0.00     0.033 A 
ATOM      7  C   UNL d   1      60.308   0.267  29.591  0.00  0.00     0.009 A 
ATOM      8  C   UNL d   1      60.399  -0.284  28.984  0.00  0.00     0.035 A 
ATOM      9  C   UNL d   1      59.779  -0.791  28.785  0.00  0.00     0.009 A 
ATOM     10 BR   UNL d   1      61.116  -0.324  28.579  0.00  0.00    -0.049 Br
ATOM     11  C   UNL d   1      59.058  -0.743  29.202  0.00  0.00     0.033 A 
ENDBRANCH   3   5
ENDBRANCH   1   2
BRANCH   1  12
ATOM     12  C   UNL d   1      57.454   0.081  32.043  0.00  0.00     0.033 C 
BRANCH  12  13
ATOM     13  C   UNL d   1      56.761   0.197  32.464  0.00  0.00     0.123 C 
BRANCH  13  14
ATOM     14  O   UNL d   1      56.779   0.354  33.267  0.00  0.00    -0.305 OA
BRANCH  14  15
ATOM     15  C   UNL d   1      56.078   0.436  33.691  0.00  0.00     0.100 A 
ATOM     16  C   UNL d   1      56.097   0.600  34.508  0.00  0.00     0.023 A 
ATOM     17  C   UNL d   1      56.820   0.679  34.890  0.00  0.00     0.002 C 
ATOM     18  C   UNL d   1      55.393   0.681  34.930  0.00  0.00     0.002 A 
ATOM     19  C   UNL d   1      54.667   0.602  34.546  0.00  0.00     0.000 A 
ATOM     20  C   UNL d   1      54.634   0.440  33.736  0.00  0.00     0.002 A 
ATOM     21  C   UNL d   1      55.349   0.357  33.305  0.00  0.00     0.025 A 
ENDBRANCH  14  15
ENDBRANCH  13  14
ENDBRANCH  12  13
ENDBRANCH   1  12
TORSDOF 6
ENDMDL
