MODEL 1
REMARK VINA RESULT:       9.3      0.000      0.000
REMARK  5 active torsions:
REMARK  status: ('A' for Active; 'I' for Inactive)
REMARK    1  A    between atoms: C_2  and  S_1 
REMARK    2  A    between atoms: N_3  and  C_14 
REMARK    3  A    between atoms: C_9  and  N_3 
REMARK    4  A    between atoms: N_8  and  C_7 
REMARK    5  A    between atoms: C_15  and  C_9 
ROOT
ATOM      1  N   UNL d   1      46.194 -16.705  44.686  0.00  0.00    -0.244 NA
ENDROOT
BRANCH   1   2
ATOM      2  C   UNL d   1      46.245 -17.437  44.299  0.00  0.00     0.082 A 
ATOM      3  C   UNL d   1      46.360 -17.445  43.482  0.00  0.00     0.020 A 
ATOM      4  C   UNL d   1      46.411 -18.174  43.100  0.00  0.00     0.015 A 
ATOM      5  C   UNL d   1      46.348 -18.869  43.519  0.00  0.00     0.107 A 
ATOM      6  C   UNL d   1      46.232 -18.861  44.335  0.00  0.00     0.015 A 
ATOM      7  C   UNL d   1      46.182 -18.132  44.717  0.00  0.00     0.020 A 
BRANCH   5   8
ATOM      8  S   UNL d   1      46.400 -19.604  43.126  0.00  0.00     0.302 S 
ATOM      9  O   UNL d   1      46.377 -19.211  42.396  0.00  0.00    -0.197 OA
ATOM     10  O   UNL d   1      46.451 -20.327  42.727  0.00  0.00    -0.197 OA
ATOM     11  N   UNL d   1      46.422 -19.990  43.851  0.00  0.00    -0.043 N 
ENDBRANCH   5   8
ENDBRANCH   1   2
BRANCH   1  12
ATOM     12  C   UNL d   1      45.505 -16.273  44.666  0.00  0.00     0.099 C 
BRANCH  12  13
ATOM     13  C   UNL d   1      45.518 -15.449  44.593  0.00  0.00     0.019 A 
ATOM     14  C   UNL d   1      46.165 -15.055  44.231  0.00  0.00     0.003 A 
ATOM     15  C   UNL d   1      46.149 -14.236  44.174  0.00  0.00     0.018 A 
ATOM     16  C   UNL d   1      45.527 -13.798  44.457  0.00  0.00     0.064 A 
ATOM     17  C   UNL d   1      44.880 -14.192  44.820  0.00  0.00     0.018 A 
ATOM     18  C   UNL d   1      44.867 -15.017  44.892  0.00  0.00     0.003 A 
BRANCH  16  19
ATOM     19  N   UNL d   1      45.555 -12.978  44.378  0.00  0.00    -0.301 N 
ATOM     20  C   UNL d   1      45.169 -12.611  43.738  0.00  0.00     0.100 C 
ATOM     21  C   UNL d   1      45.965 -12.548  44.936  0.00  0.00     0.100 C 
ENDBRANCH  16  19
ENDBRANCH  12  13
ENDBRANCH   1  12
TORSDOF 5
ENDMDL
MODEL 2
REMARK VINA RESULT:       9.6      2.777      5.205
REMARK  5 active torsions:
REMARK  status: ('A' for Active; 'I' for Inactive)
REMARK    1  A    between atoms: C_2  and  S_1 
REMARK    2  A    between atoms: N_3  and  C_14 
REMARK    3  A    between atoms: C_9  and  N_3 
REMARK    4  A    between atoms: N_8  and  C_7 
REMARK    5  A    between atoms: C_15  and  C_9 
ROOT
ATOM      1  N   UNL d   1      45.451 -16.186  44.148  0.00  0.00    -0.244 NA
ENDROOT
BRANCH   1   2
ATOM      2  C   UNL d   1      45.505 -15.363  44.239  0.00  0.00     0.082 A 
ATOM      3  C   UNL d   1      46.223 -15.039  44.486  0.00  0.00     0.020 A 
ATOM      4  C   UNL d   1      46.274 -14.221  44.576  0.00  0.00     0.015 A 
ATOM      5  C   UNL d   1      45.633 -13.745  44.426  0.00  0.00     0.107 A 
ATOM      6  C   UNL d   1      44.915 -14.068  44.179  0.00  0.00     0.015 A 
ATOM      7  C   UNL d   1      44.864 -14.886  44.089  0.00  0.00     0.020 A 
BRANCH   5   8
ATOM      8  S   UNL d   1      45.690 -12.917  44.519  0.00  0.00     0.302 S 
ATOM      9  O   UNL d   1      44.993 -12.823  44.079  0.00  0.00    -0.197 OA
ATOM     10  O   UNL d   1      45.737 -12.095  44.605  0.00  0.00    -0.197 OA
ATOM     11  N   UNL d   1      46.380 -13.013  44.955  0.00  0.00    -0.043 N 
ENDBRANCH   5   8
ENDBRANCH   1   2
BRANCH   1  12
ATOM     12  C   UNL d   1      46.060 -16.670  44.384  0.00  0.00     0.099 C 
BRANCH  12  13
ATOM     13  C   UNL d   1      46.165 -17.420  44.052  0.00  0.00     0.019 A 
ATOM     14  C   UNL d   1      46.180 -17.528  43.219  0.00  0.00     0.003 A 
ATOM     15  C   UNL d   1      46.285 -18.285  42.920  0.00  0.00     0.018 A 
ATOM     16  C   UNL d   1      46.375 -18.931  43.405  0.00  0.00     0.064 A 
ATOM     17  C   UNL d   1      46.359 -18.823  44.238  0.00  0.00     0.018 A 
ATOM     18  C   UNL d   1      46.255 -18.071  44.570  0.00  0.00     0.003 A 
BRANCH  16  19
ATOM     19  N   UNL d   1      46.478 -19.672  43.059  0.00  0.00    -0.301 N 
ATOM     20  C   UNL d   1      46.602 -19.732  42.238  0.00  0.00     0.100 C 
ATOM     21  C   UNL d   1      46.454 -20.330  43.539  0.00  0.00     0.100 C 
ENDBRANCH  16  19
ENDBRANCH  12  13
ENDBRANCH   1  12
TORSDOF 5
ENDMDL
