MODEL 1
REMARK VINA RESULT:      49.3      0.000      0.000
REMARK  4 active torsions:
REMARK  status: ('A' for Active; 'I' for Inactive)
REMARK    1  A    between atoms: N_4  and  C_1 
REMARK    2  A    between atoms: N_9  and  N_4 
REMARK    3  A    between atoms: C_8  and  C_7 
REMARK    4  A    between atoms: C_10  and  N_9 
ROOT
ATOM      1  N   UNL d   1     -52.147  25.443  33.525  0.00  0.00    -0.146 NA
ENDROOT
BRANCH   1   2
ATOM      2  C   UNL d   1     -51.342  25.610  33.449  0.00  0.00     0.122 A 
ATOM      3  C   UNL d   1     -50.715  25.069  33.362  0.00  0.00     0.101 A 
ATOM      4  N   UNL d   1     -50.021  25.460  33.306  0.00  0.00    -0.244 NA
ATOM      5  C   UNL d   1     -50.783  24.277  33.336  0.00  0.00     0.022 C 
ATOM      6  C   UNL d   1     -50.168  26.253  33.354  0.00  0.00     0.083 A 
ATOM      7  C   UNL d   1     -51.008  26.364  33.445  0.00  0.00     0.039 A 
ATOM      8  C   UNL d   1     -49.699  26.918  33.333  0.00  0.00     0.019 A 
ATOM      9  C   UNL d   1     -51.330  27.139  33.510  0.00  0.00     0.003 A 
ATOM     10  C   UNL d   1     -50.819  27.801  33.484  0.00  0.00     0.000 A 
ATOM     11  C   UNL d   1     -50.011  27.668  33.396  0.00  0.00     0.002 A 
ENDBRANCH   1   2
BRANCH   1  12
ATOM     12  N   UNL d   1     -52.428  25.040  34.200  0.00  0.00    -0.148 NA
BRANCH  12  13
ATOM     13  C   UNL d   1     -52.990  24.420  34.156  0.00  0.00     0.109 A 
ATOM     14  C   UNL d   1     -53.289  24.076  34.827  0.00  0.00     0.084 A 
ATOM     15  C   UNL d   1     -53.843  23.466  34.769  0.00  0.00     0.008 A 
ATOM     16  C   UNL d   1     -54.090  23.208  33.996  0.00  0.00     0.000 A 
ATOM     17  C   UNL d   1     -53.767  23.579  33.313  0.00  0.00     0.002 A 
ATOM     18  C   UNL d   1     -53.214  24.187  33.423  0.00  0.00     0.021 A 
BRANCH  14  19
ATOM     19  C   UNL d   1     -53.043  24.333  35.562  0.00  0.00     0.212 C 
ATOM     20  O   UNL d   1     -53.244  25.075  35.843  0.00  0.00    -0.644 OA
ATOM     21  O   UNL d   1     -52.580  23.856  36.058  0.00  0.00    -0.644 OA
ENDBRANCH  14  19
ENDBRANCH  12  13
ENDBRANCH   1  12
TORSDOF 4
ENDMDL
