MODEL 1
REMARK VINA RESULT:      -5.7      0.000      0.000
REMARK  8 active torsions:
REMARK  status: ('A' for Active; 'I' for Inactive)
REMARK    1  A    between atoms: C_3  and  C_1 
REMARK    2  A    between atoms: N_5  and  C_2 
REMARK    3  A    between atoms: N_4  and  C_3 
REMARK    4  A    between atoms: C_10  and  C_3 
REMARK    5  A    between atoms: C_13  and  N_4 
REMARK       I    between atoms: C_6  and  N_5 
REMARK    6  A    between atoms: C_8  and  C_13 
REMARK    7  A    between atoms: O_16  and  C_8 
REMARK    8  A    between atoms: C_21  and  O_16 
ROOT
ATOM      1  C   UNL d   1      52.993  32.979  53.368  0.00  0.00     0.083 C 
ENDROOT
BRANCH   1   2
ATOM      2  C   UNL d   1      53.446  33.358  53.944  0.00  0.00     0.036 A 
ATOM      3  C   UNL d   1      54.257  33.381  53.893  0.00  0.00     0.086 A 
ATOM      4  C   UNL d   1      54.709  33.761  54.469  0.00  0.00     0.020 A 
ATOM      5  C   UNL d   1      54.351  34.118  55.096  0.00  0.00     0.008 A 
ATOM      6  C   UNL d   1      53.507  34.102  55.162  0.00  0.00     0.035 A 
ATOM      7  C   UNL d   1      53.070  33.717  54.576  0.00  0.00     0.010 A 
ATOM      8 BR   UNL d   1      53.119  34.469  55.809  0.00  0.00    -0.049 Br
BRANCH   3   9
ATOM      9  N   UNL d   1      54.638  33.009  53.238  0.00  0.00    -0.208 NA
ATOM     10  C   UNL d   1      55.459  33.076  53.147  0.00  0.00     0.279 C 
ATOM     11  O   UNL d   1      55.822  32.721  52.522  0.00  0.00    -0.265 OA
ATOM     12  C   UNL d   1      55.911  33.498  53.681  0.00  0.00     0.068 C 
ENDBRANCH   3   9
ENDBRANCH   1   2
BRANCH   1  13
ATOM     13  N   UNL d   1      53.157  32.215  53.135  0.00  0.00    -0.238 NA
BRANCH  13  14
ATOM     14  C   UNL d   1      52.648  31.612  53.393  0.00  0.00     0.167 C 
BRANCH  14  15
ATOM     15  C   UNL d   1      52.874  30.815  53.241  0.00  0.00     0.320 C 
ATOM     16  O   UNL d   1      52.785  30.513  52.455  0.00  0.00    -0.257 OA
BRANCH  15  17
ATOM     17  O   UNL d   1      53.175  30.332  53.838  0.00  0.00    -0.270 OA
BRANCH  17  18
ATOM     18  C   UNL d   1      53.076  29.540  53.801  0.00  0.00     0.126 C 
ATOM     19  C   UNL d   1      53.329  29.034  54.403  0.00  0.00     0.029 C 
ENDBRANCH  17  18
ENDBRANCH  15  17
ENDBRANCH  14  15
ENDBRANCH  13  14
ENDBRANCH   1  13
BRANCH   1  20
ATOM     20  C   UNL d   1      52.365  33.375  53.020  0.00  0.00     0.018 A 
ATOM     21  C   UNL d   1      51.603  33.320  53.333  0.00  0.00     0.002 A 
ATOM     22  C   UNL d   1      50.966  33.706  53.002  0.00  0.00     0.000 A 
ATOM     23  C   UNL d   1      51.106  34.184  52.305  0.00  0.00     0.000 A 
ATOM     24  C   UNL d   1      51.865  34.244  51.986  0.00  0.00     0.000 A 
ATOM     25  C   UNL d   1      52.493  33.842  52.341  0.00  0.00     0.002 A 
ENDBRANCH   1  20
TORSDOF 8
ENDMDL
MODEL 2
REMARK VINA RESULT:      -5.0      1.311      3.101
REMARK  8 active torsions:
REMARK  status: ('A' for Active; 'I' for Inactive)
REMARK    1  A    between atoms: C_3  and  C_1 
REMARK    2  A    between atoms: N_5  and  C_2 
REMARK    3  A    between atoms: N_4  and  C_3 
REMARK    4  A    between atoms: C_10  and  C_3 
REMARK    5  A    between atoms: C_13  and  N_4 
REMARK       I    between atoms: C_6  and  N_5 
REMARK    6  A    between atoms: C_8  and  C_13 
REMARK    7  A    between atoms: O_16  and  C_8 
REMARK    8  A    between atoms: C_21  and  O_16 
ROOT
ATOM      1  C   UNL d   1      53.174  32.941  53.706  0.00  0.00     0.083 C 
ENDROOT
BRANCH   1   2
ATOM      2  C   UNL d   1      52.879  33.547  53.230  0.00  0.00     0.036 A 
ATOM      3  C   UNL d   1      52.079  33.671  53.156  0.00  0.00     0.086 A 
ATOM      4  C   UNL d   1      51.784  34.277  52.680  0.00  0.00     0.020 A 
ATOM      5  C   UNL d   1      52.289  34.758  52.277  0.00  0.00     0.008 A 
ATOM      6  C   UNL d   1      53.125  34.641  52.345  0.00  0.00     0.035 A 
ATOM      7  C   UNL d   1      53.402  34.030  52.826  0.00  0.00     0.010 A 
ATOM      8 BR   UNL d   1      53.663  35.135  51.931  0.00  0.00    -0.049 Br
BRANCH   3   9
ATOM      9  N   UNL d   1      51.545  33.169  53.575  0.00  0.00    -0.208 NA
ATOM     10  C   UNL d   1      50.728  33.269  53.481  0.00  0.00     0.279 C 
ATOM     11  O   UNL d   1      50.218  32.789  53.881  0.00  0.00    -0.265 OA
ATOM     12  C   UNL d   1      50.425  33.845  52.987  0.00  0.00     0.068 C 
ENDBRANCH   3   9
ENDBRANCH   1   2
BRANCH   1  13
ATOM     13  N   UNL d   1      52.930  32.169  53.609  0.00  0.00    -0.238 NA
BRANCH  13  14
ATOM     14  C   UNL d   1      53.475  31.626  53.298  0.00  0.00     0.167 C 
BRANCH  14  15
ATOM     15  C   UNL d   1      53.234  30.822  53.230  0.00  0.00     0.320 C 
ATOM     16  O   UNL d   1      52.966  30.543  52.477  0.00  0.00    -0.257 OA
BRANCH  15  17
ATOM     17  O   UNL d   1      53.255  30.310  53.877  0.00  0.00    -0.270 OA
BRANCH  17  18
ATOM     18  C   UNL d   1      53.267  29.520  53.762  0.00  0.00     0.126 C 
ATOM     19  C   UNL d   1      53.338  28.984  54.387  0.00  0.00     0.029 C 
ENDBRANCH  17  18
ENDBRANCH  15  17
ENDBRANCH  14  15
ENDBRANCH  13  14
ENDBRANCH   1  13
BRANCH   1  20
ATOM     20  C   UNL d   1      53.723  33.116  54.290  0.00  0.00     0.018 A 
ATOM     21  C   UNL d   1      54.531  33.122  54.123  0.00  0.00     0.002 A 
ATOM     22  C   UNL d   1      55.092  33.294  54.689  0.00  0.00     0.000 A 
ATOM     23  C   UNL d   1      54.820  33.471  55.481  0.00  0.00     0.000 A 
ATOM     24  C   UNL d   1      54.013  33.467  55.655  0.00  0.00     0.000 A 
ATOM     25  C   UNL d   1      53.466  33.290  55.064  0.00  0.00     0.002 A 
ENDBRANCH   1  20
TORSDOF 8
ENDMDL
MODEL 3
REMARK VINA RESULT:      -4.7      1.780      3.394
REMARK  8 active torsions:
REMARK  status: ('A' for Active; 'I' for Inactive)
REMARK    1  A    between atoms: C_3  and  C_1 
REMARK    2  A    between atoms: N_5  and  C_2 
REMARK    3  A    between atoms: N_4  and  C_3 
REMARK    4  A    between atoms: C_10  and  C_3 
REMARK    5  A    between atoms: C_13  and  N_4 
REMARK       I    between atoms: C_6  and  N_5 
REMARK    6  A    between atoms: C_8  and  C_13 
REMARK    7  A    between atoms: O_16  and  C_8 
REMARK    8  A    between atoms: C_21  and  O_16 
ROOT
ATOM      1  C   UNL d   1      53.292  32.324  53.689  0.00  0.00     0.083 C 
ENDROOT
BRANCH   1   2
ATOM      2  C   UNL d   1      54.010  32.725  53.755  0.00  0.00     0.036 A 
ATOM      3  C   UNL d   1      54.136  33.266  54.349  0.00  0.00     0.086 A 
ATOM      4  C   UNL d   1      54.855  33.666  54.416  0.00  0.00     0.020 A 
ATOM      5  C   UNL d   1      55.447  33.526  53.888  0.00  0.00     0.008 A 
ATOM      6  C   UNL d   1      55.330  32.965  53.265  0.00  0.00     0.035 A 
ATOM      7  C   UNL d   1      54.606  32.574  53.213  0.00  0.00     0.010 A 
ATOM      8 BR   UNL d   1      55.939  32.809  52.708  0.00  0.00    -0.049 Br
BRANCH   3   9
ATOM      9  N   UNL d   1      53.518  33.417  54.905  0.00  0.00    -0.208 NA
ATOM     10  C   UNL d   1      53.567  34.076  55.403  0.00  0.00     0.279 C 
ATOM     11  O   UNL d   1      52.977  34.220  55.933  0.00  0.00    -0.265 OA
ATOM     12  C   UNL d   1      54.203  34.588  55.370  0.00  0.00     0.068 C 
ENDBRANCH   3   9
ENDBRANCH   1   2
BRANCH   1  13
ATOM     13  N   UNL d   1      52.586  32.727  53.632  0.00  0.00    -0.238 NA
BRANCH  13  14
ATOM     14  C   UNL d   1      52.223  32.773  52.886  0.00  0.00     0.167 C 
BRANCH  14  15
ATOM     15  C   UNL d   1      51.511  33.217  52.822  0.00  0.00     0.320 C 
ATOM     16  O   UNL d   1      50.866  33.021  53.334  0.00  0.00    -0.257 OA
BRANCH  15  17
ATOM     17  O   UNL d   1      51.433  33.830  52.276  0.00  0.00    -0.270 OA
BRANCH  17  18
ATOM     18  C   UNL d   1      50.716  34.151  52.132  0.00  0.00     0.126 C 
ATOM     19  C   UNL d   1      50.521  34.492  51.405  0.00  0.00     0.029 C 
ENDBRANCH  17  18
ENDBRANCH  15  17
ENDBRANCH  14  15
ENDBRANCH  13  14
ENDBRANCH   1  13
BRANCH   1  20
ATOM     20  C   UNL d   1      53.286  31.504  53.679  0.00  0.00     0.018 A 
ATOM     21  C   UNL d   1      53.269  31.088  52.967  0.00  0.00     0.002 A 
ATOM     22  C   UNL d   1      53.262  30.273  52.937  0.00  0.00     0.000 A 
ATOM     23  C   UNL d   1      53.272  29.846  53.679  0.00  0.00     0.000 A 
ATOM     24  C   UNL d   1      53.289  30.255  54.395  0.00  0.00     0.000 A 
ATOM     25  C   UNL d   1      53.296  31.080  54.398  0.00  0.00     0.002 A 
ENDBRANCH   1  20
TORSDOF 8
ENDMDL
MODEL 4
REMARK VINA RESULT:      -4.6      1.771      3.494
REMARK  8 active torsions:
REMARK  status: ('A' for Active; 'I' for Inactive)
REMARK    1  A    between atoms: C_3  and  C_1 
REMARK    2  A    between atoms: N_5  and  C_2 
REMARK    3  A    between atoms: N_4  and  C_3 
REMARK    4  A    between atoms: C_10  and  C_3 
REMARK    5  A    between atoms: C_13  and  N_4 
REMARK       I    between atoms: C_6  and  N_5 
REMARK    6  A    between atoms: C_8  and  C_13 
REMARK    7  A    between atoms: O_16  and  C_8 
REMARK    8  A    between atoms: C_21  and  O_16 
ROOT
ATOM      1  C   UNL d   1      52.804  33.611  53.460  0.00  0.00     0.083 C 
ENDROOT
BRANCH   1   2
ATOM      2  C   UNL d   1      53.417  33.064  53.377  0.00  0.00     0.036 A 
ATOM      3  C   UNL d   1      53.268  32.265  53.367  0.00  0.00     0.086 A 
ATOM      4  C   UNL d   1      53.880  31.718  53.285  0.00  0.00     0.020 A 
ATOM      5  C   UNL d   1      54.641  31.971  53.212  0.00  0.00     0.008 A 
ATOM      6  C   UNL d   1      54.812  32.800  53.221  0.00  0.00     0.035 A 
ATOM      7  C   UNL d   1      54.187  33.333  53.304  0.00  0.00     0.010 A 
ATOM      8 BR   UNL d   1      55.600  33.078  53.146  0.00  0.00    -0.049 Br
BRANCH   3   9
ATOM      9  N   UNL d   1      52.471  31.995  53.443  0.00  0.00    -0.208 NA
ATOM     10  C   UNL d   1      52.299  31.191  53.344  0.00  0.00     0.279 C 
ATOM     11  O   UNL d   1      51.539  30.933  53.416  0.00  0.00    -0.265 OA
ATOM     12  C   UNL d   1      52.887  30.650  53.173  0.00  0.00     0.068 C 
ENDBRANCH   3   9
ENDBRANCH   1   2
BRANCH   1  13
ATOM     13  N   UNL d   1      52.133  33.568  53.000  0.00  0.00    -0.238 NA
BRANCH  13  14
ATOM     14  C   UNL d   1      51.908  34.245  52.575  0.00  0.00     0.167 C 
BRANCH  14  15
ATOM     15  C   UNL d   1      51.218  34.196  52.095  0.00  0.00     0.320 C 
ATOM     16  O   UNL d   1      51.314  34.094  51.260  0.00  0.00    -0.257 OA
BRANCH  15  17
ATOM     17  O   UNL d   1      50.462  34.246  52.421  0.00  0.00    -0.270 OA
BRANCH  17  18
ATOM     18  C   UNL d   1      49.854  34.521  51.982  0.00  0.00     0.126 C 
ATOM     19  C   UNL d   1      49.152  34.795  52.322  0.00  0.00     0.029 C 
ENDBRANCH  17  18
ENDBRANCH  15  17
ENDBRANCH  14  15
ENDBRANCH  13  14
ENDBRANCH   1  13
BRANCH   1  20
ATOM     20  C   UNL d   1      52.870  34.212  54.015  0.00  0.00     0.018 A 
ATOM     21  C   UNL d   1      52.749  34.062  54.818  0.00  0.00     0.002 A 
ATOM     22  C   UNL d   1      52.810  34.645  55.384  0.00  0.00     0.000 A 
ATOM     23  C   UNL d   1      53.006  35.437  55.124  0.00  0.00     0.000 A 
ATOM     24  C   UNL d   1      53.128  35.594  54.323  0.00  0.00     0.000 A 
ATOM     25  C   UNL d   1      53.061  34.985  53.770  0.00  0.00     0.002 A 
ENDBRANCH   1  20
TORSDOF 8
ENDMDL
MODEL 5
REMARK VINA RESULT:      -4.1      1.572      3.722
REMARK  8 active torsions:
REMARK  status: ('A' for Active; 'I' for Inactive)
REMARK    1  A    between atoms: C_3  and  C_1 
REMARK    2  A    between atoms: N_5  and  C_2 
REMARK    3  A    between atoms: N_4  and  C_3 
REMARK    4  A    between atoms: C_10  and  C_3 
REMARK    5  A    between atoms: C_13  and  N_4 
REMARK       I    between atoms: C_6  and  N_5 
REMARK    6  A    between atoms: C_8  and  C_13 
REMARK    7  A    between atoms: O_16  and  C_8 
REMARK    8  A    between atoms: C_21  and  O_16 
ROOT
ATOM      1  C   UNL d   1      53.316  31.954  53.860  0.00  0.00     0.083 C 
ENDROOT
BRANCH   1   2
ATOM      2  C   UNL d   1      53.318  31.171  54.120  0.00  0.00     0.036 A 
ATOM      3  C   UNL d   1      53.297  30.553  53.592  0.00  0.00     0.086 A 
ATOM      4  C   UNL d   1      53.298  29.770  53.852  0.00  0.00     0.020 A 
ATOM      5  C   UNL d   1      53.321  29.605  54.640  0.00  0.00     0.008 A 
ATOM      6  C   UNL d   1      53.344  30.238  55.202  0.00  0.00     0.035 A 
ATOM      7  C   UNL d   1      53.341  31.015  54.924  0.00  0.00     0.010 A 
ATOM      8 BR   UNL d   1      53.368  30.081  56.026  0.00  0.00    -0.049 Br
BRANCH   3   9
ATOM      9  N   UNL d   1      53.272  30.720  52.765  0.00  0.00    -0.208 NA
ATOM     10  C   UNL d   1      53.058  30.124  52.231  0.00  0.00     0.279 C 
ATOM     11  O   UNL d   1      53.035  30.285  51.441  0.00  0.00    -0.265 OA
ATOM     12  C   UNL d   1      52.867  29.373  52.489  0.00  0.00     0.068 C 
ENDBRANCH   3   9
ENDBRANCH   1   2
BRANCH   1  13
ATOM     13  N   UNL d   1      52.699  32.253  53.420  0.00  0.00    -0.238 NA
BRANCH  13  14
ATOM     14  C   UNL d   1      52.243  32.862  53.752  0.00  0.00     0.167 C 
BRANCH  14  15
ATOM     15  C   UNL d   1      51.570  33.129  53.324  0.00  0.00     0.320 C 
ATOM     16  O   UNL d   1      50.802  32.892  53.591  0.00  0.00    -0.257 OA
BRANCH  15  17
ATOM     17  O   UNL d   1      51.645  33.609  52.658  0.00  0.00    -0.270 OA
BRANCH  17  18
ATOM     18  C   UNL d   1      51.041  34.080  52.433  0.00  0.00     0.126 C 
ATOM     19  C   UNL d   1      51.002  34.420  51.680  0.00  0.00     0.029 C 
ENDBRANCH  17  18
ENDBRANCH  15  17
ENDBRANCH  14  15
ENDBRANCH  13  14
ENDBRANCH   1  13
BRANCH   1  20
ATOM     20  C   UNL d   1      53.947  32.444  54.047  0.00  0.00     0.018 A 
ATOM     21  C   UNL d   1      54.548  32.587  53.500  0.00  0.00     0.002 A 
ATOM     22  C   UNL d   1      55.183  33.071  53.667  0.00  0.00     0.000 A 
ATOM     23  C   UNL d   1      55.215  33.437  54.441  0.00  0.00     0.000 A 
ATOM     24  C   UNL d   1      54.618  33.297  54.992  0.00  0.00     0.000 A 
ATOM     25  C   UNL d   1      53.986  32.803  54.798  0.00  0.00     0.002 A 
ENDBRANCH   1  20
TORSDOF 8
ENDMDL
MODEL 6
REMARK VINA RESULT:      -3.3      1.828      3.241
REMARK  8 active torsions:
REMARK  status: ('A' for Active; 'I' for Inactive)
REMARK    1  A    between atoms: C_3  and  C_1 
REMARK    2  A    between atoms: N_5  and  C_2 
REMARK    3  A    between atoms: N_4  and  C_3 
REMARK    4  A    between atoms: C_10  and  C_3 
REMARK    5  A    between atoms: C_13  and  N_4 
REMARK       I    between atoms: C_6  and  N_5 
REMARK    6  A    between atoms: C_8  and  C_13 
REMARK    7  A    between atoms: O_16  and  C_8 
REMARK    8  A    between atoms: C_21  and  O_16 
ROOT
ATOM      1  C   UNL d   1      52.491  33.209  53.389  0.00  0.00     0.083 C 
ENDROOT
BRANCH   1   2
ATOM      2  C   UNL d   1      52.636  32.399  53.323  0.00  0.00     0.036 A 
ATOM      3  C   UNL d   1      53.378  32.119  53.142  0.00  0.00     0.086 A 
ATOM      4  C   UNL d   1      53.523  31.309  53.076  0.00  0.00     0.020 A 
ATOM      5  C   UNL d   1      52.926  30.780  53.190  0.00  0.00     0.008 A 
ATOM      6  C   UNL d   1      52.149  31.058  53.379  0.00  0.00     0.035 A 
ATOM      7  C   UNL d   1      52.022  31.871  53.441  0.00  0.00     0.010 A 
ATOM      8 BR   UNL d   1      51.518  30.518  53.501  0.00  0.00    -0.049 Br
BRANCH   3   9
ATOM      9  N   UNL d   1      54.007  32.669  53.021  0.00  0.00    -0.208 NA
ATOM     10  C   UNL d   1      54.793  32.413  53.074  0.00  0.00     0.279 C 
ATOM     11  O   UNL d   1      55.393  32.939  52.958  0.00  0.00    -0.265 OA
ATOM     12  C   UNL d   1      54.974  31.634  53.241  0.00  0.00     0.068 C 
ENDBRANCH   3   9
ENDBRANCH   1   2
BRANCH   1  13
ATOM     13  N   UNL d   1      52.953  33.685  53.863  0.00  0.00    -0.238 NA
BRANCH  13  14
ATOM     14  C   UNL d   1      52.594  34.047  54.518  0.00  0.00     0.167 C 
BRANCH  14  15
ATOM     15  C   UNL d   1      53.071  34.541  55.005  0.00  0.00     0.320 C 
ATOM     16  O   UNL d   1      53.330  34.242  55.754  0.00  0.00    -0.257 OA
BRANCH  15  17
ATOM     17  O   UNL d   1      53.287  35.300  54.766  0.00  0.00    -0.270 OA
BRANCH  17  18
ATOM     18  C   UNL d   1      53.004  35.938  55.155  0.00  0.00     0.126 C 
ATOM     19  C   UNL d   1      53.107  36.709  54.875  0.00  0.00     0.029 C 
ENDBRANCH  17  18
ENDBRANCH  15  17
ENDBRANCH  14  15
ENDBRANCH  13  14
ENDBRANCH   1  13
BRANCH   1  20
ATOM     20  C   UNL d   1      51.870  33.545  52.970  0.00  0.00     0.018 A 
ATOM     21  C   UNL d   1      51.102  33.537  53.273  0.00  0.00     0.002 A 
ATOM     22  C   UNL d   1      50.473  33.865  52.872  0.00  0.00     0.000 A 
ATOM     23  C   UNL d   1      50.627  34.228  52.112  0.00  0.00     0.000 A 
ATOM     24  C   UNL d   1      51.393  34.238  51.804  0.00  0.00     0.000 A 
ATOM     25  C   UNL d   1      52.012  33.899  52.229  0.00  0.00     0.002 A 
ENDBRANCH   1  20
TORSDOF 8
ENDMDL
