MODEL 1
REMARK VINA RESULT:      -7.9      0.000      0.000
REMARK  6 active torsions:
REMARK  status: ('A' for Active; 'I' for Inactive)
REMARK    1  A    between atoms: N_10  and  C_2 
REMARK    2  A    between atoms: C_13  and  C_3 
REMARK    3  A    between atoms: C_6  and  S_15 
REMARK       I    between atoms: C_12  and  N_10 
REMARK    4  A    between atoms: C_14  and  C_12 
REMARK    5  A    between atoms: C_17  and  C_14 
REMARK    6  A    between atoms: S_15  and  C_17 
ROOT
ATOM      1  N   UNL d   1      51.384  34.017  52.522  0.00  0.00    -0.181 NA
ATOM      2  C   UNL d   1      50.631  34.046  52.858  0.00  0.00     0.282 C 
ATOM      3  O   UNL d   1      50.474  33.654  53.571  0.00  0.00    -0.265 OA
ENDROOT
BRANCH   1   4
ATOM      4  C   UNL d   1      52.000  33.593  52.894  0.00  0.00     0.216 A 
ATOM      5  N   UNL d   1      52.591  33.917  53.370  0.00  0.00    -0.200 NA
ATOM      6  C   UNL d   1      53.076  33.300  53.617  0.00  0.00     0.172 A 
ATOM      7  N   UNL d   1      52.781  32.609  53.293  0.00  0.00    -0.187 NA
ATOM      8  S   UNL d   1      52.120  32.790  52.849  0.00  0.00     0.054 SA
BRANCH   6   9
ATOM      9  C   UNL d   1      53.747  33.335  54.102  0.00  0.00     0.036 A 
ATOM     10  C   UNL d   1      54.497  33.366  53.766  0.00  0.00     0.003 A 
ATOM     11  C   UNL d   1      55.165  33.401  54.250  0.00  0.00     0.000 A 
ATOM     12  C   UNL d   1      55.081  33.404  55.068  0.00  0.00     0.000 A 
ATOM     13  C   UNL d   1      54.328  33.372  55.407  0.00  0.00     0.000 A 
ATOM     14  C   UNL d   1      53.661  33.337  54.924  0.00  0.00     0.003 A 
ENDBRANCH   6   9
ENDBRANCH   1   4
BRANCH   2  15
ATOM     15  C   UNL d   1      50.023  34.470  52.483  0.00  0.00     0.070 C 
BRANCH  15  16
ATOM     16  C   UNL d   1      49.477  34.896  52.931  0.00  0.00     0.042 C 
BRANCH  16  17
ATOM     17  S   UNL d   1      48.893  35.335  52.549  0.00  0.00    -0.059 SA
BRANCH  17  18
ATOM     18  C   UNL d   1      48.379  35.805  52.992  0.00  0.00     0.164 A 
ATOM     19  S   UNL d   1      47.556  35.893  52.990  0.00  0.00    -0.039 SA
ATOM     20  C   UNL d   1      47.362  36.448  53.561  0.00  0.00     0.134 A 
ATOM     21  C   UNL d   1      46.590  36.708  53.748  0.00  0.00     0.030 C 
ATOM     22  N   UNL d   1      48.056  36.706  53.918  0.00  0.00    -0.140 NA
ATOM     23  N   UNL d   1      48.681  36.311  53.568  0.00  0.00    -0.134 NA
ENDBRANCH  17  18
ENDBRANCH  16  17
ENDBRANCH  15  16
ENDBRANCH   2  15
TORSDOF 6
ENDMDL
MODEL 2
REMARK VINA RESULT:      -7.8      1.225      1.330
REMARK  6 active torsions:
REMARK  status: ('A' for Active; 'I' for Inactive)
REMARK    1  A    between atoms: N_10  and  C_2 
REMARK    2  A    between atoms: C_13  and  C_3 
REMARK    3  A    between atoms: C_6  and  S_15 
REMARK       I    between atoms: C_12  and  N_10 
REMARK    4  A    between atoms: C_14  and  C_12 
REMARK    5  A    between atoms: C_17  and  C_14 
REMARK    6  A    between atoms: S_15  and  C_17 
ROOT
ATOM      1  N   UNL d   1      51.314  34.019  52.126  0.00  0.00    -0.181 NA
ATOM      2  C   UNL d   1      50.526  34.183  52.311  0.00  0.00     0.282 C 
ATOM      3  O   UNL d   1      50.219  33.977  53.053  0.00  0.00    -0.265 OA
ENDROOT
BRANCH   1   4
ATOM      4  C   UNL d   1      51.813  33.645  52.681  0.00  0.00     0.216 A 
ATOM      5  N   UNL d   1      52.454  33.994  53.066  0.00  0.00    -0.200 NA
ATOM      6  C   UNL d   1      52.785  33.425  53.560  0.00  0.00     0.172 A 
ATOM      7  N   UNL d   1      52.348  32.739  53.475  0.00  0.00    -0.187 NA
ATOM      8  S   UNL d   1      51.751  32.875  52.935  0.00  0.00     0.054 SA
BRANCH   6   9
ATOM      9  C   UNL d   1      53.438  33.498  54.064  0.00  0.00     0.036 A 
ATOM     10  C   UNL d   1      53.420  34.035  54.687  0.00  0.00     0.003 A 
ATOM     11  C   UNL d   1      54.071  34.108  55.189  0.00  0.00     0.000 A 
ATOM     12  C   UNL d   1      54.739  33.644  55.067  0.00  0.00     0.000 A 
ATOM     13  C   UNL d   1      54.759  33.104  54.442  0.00  0.00     0.000 A 
ATOM     14  C   UNL d   1      54.109  33.031  53.940  0.00  0.00     0.003 A 
ENDBRANCH   6   9
ENDBRANCH   1   4
BRANCH   2  15
ATOM     15  C   UNL d   1      50.035  34.555  51.754  0.00  0.00     0.070 C 
BRANCH  15  16
ATOM     16  C   UNL d   1      49.246  34.712  51.937  0.00  0.00     0.042 C 
BRANCH  16  17
ATOM     17  S   UNL d   1      48.724  34.917  51.333  0.00  0.00    -0.059 SA
BRANCH  17  18
ATOM     18  C   UNL d   1      47.984  35.231  51.522  0.00  0.00     0.164 A 
ATOM     19  S   UNL d   1      47.745  35.845  52.021  0.00  0.00    -0.039 SA
ATOM     20  C   UNL d   1      46.927  35.899  51.980  0.00  0.00     0.134 A 
ATOM     21  C   UNL d   1      46.452  36.446  52.396  0.00  0.00     0.030 C 
ATOM     22  N   UNL d   1      46.656  35.324  51.459  0.00  0.00    -0.140 NA
ATOM     23  N   UNL d   1      47.305  34.913  51.178  0.00  0.00    -0.134 NA
ENDBRANCH  17  18
ENDBRANCH  16  17
ENDBRANCH  15  16
ENDBRANCH   2  15
TORSDOF 6
ENDMDL
MODEL 3
REMARK VINA RESULT:      -6.8      1.167      5.803
REMARK  6 active torsions:
REMARK  status: ('A' for Active; 'I' for Inactive)
REMARK    1  A    between atoms: N_10  and  C_2 
REMARK    2  A    between atoms: C_13  and  C_3 
REMARK    3  A    between atoms: C_6  and  S_15 
REMARK       I    between atoms: C_12  and  N_10 
REMARK    4  A    between atoms: C_14  and  C_12 
REMARK    5  A    between atoms: C_17  and  C_14 
REMARK    6  A    between atoms: S_15  and  C_17 
ROOT
ATOM      1  N   UNL d   1      50.770  34.412  52.306  0.00  0.00    -0.181 NA
ATOM      2  C   UNL d   1      51.046  33.812  52.800  0.00  0.00     0.282 C 
ATOM      3  O   UNL d   1      50.529  33.429  53.323  0.00  0.00    -0.265 OA
ENDROOT
BRANCH   1   4
ATOM      4  C   UNL d   1      49.968  34.644  52.324  0.00  0.00     0.216 A 
ATOM      5  N   UNL d   1      49.640  35.209  52.827  0.00  0.00    -0.200 NA
ATOM      6  C   UNL d   1      48.837  35.259  52.653  0.00  0.00     0.172 A 
ATOM      7  N   UNL d   1      48.682  34.729  52.049  0.00  0.00    -0.187 NA
ATOM      8  S   UNL d   1      49.377  34.352  51.848  0.00  0.00     0.054 SA
BRANCH   6   9
ATOM      9  C   UNL d   1      48.263  35.744  53.002  0.00  0.00     0.036 A 
ATOM     10  C   UNL d   1      48.328  35.953  53.795  0.00  0.00     0.003 A 
ATOM     11  C   UNL d   1      47.757  36.436  54.143  0.00  0.00     0.000 A 
ATOM     12  C   UNL d   1      47.122  36.709  53.698  0.00  0.00     0.000 A 
ATOM     13  C   UNL d   1      47.054  36.500  52.901  0.00  0.00     0.000 A 
ATOM     14  C   UNL d   1      47.626  36.017  52.553  0.00  0.00     0.003 A 
ENDBRANCH   6   9
ENDBRANCH   1   4
BRANCH   2  15
ATOM     15  C   UNL d   1      51.845  33.586  52.777  0.00  0.00     0.070 C 
BRANCH  15  16
ATOM     16  C   UNL d   1      52.228  33.350  53.468  0.00  0.00     0.042 C 
BRANCH  16  17
ATOM     17  S   UNL d   1      52.955  32.963  53.416  0.00  0.00    -0.059 SA
BRANCH  17  18
ATOM     18  C   UNL d   1      53.483  32.998  54.050  0.00  0.00     0.164 A 
ATOM     19  S   UNL d   1      54.035  33.565  54.290  0.00  0.00    -0.039 SA
ATOM     20  C   UNL d   1      54.401  33.286  54.969  0.00  0.00     0.134 A 
ATOM     21  C   UNL d   1      54.997  33.683  55.400  0.00  0.00     0.030 C 
ATOM     22  N   UNL d   1      54.082  32.551  55.153  0.00  0.00    -0.140 NA
ATOM     23  N   UNL d   1      53.518  32.374  54.588  0.00  0.00    -0.134 NA
ENDBRANCH  17  18
ENDBRANCH  16  17
ENDBRANCH  15  16
ENDBRANCH   2  15
TORSDOF 6
ENDMDL
