MODEL 1
REMARK VINA RESULT:      -5.3      0.000      0.000
REMARK  1 active torsions:
REMARK  status: ('A' for Active; 'I' for Inactive)
REMARK    1  A    between atoms: C_2  and  S_1 
ROOT
ATOM      1  C   UNL d   1      55.842  -0.018  33.329  0.00  0.00     0.107 A 
ATOM      2  C   UNL d   1      56.226   0.458  32.776  0.00  0.00     0.014 A 
ATOM      3  C   UNL d   1      55.833  -0.829  33.244  0.00  0.00     0.014 A 
ATOM      4  C   UNL d   1      56.591  -0.716  32.051  0.00  0.00     0.058 A 
ATOM      5  C   UNL d   1      56.213  -1.183  32.596  0.00  0.00     0.012 A 
ATOM      6  C   UNL d   1      56.605   0.114  32.129  0.00  0.00     0.012 A 
ATOM      7 CL   UNL d   1      56.963  -1.083  31.413  0.00  0.00    -0.082 Cl
ENDROOT
BRANCH   1   8
ATOM      8  S   UNL d   1      55.465   0.334  33.972  0.00  0.00     0.302 S 
ATOM      9  O   UNL d   1      54.741   0.061  33.687  0.00  0.00    -0.197 OA
ATOM     10  O   UNL d   1      56.178   0.604  34.254  0.00  0.00    -0.197 OA
ATOM     11  N   UNL d   1      55.082   0.682  34.610  0.00  0.00    -0.043 N 
ENDBRANCH   1   8
TORSDOF 1
ENDMDL
MODEL 2
REMARK VINA RESULT:      -5.0      2.438      2.769
REMARK  1 active torsions:
REMARK  status: ('A' for Active; 'I' for Inactive)
REMARK    1  A    between atoms: C_2  and  S_1 
ROOT
ATOM      1  C   UNL d   1      56.603  -0.431  32.060  0.00  0.00     0.107 A 
ATOM      2  C   UNL d   1      56.295  -1.070  32.481  0.00  0.00     0.014 A 
ATOM      3  C   UNL d   1      56.378   0.332  32.241  0.00  0.00     0.014 A 
ATOM      4  C   UNL d   1      55.532  -0.156  33.268  0.00  0.00     0.058 A 
ATOM      5  C   UNL d   1      55.836   0.471  32.853  0.00  0.00     0.012 A 
ATOM      6  C   UNL d   1      55.755  -0.940  33.091  0.00  0.00     0.012 A 
ATOM      7 CL   UNL d   1      54.994   0.000  33.873  0.00  0.00    -0.082 Cl
ENDROOT
BRANCH   1   8
ATOM      8  S   UNL d   1      57.142  -0.571  31.452  0.00  0.00     0.302 S 
ATOM      9  O   UNL d   1      57.423   0.201  31.535  0.00  0.00    -0.197 OA
ATOM     10  O   UNL d   1      56.867  -1.331  31.370  0.00  0.00    -0.197 OA
ATOM     11  N   UNL d   1      57.682  -0.702  30.847  0.00  0.00    -0.043 N 
ENDBRANCH   1   8
TORSDOF 1
ENDMDL
MODEL 3
REMARK VINA RESULT:      -4.2      1.552      1.903
REMARK  1 active torsions:
REMARK  status: ('A' for Active; 'I' for Inactive)
REMARK    1  A    between atoms: C_2  and  S_1 
ROOT
ATOM      1  C   UNL d   1      56.531  -0.550  32.374  0.00  0.00     0.107 A 
ATOM      2  C   UNL d   1      56.766  -0.857  31.646  0.00  0.00     0.014 A 
ATOM      3  C   UNL d   1      56.846   0.150  32.651  0.00  0.00     0.014 A 
ATOM      4  C   UNL d   1      57.642   0.258  31.484  0.00  0.00     0.058 A 
ATOM      5  C   UNL d   1      57.409   0.559  32.200  0.00  0.00     0.012 A 
ATOM      6  C   UNL d   1      57.326  -0.455  31.191  0.00  0.00     0.012 A 
ATOM      7 CL   UNL d   1      58.204   0.678  31.048  0.00  0.00    -0.082 Cl
ENDROOT
BRANCH   1   8
ATOM      8  S   UNL d   1      55.970  -0.957  32.821  0.00  0.00     0.302 S 
ATOM      9  O   UNL d   1      56.421  -1.644  32.745  0.00  0.00    -0.197 OA
ATOM     10  O   UNL d   1      55.526  -0.281  32.898  0.00  0.00    -0.197 OA
ATOM     11  N   UNL d   1      55.417  -1.370  33.266  0.00  0.00    -0.043 N 
ENDBRANCH   1   8
TORSDOF 1
ENDMDL
MODEL 4
REMARK VINA RESULT:      -3.8      8.456      8.870
REMARK  1 active torsions:
REMARK  status: ('A' for Active; 'I' for Inactive)
REMARK    1  A    between atoms: C_2  and  S_1 
ROOT
ATOM      1  C   UNL d   1      60.094  -6.945  36.132  0.00  0.00     0.107 A 
ATOM      2  C   UNL d   1      59.283  -7.041  36.244  0.00  0.00     0.014 A 
ATOM      3  C   UNL d   1      60.588  -7.592  36.086  0.00  0.00     0.014 A 
ATOM      4  C   UNL d   1      59.477  -8.455  36.264  0.00  0.00     0.058 A 
ATOM      5  C   UNL d   1      60.275  -8.358  36.153  0.00  0.00     0.012 A 
ATOM      6  C   UNL d   1      58.964  -7.800  36.312  0.00  0.00     0.012 A 
ATOM      7 CL   UNL d   1      59.183  -9.223  36.328  0.00  0.00    -0.082 Cl
ENDROOT
BRANCH   1   8
ATOM      8  S   UNL d   1      60.404  -6.183  36.066  0.00  0.00     0.302 S 
ATOM      9  O   UNL d   1      61.133  -6.466  36.330  0.00  0.00    -0.197 OA
ATOM     10  O   UNL d   1      59.687  -5.903  35.805  0.00  0.00    -0.197 OA
ATOM     11  N   UNL d   1      60.720  -5.428  36.002  0.00  0.00    -0.043 N 
ENDBRANCH   1   8
TORSDOF 1
ENDMDL
MODEL 5
REMARK VINA RESULT:      -3.1      9.201      9.546
REMARK  1 active torsions:
REMARK  status: ('A' for Active; 'I' for Inactive)
REMARK    1  A    between atoms: C_2  and  S_1 
ROOT
ATOM      1  C   UNL d   1      59.963  -8.317  35.212  0.00  0.00     0.107 A 
ATOM      2  C   UNL d   1      59.493  -8.709  34.660  0.00  0.00     0.014 A 
ATOM      3  C   UNL d   1      60.774  -8.406  35.206  0.00  0.00     0.014 A 
ATOM      4  C   UNL d   1      60.673  -9.282  34.097  0.00  0.00     0.058 A 
ATOM      5  C   UNL d   1      61.133  -8.895  34.640  0.00  0.00     0.012 A 
ATOM      6  C   UNL d   1      59.843  -9.197  34.095  0.00  0.00     0.012 A 
ATOM      7 CL   UNL d   1      61.046  -9.764  33.541  0.00  0.00    -0.082 Cl
ENDROOT
BRANCH   1   8
ATOM      8  S   UNL d   1      59.605  -7.830  35.774  0.00  0.00     0.302 S 
ATOM      9  O   UNL d   1      59.887  -7.169  35.370  0.00  0.00    -0.197 OA
ATOM     10  O   UNL d   1      59.327  -8.481  36.174  0.00  0.00    -0.197 OA
ATOM     11  N   UNL d   1      59.252  -7.340  36.330  0.00  0.00    -0.043 N 
ENDBRANCH   1   8
TORSDOF 1
ENDMDL
MODEL 6
REMARK VINA RESULT:      -2.9      9.562      9.860
REMARK  1 active torsions:
REMARK  status: ('A' for Active; 'I' for Inactive)
REMARK    1  A    between atoms: C_2  and  S_1 
ROOT
ATOM      1  C   UNL d   1      60.407  -8.644  34.896  0.00  0.00     0.107 A 
ATOM      2  C   UNL d   1      61.028  -8.823  34.383  0.00  0.00     0.014 A 
ATOM      3  C   UNL d   1      59.638  -8.834  34.701  0.00  0.00     0.014 A 
ATOM      4  C   UNL d   1      60.083  -9.387  33.474  0.00  0.00     0.058 A 
ATOM      5  C   UNL d   1      59.474  -9.210  33.980  0.00  0.00     0.012 A 
ATOM      6  C   UNL d   1      60.872  -9.197  33.664  0.00  0.00     0.012 A 
ATOM      7 CL   UNL d   1      59.902  -9.761  32.761  0.00  0.00    -0.082 Cl
ENDROOT
BRANCH   1   8
ATOM      8  S   UNL d   1      60.571  -8.270  35.613  0.00  0.00     0.302 S 
ATOM      9  O   UNL d   1      60.648  -9.009  35.972  0.00  0.00    -0.197 OA
ATOM     10  O   UNL d   1      60.496  -7.541  35.260  0.00  0.00    -0.197 OA
ATOM     11  N   UNL d   1      60.735  -7.905  36.330  0.00  0.00    -0.043 N 
ENDBRANCH   1   8
TORSDOF 1
ENDMDL
MODEL 7
REMARK VINA RESULT:      -2.8      3.887      4.235
REMARK  1 active torsions:
REMARK  status: ('A' for Active; 'I' for Inactive)
REMARK    1  A    between atoms: C_2  and  S_1 
ROOT
ATOM      1  C   UNL d   1      58.155  -0.062  30.090  0.00  0.00     0.107 A 
ATOM      2  C   UNL d   1      57.884  -0.769  30.418  0.00  0.00     0.014 A 
ATOM      3  C   UNL d   1      57.917   0.656  30.395  0.00  0.00     0.014 A 
ATOM      4  C   UNL d   1      57.131  -0.013  31.366  0.00  0.00     0.058 A 
ATOM      5  C   UNL d   1      57.398   0.681  31.042  0.00  0.00     0.012 A 
ATOM      6  C   UNL d   1      57.368  -0.752  31.062  0.00  0.00     0.012 A 
ATOM      7 CL   UNL d   1      56.616   0.030  32.009  0.00  0.00    -0.082 Cl
ENDROOT
BRANCH   1   8
ATOM      8  S   UNL d   1      58.671  -0.088  29.447  0.00  0.00     0.302 S 
ATOM      9  O   UNL d   1      58.023  -0.150  28.940  0.00  0.00    -0.197 OA
ATOM     10  O   UNL d   1      59.310  -0.027  29.945  0.00  0.00    -0.197 OA
ATOM     11  N   UNL d   1      59.178  -0.114  28.801  0.00  0.00    -0.043 N 
ENDBRANCH   1   8
TORSDOF 1
ENDMDL
MODEL 8
REMARK VINA RESULT:      -2.3      2.957      3.435
REMARK  1 active torsions:
REMARK  status: ('A' for Active; 'I' for Inactive)
REMARK    1  A    between atoms: C_2  and  S_1 
ROOT
ATOM      1  C   UNL d   1      57.744  -0.193  30.792  0.00  0.00     0.107 A 
ATOM      2  C   UNL d   1      57.994  -0.844  30.352  0.00  0.00     0.014 A 
ATOM      3  C   UNL d   1      57.966   0.562  30.579  0.00  0.00     0.014 A 
ATOM      4  C   UNL d   1      58.696   0.043  29.480  0.00  0.00     0.058 A 
ATOM      5  C   UNL d   1      58.449   0.681  29.914  0.00  0.00     0.012 A 
ATOM      6  C   UNL d   1      58.474  -0.734  29.690  0.00  0.00     0.012 A 
ATOM      7 CL   UNL d   1      59.175   0.179  28.823  0.00  0.00    -0.082 Cl
ENDROOT
BRANCH   1   8
ATOM      8  S   UNL d   1      57.265  -0.312  31.452  0.00  0.00     0.302 S 
ATOM      9  O   UNL d   1      57.483   0.432  31.735  0.00  0.00    -0.197 OA
ATOM     10  O   UNL d   1      57.050  -1.046  31.175  0.00  0.00    -0.197 OA
ATOM     11  N   UNL d   1      56.790  -0.424  32.113  0.00  0.00    -0.043 N 
ENDBRANCH   1   8
TORSDOF 1
ENDMDL
