MODEL 1
REMARK VINA RESULT:      -2.7      0.000      0.000
REMARK  6 active torsions:
REMARK  status: ('A' for Active; 'I' for Inactive)
REMARK       I    between atoms: N_2  and  C_1 
REMARK    1  A    between atoms: C_5  and  C_1 
REMARK    2  A    between atoms: C_3  and  N_2 
REMARK    3  A    between atoms: O_14  and  C_10 
REMARK    4  A    between atoms: C_18  and  O_14 
REMARK    5  A    between atoms: C_19  and  C_18 
REMARK    6  A    between atoms: C_20  and  C_19 
ROOT
ATOM      1  C   UNL d   1      32.555  16.790 -24.407  0.00  0.00     0.058 A 
ATOM      2  C   UNL d   1      32.702  16.839 -23.597  0.00  0.00     0.007 A 
ATOM      3  C   UNL d   1      32.463  17.467 -24.843  0.00  0.00     0.007 A 
ATOM      4  C   UNL d   1      32.663  18.266 -23.660  0.00  0.00     0.100 A 
ATOM      5  C   UNL d   1      32.754  17.576 -23.236  0.00  0.00     0.025 A 
ATOM      6  C   UNL d   1      32.512  18.198 -24.494  0.00  0.00     0.025 A 
ENDROOT
BRANCH   1   7
ATOM      7  C   UNL d   1      32.506  16.033 -24.754  0.00  0.00     0.281 C 
ATOM      8  N   UNL d   1      31.780  15.668 -24.886  0.00  0.00    -0.189 NA
ATOM      9  O   UNL d   1      33.198  15.646 -24.968  0.00  0.00    -0.265 OA
BRANCH   8  10
ATOM     10  C   UNL d   1      31.071  16.065 -24.667  0.00  0.00     0.166 A 
ATOM     11  N   UNL d   1      30.687  15.799 -23.979  0.00  0.00    -0.227 NA
ATOM     12  C   UNL d   1      30.006  16.160 -23.746  0.00  0.00     0.083 A 
ATOM     13  C   UNL d   1      29.553  15.935 -23.040  0.00  0.00     0.021 C 
ATOM     14  C   UNL d   1      29.704  16.797 -24.207  0.00  0.00     0.019 A 
ATOM     15  C   UNL d   1      30.105  17.045 -24.890  0.00  0.00     0.005 A 
ATOM     16  C   UNL d   1      30.782  16.664 -25.095  0.00  0.00     0.039 A 
ENDBRANCH   8  10
ENDBRANCH   1   7
BRANCH   4  17
ATOM     17  O   UNL d   1      32.715  19.011 -23.299  0.00  0.00    -0.305 OA
BRANCH  17  18
ATOM     18  C   UNL d   1      32.896  19.089 -22.500  0.00  0.00     0.123 C 
BRANCH  18  19
ATOM     19  C   UNL d   1      32.980  19.841 -22.177  0.00  0.00     0.027 C 
BRANCH  19  20
ATOM     20  C   UNL d   1      33.086  19.903 -21.347  0.00  0.00     0.002 C 
ATOM     21  C   UNL d   1      33.114  20.646 -20.986  0.00  0.00     0.000 C 
ENDBRANCH  19  20
ENDBRANCH  18  19
ENDBRANCH  17  18
ENDBRANCH   4  17
TORSDOF 6
ENDMDL
MODEL 2
REMARK VINA RESULT:      -1.6      1.501      3.720
REMARK  6 active torsions:
REMARK  status: ('A' for Active; 'I' for Inactive)
REMARK       I    between atoms: N_2  and  C_1 
REMARK    1  A    between atoms: C_5  and  C_1 
REMARK    2  A    between atoms: C_3  and  N_2 
REMARK    3  A    between atoms: O_14  and  C_10 
REMARK    4  A    between atoms: C_18  and  O_14 
REMARK    5  A    between atoms: C_19  and  C_18 
REMARK    6  A    between atoms: C_20  and  C_19 
ROOT
ATOM      1  C   UNL d   1      32.172  15.969 -24.303  0.00  0.00     0.058 A 
ATOM      2  C   UNL d   1      31.456  16.109 -24.688  0.00  0.00     0.007 A 
ATOM      3  C   UNL d   1      32.175  15.720 -23.532  0.00  0.00     0.007 A 
ATOM      4  C   UNL d   1      30.734  15.744 -23.511  0.00  0.00     0.100 A 
ATOM      5  C   UNL d   1      30.748  15.994 -24.286  0.00  0.00     0.025 A 
ATOM      6  C   UNL d   1      31.480  15.605 -23.129  0.00  0.00     0.025 A 
ENDROOT
BRANCH   1   7
ATOM      7  C   UNL d   1      32.880  16.092 -24.728  0.00  0.00     0.281 C 
ATOM      8  N   UNL d   1      33.222  16.838 -24.785  0.00  0.00    -0.189 NA
ATOM      9  O   UNL d   1      33.240  15.453 -25.097  0.00  0.00    -0.265 OA
BRANCH   8  10
ATOM     10  C   UNL d   1      32.852  17.494 -24.406  0.00  0.00     0.166 A 
ATOM     11  N   UNL d   1      33.168  17.734 -23.676  0.00  0.00    -0.227 NA
ATOM     12  C   UNL d   1      32.835  18.358 -23.292  0.00  0.00     0.083 A 
ATOM     13  C   UNL d   1      33.111  18.664 -22.527  0.00  0.00     0.021 C 
ATOM     14  C   UNL d   1      32.176  18.748 -23.643  0.00  0.00     0.019 A 
ATOM     15  C   UNL d   1      31.878  18.490 -24.373  0.00  0.00     0.005 A 
ATOM     16  C   UNL d   1      32.233  17.864 -24.731  0.00  0.00     0.039 A 
ENDBRANCH   8  10
ENDBRANCH   1   7
BRANCH   4  17
ATOM     17  O   UNL d   1      30.021  15.627 -23.103  0.00  0.00    -0.305 OA
BRANCH  17  18
ATOM     18  C   UNL d   1      29.313  15.944 -23.377  0.00  0.00     0.123 C 
BRANCH  18  19
ATOM     19  C   UNL d   1      28.630  15.854 -22.928  0.00  0.00     0.027 C 
BRANCH  19  20
ATOM     20  C   UNL d   1      27.951  16.295 -23.150  0.00  0.00     0.002 C 
ATOM     21  C   UNL d   1      27.332  15.929 -23.558  0.00  0.00     0.000 C 
ENDBRANCH  19  20
ENDBRANCH  18  19
ENDBRANCH  17  18
ENDBRANCH   4  17
TORSDOF 6
ENDMDL
MODEL 3
REMARK VINA RESULT:      -0.3      1.428      1.931
REMARK  6 active torsions:
REMARK  status: ('A' for Active; 'I' for Inactive)
REMARK       I    between atoms: N_2  and  C_1 
REMARK    1  A    between atoms: C_5  and  C_1 
REMARK    2  A    between atoms: C_3  and  N_2 
REMARK    3  A    between atoms: O_14  and  C_10 
REMARK    4  A    between atoms: C_18  and  O_14 
REMARK    5  A    between atoms: C_19  and  C_18 
REMARK    6  A    between atoms: C_20  and  C_19 
ROOT
ATOM      1  C   UNL d   1      32.333  16.896 -23.530  0.00  0.00     0.058 A 
ATOM      2  C   UNL d   1      32.601  16.841 -24.308  0.00  0.00     0.007 A 
ATOM      3  C   UNL d   1      32.363  17.606 -23.142  0.00  0.00     0.007 A 
ATOM      4  C   UNL d   1      32.937  18.229 -24.308  0.00  0.00     0.100 A 
ATOM      5  C   UNL d   1      32.899  17.509 -24.685  0.00  0.00     0.025 A 
ATOM      6  C   UNL d   1      32.656  18.269 -23.506  0.00  0.00     0.025 A 
ENDROOT
BRANCH   1   7
ATOM      7  C   UNL d   1      32.034  16.207 -23.166  0.00  0.00     0.281 C 
ATOM      8  N   UNL d   1      31.263  15.951 -23.301  0.00  0.00    -0.189 NA
ATOM      9  O   UNL d   1      32.521  15.778 -22.664  0.00  0.00    -0.265 OA
BRANCH   8  10
ATOM     10  C   UNL d   1      30.764  16.392 -23.816  0.00  0.00     0.166 A 
ATOM     11  N   UNL d   1      30.174  16.858 -23.462  0.00  0.00    -0.227 NA
ATOM     12  C   UNL d   1      29.682  17.289 -23.930  0.00  0.00     0.083 A 
ATOM     13  C   UNL d   1      29.044  17.797 -23.629  0.00  0.00     0.021 C 
ATOM     14  C   UNL d   1      29.780  17.255 -24.765  0.00  0.00     0.019 A 
ATOM     15  C   UNL d   1      30.377  16.783 -25.097  0.00  0.00     0.005 A 
ATOM     16  C   UNL d   1      30.852  16.364 -24.602  0.00  0.00     0.039 A 
ENDBRANCH   8  10
ENDBRANCH   1   7
BRANCH   4  17
ATOM     17  O   UNL d   1      33.237  18.905 -24.684  0.00  0.00    -0.305 OA
BRANCH  17  18
ATOM     18  C   UNL d   1      32.757  19.555 -24.845  0.00  0.00     0.123 C 
BRANCH  18  19
ATOM     19  C   UNL d   1      33.102  20.260 -25.090  0.00  0.00     0.027 C 
BRANCH  19  20
ATOM     20  C   UNL d   1      32.628  20.952 -25.088  0.00  0.00     0.002 C 
ATOM     21  C   UNL d   1      32.983  21.699 -25.084  0.00  0.00     0.000 C 
ENDBRANCH  19  20
ENDBRANCH  18  19
ENDBRANCH  17  18
ENDBRANCH   4  17
TORSDOF 6
ENDMDL
