MODEL 1
REMARK VINA RESULT:      -0.5      0.000      0.000
REMARK  5 active torsions:
REMARK  status: ('A' for Active; 'I' for Inactive)
REMARK    1  A    between atoms: C_11  and  C_3 
REMARK    2  A    between atoms: C_12  and  N_5 
REMARK    3  A    between atoms: C_10  and  C_14 
REMARK    4  A    between atoms: O_24  and  C_11 
REMARK    5  A    between atoms: C_25  and  O_24 
ROOT
ATOM      1  C   UNL d   1      31.975  16.765 -24.607  0.00  0.00     0.086 A 
ATOM      2  C   UNL d   1      32.303  17.514 -24.528  0.00  0.00     0.038 A 
ATOM      3  C   UNL d   1      31.850  18.135 -24.228  0.00  0.00     0.165 A 
ATOM      4  C   UNL d   1      31.189  16.632 -24.384  0.00  0.00     0.282 A 
ATOM      5  N   UNL d   1      30.736  17.249 -24.084  0.00  0.00    -0.194 N 
ATOM      6  N   UNL d   1      31.064  18.001 -24.005  0.00  0.00    -0.157 NA
ATOM      7  C   UNL d   1      32.557  16.268 -24.919  0.00  0.00     0.137 A 
ATOM      8  C   UNL d   1      33.084  17.476 -24.792  0.00  0.00     0.039 A 
ATOM      9  S   UNL d   1      33.238  16.712 -25.031  0.00  0.00    -0.066 SA
ATOM     10  O   UNL d   1      30.854  15.874 -24.462  0.00  0.00    -0.265 OA
ATOM     11  N   UNL d   1      32.486  15.458 -25.096  0.00  0.00    -0.141 N 
ENDROOT
BRANCH   5  12
ATOM     12  C   UNL d   1      29.955  17.116 -23.862  0.00  0.00     0.086 A 
ATOM     13  C   UNL d   1      29.355  17.593 -24.161  0.00  0.00     0.019 A 
ATOM     14  C   UNL d   1      28.566  17.459 -23.937  0.00  0.00     0.005 A 
ATOM     15  C   UNL d   1      28.383  16.850 -23.416  0.00  0.00     0.072 A 
ATOM     16  C   UNL d   1      28.984  16.371 -23.115  0.00  0.00     0.005 A 
ATOM     17  C   UNL d   1      29.773  16.504 -23.339  0.00  0.00     0.019 A 
BRANCH  15  18
ATOM     18  C   UNL d   1      27.602  16.717 -23.195  0.00  0.00     0.419 C 
ATOM     19  F   UNL d   1      26.888  16.593 -22.994  0.00  0.00    -0.166 F 
ATOM     20  F   UNL d   1      27.128  16.010 -23.284  0.00  0.00    -0.166 F 
ATOM     21  F   UNL d   1      27.051  17.248 -22.816  0.00  0.00    -0.166 F 
ENDBRANCH  15  18
ENDBRANCH   5  12
BRANCH   3  22
ATOM     22  C   UNL d   1      32.185  18.892 -24.150  0.00  0.00     0.320 C 
ATOM     23  O   UNL d   1      32.255  19.377 -24.809  0.00  0.00    -0.257 OA
BRANCH  22  24
ATOM     24  O   UNL d   1      32.448  19.158 -23.411  0.00  0.00    -0.270 OA
BRANCH  24  25
ATOM     25  C   UNL d   1      32.675  19.941 -23.312  0.00  0.00     0.126 C 
ATOM     26  C   UNL d   1      32.521  20.332 -22.594  0.00  0.00     0.029 C 
ENDBRANCH  24  25
ENDBRANCH  22  24
ENDBRANCH   3  22
TORSDOF 5
ENDMDL
MODEL 2
REMARK VINA RESULT:       1.7      5.562      6.908
REMARK  5 active torsions:
REMARK  status: ('A' for Active; 'I' for Inactive)
REMARK    1  A    between atoms: C_11  and  C_3 
REMARK    2  A    between atoms: C_12  and  N_5 
REMARK    3  A    between atoms: C_10  and  C_14 
REMARK    4  A    between atoms: O_24  and  C_11 
REMARK    5  A    between atoms: C_25  and  O_24 
ROOT
ATOM      1  C   UNL d   1      32.601  21.126 -21.641  0.00  0.00     0.086 A 
ATOM      2  C   UNL d   1      32.510  21.674 -22.246  0.00  0.00     0.038 A 
ATOM      3  C   UNL d   1      32.426  22.475 -22.069  0.00  0.00     0.165 A 
ATOM      4  C   UNL d   1      32.608  21.377 -20.852  0.00  0.00     0.282 A 
ATOM      5  N   UNL d   1      32.524  22.174 -20.674  0.00  0.00    -0.194 N 
ATOM      6  N   UNL d   1      32.433  22.726 -21.280  0.00  0.00    -0.157 NA
ATOM      7  C   UNL d   1      32.671  20.379 -21.988  0.00  0.00     0.137 A 
ATOM      8  C   UNL d   1      32.525  21.264 -22.962  0.00  0.00     0.039 A 
ATOM      9  S   UNL d   1      32.624  20.471 -22.802  0.00  0.00    -0.066 SA
ATOM     10  O   UNL d   1      32.700  20.824 -20.237  0.00  0.00    -0.265 OA
ATOM     11  N   UNL d   1      32.773  19.650 -21.600  0.00  0.00    -0.141 N 
ENDROOT
BRANCH   5  12
ATOM     12  C   UNL d   1      32.531  22.424 -19.889  0.00  0.00     0.086 A 
ATOM     13  C   UNL d   1      31.840  22.406 -19.445  0.00  0.00     0.019 A 
ATOM     14  C   UNL d   1      31.847  22.658 -18.653  0.00  0.00     0.005 A 
ATOM     15  C   UNL d   1      32.545  22.926 -18.312  0.00  0.00     0.072 A 
ATOM     16  C   UNL d   1      33.240  22.944 -18.757  0.00  0.00     0.005 A 
ATOM     17  C   UNL d   1      33.233  22.692 -19.549  0.00  0.00     0.019 A 
BRANCH  15  18
ATOM     18  C   UNL d   1      32.552  23.175 -17.528  0.00  0.00     0.419 C 
ATOM     19  F   UNL d   1      32.555  23.406 -16.812  0.00  0.00    -0.166 F 
ATOM     20  F   UNL d   1      31.997  23.682 -17.118  0.00  0.00    -0.166 F 
ATOM     21  F   UNL d   1      33.114  22.998 -16.910  0.00  0.00    -0.166 F 
ENDBRANCH  15  18
ENDBRANCH   5  12
BRANCH   3  22
ATOM     22  C   UNL d   1      32.335  23.028 -22.684  0.00  0.00     0.320 C 
ATOM     23  O   UNL d   1      31.724  23.577 -22.651  0.00  0.00    -0.257 OA
BRANCH  22  24
ATOM     24  O   UNL d   1      32.856  23.027 -23.327  0.00  0.00    -0.270 OA
BRANCH  24  25
ATOM     25  C   UNL d   1      32.857  23.654 -23.857  0.00  0.00     0.126 C 
ATOM     26  C   UNL d   1      33.241  23.579 -24.591  0.00  0.00     0.029 C 
ENDBRANCH  24  25
ENDBRANCH  22  24
ENDBRANCH   3  22
TORSDOF 5
ENDMDL
MODEL 3
REMARK VINA RESULT:       2.2      3.941      5.457
REMARK  5 active torsions:
REMARK  status: ('A' for Active; 'I' for Inactive)
REMARK    1  A    between atoms: C_11  and  C_3 
REMARK    2  A    between atoms: C_12  and  N_5 
REMARK    3  A    between atoms: C_10  and  C_14 
REMARK    4  A    between atoms: O_24  and  C_11 
REMARK    5  A    between atoms: C_25  and  O_24 
ROOT
ATOM      1  C   UNL d   1      32.975  19.964 -23.898  0.00  0.00     0.086 A 
ATOM      2  C   UNL d   1      32.935  19.151 -23.787  0.00  0.00     0.038 A 
ATOM      3  C   UNL d   1      32.932  18.838 -23.024  0.00  0.00     0.165 A 
ATOM      4  C   UNL d   1      33.013  20.470 -23.244  0.00  0.00     0.282 A 
ATOM      5  N   UNL d   1      33.011  20.160 -22.483  0.00  0.00    -0.194 N 
ATOM      6  N   UNL d   1      32.970  19.344 -22.370  0.00  0.00    -0.157 NA
ATOM      7  C   UNL d   1      32.967  20.106 -24.712  0.00  0.00     0.137 A 
ATOM      8  C   UNL d   1      32.903  18.796 -24.532  0.00  0.00     0.039 A 
ATOM      9  S   UNL d   1      32.923  19.382 -25.097  0.00  0.00    -0.066 SA
ATOM     10  O   UNL d   1      33.054  21.294 -23.353  0.00  0.00    -0.265 OA
ATOM     11  N   UNL d   1      32.999  20.844 -25.096  0.00  0.00    -0.141 N 
ENDROOT
BRANCH   5  12
ATOM     12  C   UNL d   1      33.049  20.663 -21.833  0.00  0.00     0.086 A 
ATOM     13  C   UNL d   1      32.969  20.361 -21.073  0.00  0.00     0.019 A 
ATOM     14  C   UNL d   1      33.007  20.869 -20.417  0.00  0.00     0.005 A 
ATOM     15  C   UNL d   1      33.125  21.675 -20.526  0.00  0.00     0.072 A 
ATOM     16  C   UNL d   1      33.205  21.980 -21.288  0.00  0.00     0.005 A 
ATOM     17  C   UNL d   1      33.167  21.472 -21.945  0.00  0.00     0.019 A 
BRANCH  15  18
ATOM     18  C   UNL d   1      33.163  22.178 -19.876  0.00  0.00     0.419 C 
ATOM     19  F   UNL d   1      33.197  22.641 -19.284  0.00  0.00    -0.166 F 
ATOM     20  F   UNL d   1      33.134  23.034 -19.853  0.00  0.00    -0.166 F 
ATOM     21  F   UNL d   1      33.241  21.986 -19.048  0.00  0.00    -0.166 F 
ENDBRANCH  15  18
ENDBRANCH   5  12
BRANCH   3  22
ATOM     22  C   UNL d   1      32.892  18.014 -22.914  0.00  0.00     0.320 C 
ATOM     23  O   UNL d   1      33.228  17.674 -22.246  0.00  0.00    -0.257 OA
BRANCH  22  24
ATOM     24  O   UNL d   1      32.513  17.537 -23.476  0.00  0.00    -0.270 OA
BRANCH  24  25
ATOM     25  C   UNL d   1      32.087  16.878 -23.234  0.00  0.00     0.126 C 
ATOM     26  C   UNL d   1      32.098  16.184 -23.693  0.00  0.00     0.029 C 
ENDBRANCH  24  25
ENDBRANCH  22  24
ENDBRANCH   3  22
TORSDOF 5
ENDMDL
