MODEL 1
REMARK VINA RESULT:      44.4      0.000      0.000
REMARK  3 active torsions:
REMARK  status: ('A' for Active; 'I' for Inactive)
REMARK    1  A    between atoms: C_8  and  N_2 
REMARK    2  A    between atoms: C_12  and  C_8 
REMARK    3  A    between atoms: N_11  and  C_12 
ROOT
ATOM      1  C   UNL d   1     -51.842  24.980  33.307  0.00  0.00     0.166 A 
ATOM      2  N   UNL d   1     -51.198  25.500  33.307  0.00  0.00    -0.288 N 
ATOM      3  C   UNL d   1     -51.555  24.206  33.308  0.00  0.00     0.117 A 
ATOM      4  N   UNL d   1     -52.652  25.129  33.306  0.00  0.00    -0.225 NA
ATOM      5  N   UNL d   1     -52.083  23.577  33.308  0.00  0.00    -0.241 NA
ATOM      6  C   UNL d   1     -50.730  24.246  33.308  0.00  0.00     0.037 A 
ATOM      7  C   UNL d   1     -50.523  25.034  33.308  0.00  0.00     0.067 A 
ATOM      8  C   UNL d   1     -53.182  24.506  33.306  0.00  0.00     0.101 A 
ATOM      9  C   UNL d   1     -52.897  23.731  33.307  0.00  0.00     0.099 A 
ATOM     10  C   UNL d   1     -50.158  23.628  33.309  0.00  0.00     0.003 A 
ATOM     11  C   UNL d   1     -49.712  25.240  33.308  0.00  0.00     0.018 A 
ATOM     12  C   UNL d   1     -53.995  24.659  33.306  0.00  0.00     0.021 A 
ATOM     13  C   UNL d   1     -53.429  23.192  33.307  0.00  0.00     0.021 A 
ATOM     14  C   UNL d   1     -49.372  23.835  33.309  0.00  0.00     0.000 A 
ATOM     15  C   UNL d   1     -49.222  24.623  33.309  0.00  0.00     0.002 A 
ATOM     16  C   UNL d   1     -54.237  23.259  33.307  0.00  0.00     0.002 A 
ATOM     17  C   UNL d   1     -54.519  24.038  33.306  0.00  0.00     0.002 A 
ENDROOT
BRANCH   2  18
ATOM     18  C   UNL d   1     -50.846  26.246  33.306  0.00  0.00     0.101 C 
BRANCH  18  19
ATOM     19  C   UNL d   1     -51.467  26.769  33.306  0.00  0.00     0.100 C 
BRANCH  19  20
ATOM     20  N   UNL d   1     -51.117  27.513  33.376  0.00  0.00    -0.298 N 
ATOM     21  C   UNL d   1     -51.585  28.178  33.513  0.00  0.00     0.107 A 
ATOM     22  C   UNL d   1     -51.233  28.922  33.583  0.00  0.00     0.142 A 
ATOM     23  O   UNL d   1     -50.411  29.003  33.515  0.00  0.00    -0.300 OA
ATOM     24  C   UNL d   1     -49.944  28.337  33.378  0.00  0.00     0.142 A 
ATOM     25  C   UNL d   1     -50.298  27.591  33.308  0.00  0.00     0.107 A 
ENDBRANCH  19  20
ENDBRANCH  18  19
ENDBRANCH   2  18
TORSDOF 3
ENDMDL
