MODEL 1
REMARK VINA RESULT:      77.2      0.000      0.000
REMARK  6 active torsions:
REMARK  status: ('A' for Active; 'I' for Inactive)
REMARK    1  A    between atoms: N_2  and  S_1 
REMARK    2  A    between atoms: C_5  and  S_1 
REMARK    3  A    between atoms: C_4  and  C_3 
REMARK       I    between atoms: N_6  and  C_4 
REMARK    4  A    between atoms: C_15  and  N_6 
REMARK    5  A    between atoms: C_9  and  C_10 
REMARK    6  A    between atoms: O_20  and  C_9 
ROOT
ATOM      1  N   UNL d   1      61.103  48.656  51.682  0.00  0.00    -0.226 N 
ATOM      2  C   UNL d   1      60.468  49.187  51.689  0.00  0.00     0.133 A 
ATOM      3  C   UNL d   1      61.607  48.846  52.303  0.00  0.00     0.092 A 
ATOM      4  C   UNL d   1      60.588  49.707  52.322  0.00  0.00     0.025 A 
ATOM      5  C   UNL d   1      61.290  49.493  52.696  0.00  0.00     0.021 A 
ENDROOT
BRANCH   2   6
ATOM      6  C   UNL d   1      59.834  49.194  51.161  0.00  0.00     0.296 C 
ATOM      7  N   UNL d   1      59.091  48.967  51.432  0.00  0.00    -0.207 NA
ATOM      8  O   UNL d   1      59.948  49.424  50.381  0.00  0.00    -0.264 OA
BRANCH   7   9
ATOM      9  C   UNL d   1      58.453  48.974  50.902  0.00  0.00     0.085 A 
ATOM     10  C   UNL d   1      58.181  49.690  50.583  0.00  0.00     0.019 A 
ATOM     11  C   UNL d   1      57.549  49.695  50.059  0.00  0.00     0.007 A 
ATOM     12  C   UNL d   1      57.179  48.985  49.847  0.00  0.00     0.063 A 
ATOM     13  C   UNL d   1      57.450  48.268  50.166  0.00  0.00     0.007 A 
ATOM     14  C   UNL d   1      58.089  48.265  50.695  0.00  0.00     0.019 A 
BRANCH  12  15
ATOM     15  C   UNL d   1      56.548  48.986  49.324  0.00  0.00     0.296 C 
ATOM     16  O   UNL d   1      56.413  49.639  48.831  0.00  0.00    -0.259 OA
BRANCH  15  17
ATOM     17  O   UNL d   1      56.037  48.333  49.284  0.00  0.00    -0.296 OA
ATOM     18  C   UNL d   1      56.238  47.673  48.832  0.00  0.00     0.185 C 
ENDBRANCH  15  17
ENDBRANCH  12  15
ENDBRANCH   7   9
ENDBRANCH   2   6
BRANCH   1  19
ATOM     19  S   UNL d   1      61.156  48.057  51.114  0.00  0.00     0.271 S 
ATOM     20  O   UNL d   1      61.254  47.544  51.748  0.00  0.00    -0.200 OA
ATOM     21  O   UNL d   1      61.056  48.583  50.482  0.00  0.00    -0.200 OA
BRANCH  19  22
ATOM     22  C   UNL d   1      61.215  47.427  50.591  0.00  0.00     0.104 A 
ATOM     23  C   UNL d   1      61.306  47.569  49.783  0.00  0.00     0.013 A 
ATOM     24  C   UNL d   1      61.365  46.933  49.260  0.00  0.00     0.001 A 
ATOM     25  C   UNL d   1      61.333  46.159  49.543  0.00  0.00     0.000 A 
ATOM     26  C   UNL d   1      61.242  46.020  50.353  0.00  0.00     0.001 A 
ATOM     27  C   UNL d   1      61.392  45.524  49.020  0.00  0.00     0.000 C 
ATOM     28  C   UNL d   1      61.182  46.650  50.882  0.00  0.00     0.013 A 
ENDBRANCH  19  22
ENDBRANCH   1  19
TORSDOF 6
ENDMDL
