MODEL 1
REMARK VINA RESULT:     -10.3      0.000      0.000
REMARK  2 active torsions:
REMARK  status: ('A' for Active; 'I' for Inactive)
REMARK    1  A    between atoms: C_6  and  N_1 
REMARK    2  A    between atoms: C_11  and  C_6 
ROOT
ATOM      1  N   UNL d   1      53.266  32.475  53.320  0.00  0.00    -0.251 N 
ATOM      2  C   UNL d   1      52.522  32.752  53.072  0.00  0.00     0.378 A 
ATOM      3  C   UNL d   1      53.546  33.000  53.897  0.00  0.00     0.092 A 
ATOM      4  O   UNL d   1      52.341  33.441  53.491  0.00  0.00    -0.258 OA
ATOM      5  C   UNL d   1      52.978  33.598  54.006  0.00  0.00     0.121 A 
ATOM      6  O   UNL d   1      52.049  32.391  52.502  0.00  0.00    -0.237 OA
ATOM      7  C   UNL d   1      54.243  33.010  54.336  0.00  0.00     0.020 A 
ATOM      8  C   UNL d   1      53.115  34.199  54.554  0.00  0.00     0.026 A 
ATOM      9  C   UNL d   1      54.372  33.616  54.882  0.00  0.00     0.002 A 
ATOM     10  C   UNL d   1      53.810  34.208  54.991  0.00  0.00     0.002 A 
ATOM     11  C   UNL d   1      55.078  33.621  55.324  0.00  0.00     0.000 C 
ENDROOT
BRANCH   1  12
ATOM     12  C   UNL d   1      53.686  31.811  53.068  0.00  0.00     0.085 C 
BRANCH  12  13
ATOM     13  C   UNL d   1      53.421  31.059  53.269  0.00  0.00     0.018 A 
ATOM     14  C   UNL d   1      53.691  30.700  53.956  0.00  0.00     0.002 A 
ATOM     15  C   UNL d   1      53.420  29.942  54.152  0.00  0.00     0.000 A 
ATOM     16  C   UNL d   1      52.883  29.555  53.658  0.00  0.00     0.000 A 
ATOM     17  C   UNL d   1      52.617  29.922  52.971  0.00  0.00     0.000 A 
ATOM     18  C   UNL d   1      52.885  30.676  52.773  0.00  0.00     0.002 A 
ENDBRANCH  12  13
ENDBRANCH   1  12
TORSDOF 2
ENDMDL
MODEL 2
REMARK VINA RESULT:     -10.0      0.822      3.273
REMARK  2 active torsions:
REMARK  status: ('A' for Active; 'I' for Inactive)
REMARK    1  A    between atoms: C_6  and  N_1 
REMARK    2  A    between atoms: C_11  and  C_6 
ROOT
ATOM      1  N   UNL d   1      53.587  31.731  53.288  0.00  0.00    -0.251 N 
ATOM      2  C   UNL d   1      53.009  32.108  52.824  0.00  0.00     0.378 A 
ATOM      3  C   UNL d   1      53.325  30.958  53.432  0.00  0.00     0.092 A 
ATOM      4  O   UNL d   1      52.394  31.575  52.681  0.00  0.00    -0.258 OA
ATOM      5  C   UNL d   1      52.588  30.857  53.059  0.00  0.00     0.121 A 
ATOM      6  O   UNL d   1      53.052  32.885  52.556  0.00  0.00    -0.237 OA
ATOM      7  C   UNL d   1      53.661  30.335  53.854  0.00  0.00     0.020 A 
ATOM      8  C   UNL d   1      52.196  30.133  53.113  0.00  0.00     0.026 A 
ATOM      9  C   UNL d   1      53.262  29.614  53.902  0.00  0.00     0.002 A 
ATOM     10  C   UNL d   1      52.533  29.513  53.533  0.00  0.00     0.002 A 
ATOM     11  C   UNL d   1      53.606  28.987  54.329  0.00  0.00     0.000 C 
ENDROOT
BRANCH   1  12
ATOM     12  C   UNL d   1      54.303  32.028  53.574  0.00  0.00     0.085 C 
BRANCH  12  13
ATOM     13  C   UNL d   1      54.300  32.624  54.140  0.00  0.00     0.018 A 
ATOM     14  C   UNL d   1      54.080  32.454  54.913  0.00  0.00     0.002 A 
ATOM     15  C   UNL d   1      54.080  33.058  55.478  0.00  0.00     0.000 A 
ATOM     16  C   UNL d   1      54.299  33.825  55.263  0.00  0.00     0.000 A 
ATOM     17  C   UNL d   1      54.519  33.988  54.487  0.00  0.00     0.000 A 
ATOM     18  C   UNL d   1      54.520  33.388  53.922  0.00  0.00     0.002 A 
ENDBRANCH  12  13
ENDBRANCH   1  12
TORSDOF 2
ENDMDL
MODEL 3
REMARK VINA RESULT:      -9.9      1.732      3.242
REMARK  2 active torsions:
REMARK  status: ('A' for Active; 'I' for Inactive)
REMARK    1  A    between atoms: C_6  and  N_1 
REMARK    2  A    between atoms: C_11  and  C_6 
ROOT
ATOM      1  N   UNL d   1      53.095  34.570  53.820  0.00  0.00    -0.251 N 
ATOM      2  C   UNL d   1      53.107  35.092  54.468  0.00  0.00     0.378 A 
ATOM      3  C   UNL d   1      53.472  33.871  54.058  0.00  0.00     0.092 A 
ATOM      4  O   UNL d   1      53.488  34.722  55.101  0.00  0.00    -0.258 OA
ATOM      5  C   UNL d   1      53.717  33.960  54.848  0.00  0.00     0.121 A 
ATOM      6  O   UNL d   1      52.789  35.851  54.469  0.00  0.00    -0.237 OA
ATOM      7  C   UNL d   1      53.625  33.167  53.657  0.00  0.00     0.020 A 
ATOM      8  C   UNL d   1      54.111  33.343  55.228  0.00  0.00     0.026 A 
ATOM      9  C   UNL d   1      54.020  32.555  54.046  0.00  0.00     0.002 A 
ATOM     10  C   UNL d   1      54.262  32.642  54.827  0.00  0.00     0.002 A 
ATOM     11  C   UNL d   1      54.171  31.846  53.636  0.00  0.00     0.000 C 
ENDROOT
BRANCH   1  12
ATOM     12  C   UNL d   1      52.780  34.681  53.065  0.00  0.00     0.085 C 
BRANCH  12  13
ATOM     13  C   UNL d   1      51.984  34.530  52.929  0.00  0.00     0.018 A 
ATOM     14  C   UNL d   1      51.421  34.778  53.473  0.00  0.00     0.002 A 
ATOM     15  C   UNL d   1      50.621  34.623  53.329  0.00  0.00     0.000 A 
ATOM     16  C   UNL d   1      50.394  34.223  52.644  0.00  0.00     0.000 A 
ATOM     17  C   UNL d   1      50.964  33.977  52.103  0.00  0.00     0.000 A 
ATOM     18  C   UNL d   1      51.761  34.130  52.243  0.00  0.00     0.002 A 
ENDBRANCH  12  13
ENDBRANCH   1  12
TORSDOF 2
ENDMDL
MODEL 4
REMARK VINA RESULT:      -9.9      1.107      1.945
REMARK  2 active torsions:
REMARK  status: ('A' for Active; 'I' for Inactive)
REMARK    1  A    between atoms: C_6  and  N_1 
REMARK    2  A    between atoms: C_11  and  C_6 
ROOT
ATOM      1  N   UNL d   1      53.388  32.777  53.627  0.00  0.00    -0.251 N 
ATOM      2  C   UNL d   1      53.649  32.939  54.400  0.00  0.00     0.378 A 
ATOM      3  C   UNL d   1      52.822  33.349  53.432  0.00  0.00     0.092 A 
ATOM      4  O   UNL d   1      53.250  33.605  54.682  0.00  0.00    -0.258 OA
ATOM      5  C   UNL d   1      52.732  33.863  54.079  0.00  0.00     0.121 A 
ATOM      6  O   UNL d   1      54.214  32.502  54.809  0.00  0.00    -0.237 OA
ATOM      7  C   UNL d   1      52.376  33.468  52.748  0.00  0.00     0.020 A 
ATOM      8  C   UNL d   1      52.199  34.490  54.036  0.00  0.00     0.026 A 
ATOM      9  C   UNL d   1      51.844  34.098  52.713  0.00  0.00     0.002 A 
ATOM     10  C   UNL d   1      51.756  34.607  53.354  0.00  0.00     0.002 A 
ATOM     11  C   UNL d   1      51.397  34.214  52.021  0.00  0.00     0.000 C 
ENDROOT
BRANCH   1  12
ATOM     12  C   UNL d   1      53.619  32.173  53.114  0.00  0.00     0.085 C 
BRANCH  12  13
ATOM     13  C   UNL d   1      53.386  31.399  53.262  0.00  0.00     0.018 A 
ATOM     14  C   UNL d   1      53.810  30.938  53.792  0.00  0.00     0.002 A 
ATOM     15  C   UNL d   1      53.570  30.159  53.937  0.00  0.00     0.000 A 
ATOM     16  C   UNL d   1      52.909  29.852  53.549  0.00  0.00     0.000 A 
ATOM     17  C   UNL d   1      52.488  30.320  53.019  0.00  0.00     0.000 A 
ATOM     18  C   UNL d   1      52.725  31.096  52.873  0.00  0.00     0.002 A 
ENDBRANCH  12  13
ENDBRANCH   1  12
TORSDOF 2
ENDMDL
MODEL 5
REMARK VINA RESULT:      -9.6      1.441      2.828
REMARK  2 active torsions:
REMARK  status: ('A' for Active; 'I' for Inactive)
REMARK    1  A    between atoms: C_6  and  N_1 
REMARK    2  A    between atoms: C_11  and  C_6 
ROOT
ATOM      1  N   UNL d   1      52.966  33.157  53.153  0.00  0.00    -0.251 N 
ATOM      2  C   UNL d   1      52.809  32.363  52.960  0.00  0.00     0.378 A 
ATOM      3  C   UNL d   1      53.441  33.158  53.831  0.00  0.00     0.092 A 
ATOM      4  O   UNL d   1      53.182  31.876  53.513  0.00  0.00    -0.258 OA
ATOM      5  C   UNL d   1      53.578  32.369  54.058  0.00  0.00     0.121 A 
ATOM      6  O   UNL d   1      52.354  32.114  52.321  0.00  0.00    -0.237 OA
ATOM      7  C   UNL d   1      53.767  33.774  54.272  0.00  0.00     0.020 A 
ATOM      8  C   UNL d   1      54.039  32.206  54.722  0.00  0.00     0.026 A 
ATOM      9  C   UNL d   1      54.227  33.602  54.935  0.00  0.00     0.002 A 
ATOM     10  C   UNL d   1      54.362  32.821  55.160  0.00  0.00     0.002 A 
ATOM     11  C   UNL d   1      54.554  34.228  55.376  0.00  0.00     0.000 C 
ENDROOT
BRANCH   1  12
ATOM     12  C   UNL d   1      52.718  33.846  52.772  0.00  0.00     0.085 C 
BRANCH  12  13
ATOM     13  C   UNL d   1      51.918  34.029  52.736  0.00  0.00     0.018 A 
ATOM     14  C   UNL d   1      51.510  34.218  53.423  0.00  0.00     0.002 A 
ATOM     15  C   UNL d   1      50.704  34.401  53.381  0.00  0.00     0.000 A 
ATOM     16  C   UNL d   1      50.316  34.391  52.652  0.00  0.00     0.000 A 
ATOM     17  C   UNL d   1      50.731  34.200  51.967  0.00  0.00     0.000 A 
ATOM     18  C   UNL d   1      51.534  34.018  52.006  0.00  0.00     0.002 A 
ENDBRANCH  12  13
ENDBRANCH   1  12
TORSDOF 2
ENDMDL
MODEL 6
REMARK VINA RESULT:      -9.1      1.245      2.948
REMARK  2 active torsions:
REMARK  status: ('A' for Active; 'I' for Inactive)
REMARK    1  A    between atoms: C_6  and  N_1 
REMARK    2  A    between atoms: C_11  and  C_6 
ROOT
ATOM      1  N   UNL d   1      53.269  32.479  53.252  0.00  0.00    -0.251 N 
ATOM      2  C   UNL d   1      53.040  31.680  53.283  0.00  0.00     0.378 A 
ATOM      3  C   UNL d   1      52.588  32.926  53.101  0.00  0.00     0.092 A 
ATOM      4  O   UNL d   1      52.226  31.631  53.153  0.00  0.00    -0.258 OA
ATOM      5  C   UNL d   1      51.940  32.407  53.039  0.00  0.00     0.121 A 
ATOM      6  O   UNL d   1      53.549  31.048  53.421  0.00  0.00    -0.237 OA
ATOM      7  C   UNL d   1      52.473  33.738  53.013  0.00  0.00     0.020 A 
ATOM      8  C   UNL d   1      51.187  32.706  52.890  0.00  0.00     0.026 A 
ATOM      9  C   UNL d   1      51.715  34.028  52.863  0.00  0.00     0.002 A 
ATOM     10  C   UNL d   1      51.075  33.514  52.802  0.00  0.00     0.002 A 
ATOM     11  C   UNL d   1      51.605  34.849  52.775  0.00  0.00     0.000 C 
ENDROOT
BRANCH   1  12
ATOM     12  C   UNL d   1      54.018  32.812  53.347  0.00  0.00     0.085 C 
BRANCH  12  13
ATOM     13  C   UNL d   1      54.287  33.007  54.098  0.00  0.00     0.018 A 
ATOM     14  C   UNL d   1      54.047  32.563  54.746  0.00  0.00     0.002 A 
ATOM     15  C   UNL d   1      54.321  32.764  55.501  0.00  0.00     0.000 A 
ATOM     16  C   UNL d   1      54.832  33.406  55.597  0.00  0.00     0.000 A 
ATOM     17  C   UNL d   1      55.068  33.846  54.943  0.00  0.00     0.000 A 
ATOM     18  C   UNL d   1      54.796  33.648  54.191  0.00  0.00     0.002 A 
ENDBRANCH  12  13
ENDBRANCH   1  12
TORSDOF 2
ENDMDL
