MODEL 1
REMARK VINA RESULT:      -9.2      0.000      0.000
REMARK  6 active torsions:
REMARK  status: ('A' for Active; 'I' for Inactive)
REMARK    1  A    between atoms: S_2  and  C_1 
REMARK    2  A    between atoms: N_3  and  C_1 
REMARK    3  A    between atoms: C_4  and  C_1 
REMARK    4  A    between atoms: C_6  and  S_2 
REMARK       I    between atoms: C_5  and  N_3 
REMARK    5  A    between atoms: C_9  and  C_5 
REMARK    6  A    between atoms: O_23  and  C_17 
ROOT
ATOM      1  C   UNL d   1      52.031  33.828  53.295  0.00  0.00     0.193 C 
ENDROOT
BRANCH   1   2
ATOM      2  S   UNL d   1      51.332  34.039  52.924  0.00  0.00     0.228 S 
ATOM      3  O   UNL d   1      50.898  33.693  53.541  0.00  0.00    -0.216 OA
ATOM      4  O   UNL d   1      51.759  34.386  52.304  0.00  0.00    -0.216 OA
BRANCH   2   5
ATOM      5  C   UNL d   1      50.616  34.251  52.550  0.00  0.00     0.089 A 
ATOM      6  C   UNL d   1      50.021  34.605  52.985  0.00  0.00     0.011 A 
ATOM      7  C   UNL d   1      49.314  34.815  52.614  0.00  0.00     0.001 A 
ATOM      8  C   UNL d   1      49.210  34.667  51.809  0.00  0.00     0.000 A 
ATOM      9  C   UNL d   1      49.814  34.310  51.375  0.00  0.00     0.001 A 
ATOM     10  C   UNL d   1      48.493  34.879  51.431  0.00  0.00     0.000 C 
ATOM     11  C   UNL d   1      50.513  34.103  51.745  0.00  0.00     0.011 A 
ENDBRANCH   2   5
ENDBRANCH   1   2
BRANCH   1  12
ATOM     12  N   UNL d   1      52.192  33.032  53.440  0.00  0.00    -0.195 NA
ATOM     13  C   UNL d   1      52.835  32.671  53.076  0.00  0.00     0.280 C 
ATOM     14  O   UNL d   1      53.319  33.104  52.566  0.00  0.00    -0.265 OA
BRANCH  13  15
ATOM     15  C   UNL d   1      52.997  31.869  53.223  0.00  0.00     0.058 A 
ATOM     16  C   UNL d   1      52.572  31.283  52.829  0.00  0.00     0.007 A 
ATOM     17  C   UNL d   1      52.733  30.486  52.976  0.00  0.00     0.024 A 
ATOM     18  C   UNL d   1      53.317  30.280  53.517  0.00  0.00     0.094 A 
ATOM     19  C   UNL d   1      53.742  30.867  53.912  0.00  0.00     0.024 A 
ATOM     20  C   UNL d   1      53.582  31.660  53.766  0.00  0.00     0.007 A 
BRANCH  18  21
ATOM     21  O   UNL d   1      53.476  29.475  53.662  0.00  0.00    -0.328 OA
ATOM     22  C   UNL d   1      53.330  29.149  54.412  0.00  0.00     0.181 C 
ENDBRANCH  18  21
ENDBRANCH  13  15
ENDBRANCH   1  12
BRANCH   1  23
ATOM     23  C   UNL d   1      52.572  34.407  53.523  0.00  0.00     0.144 C 
ATOM     24 CL   UNL d   1      52.692  34.567  54.323  0.00  0.00    -0.068 Cl
ATOM     25 CL   UNL d   1      52.992  34.826  52.953  0.00  0.00    -0.068 Cl
ENDBRANCH   1  23
TORSDOF 6
ENDMDL
MODEL 2
REMARK VINA RESULT:      -8.8      1.391      4.721
REMARK  6 active torsions:
REMARK  status: ('A' for Active; 'I' for Inactive)
REMARK    1  A    between atoms: S_2  and  C_1 
REMARK    2  A    between atoms: N_3  and  C_1 
REMARK    3  A    between atoms: C_4  and  C_1 
REMARK    4  A    between atoms: C_6  and  S_2 
REMARK       I    between atoms: C_5  and  N_3 
REMARK    5  A    between atoms: C_9  and  C_5 
REMARK    6  A    between atoms: O_23  and  C_17 
ROOT
ATOM      1  C   UNL d   1      53.449  32.358  53.499  0.00  0.00     0.193 C 
ENDROOT
BRANCH   1   2
ATOM      2  S   UNL d   1      53.431  31.573  53.730  0.00  0.00     0.228 S 
ATOM      3  O   UNL d   1      53.226  31.349  52.958  0.00  0.00    -0.216 OA
ATOM      4  O   UNL d   1      53.637  31.789  54.503  0.00  0.00    -0.216 OA
BRANCH   2   5
ATOM      5  C   UNL d   1      53.411  30.770  53.960  0.00  0.00     0.089 A 
ATOM      6  C   UNL d   1      53.452  30.184  53.391  0.00  0.00     0.011 A 
ATOM      7  C   UNL d   1      53.433  29.391  53.619  0.00  0.00     0.001 A 
ATOM      8  C   UNL d   1      53.372  29.193  54.417  0.00  0.00     0.000 A 
ATOM      9  C   UNL d   1      53.331  29.788  54.988  0.00  0.00     0.001 A 
ATOM     10  C   UNL d   1      53.352  28.389  54.651  0.00  0.00     0.000 C 
ATOM     11  C   UNL d   1      53.351  30.572  54.758  0.00  0.00     0.011 A 
ENDBRANCH   2   5
ENDBRANCH   1   2
BRANCH   1  12
ATOM     12  N   UNL d   1      52.789  32.692  53.133  0.00  0.00    -0.195 NA
ATOM     13  C   UNL d   1      52.377  33.298  53.507  0.00  0.00     0.280 C 
ATOM     14  O   UNL d   1      52.623  33.572  54.245  0.00  0.00    -0.265 OA
BRANCH  13  15
ATOM     15  C   UNL d   1      51.712  33.633  53.137  0.00  0.00     0.058 A 
ATOM     16  C   UNL d   1      50.960  33.516  53.455  0.00  0.00     0.007 A 
ATOM     17  C   UNL d   1      50.300  33.850  53.087  0.00  0.00     0.024 A 
ATOM     18  C   UNL d   1      50.395  34.298  52.404  0.00  0.00     0.094 A 
ATOM     19  C   UNL d   1      51.148  34.414  52.086  0.00  0.00     0.024 A 
ATOM     20  C   UNL d   1      51.805  34.083  52.452  0.00  0.00     0.007 A 
BRANCH  18  21
ATOM     21  O   UNL d   1      49.726  34.632  52.037  0.00  0.00    -0.328 OA
ATOM     22  C   UNL d   1      49.488  34.372  51.284  0.00  0.00     0.181 C 
ENDBRANCH  18  21
ENDBRANCH  13  15
ENDBRANCH   1  12
BRANCH   1  23
ATOM     23  C   UNL d   1      54.123  32.815  53.631  0.00  0.00     0.144 C 
ATOM     24 CL   UNL d   1      54.648  32.963  53.011  0.00  0.00    -0.068 Cl
ATOM     25 CL   UNL d   1      54.273  33.124  54.378  0.00  0.00    -0.068 Cl
ENDBRANCH   1  23
TORSDOF 6
ENDMDL
MODEL 3
REMARK VINA RESULT:      -8.3      1.039      4.628
REMARK  6 active torsions:
REMARK  status: ('A' for Active; 'I' for Inactive)
REMARK    1  A    between atoms: S_2  and  C_1 
REMARK    2  A    between atoms: N_3  and  C_1 
REMARK    3  A    between atoms: C_4  and  C_1 
REMARK    4  A    between atoms: C_6  and  S_2 
REMARK       I    between atoms: C_5  and  N_3 
REMARK    5  A    between atoms: C_9  and  C_5 
REMARK    6  A    between atoms: O_23  and  C_17 
ROOT
ATOM      1  C   UNL d   1      52.212  33.782  52.965  0.00  0.00     0.193 C 
ENDROOT
BRANCH   1   2
ATOM      2  S   UNL d   1      52.487  33.022  53.090  0.00  0.00     0.228 S 
ATOM      3  O   UNL d   1      52.664  32.951  52.282  0.00  0.00    -0.216 OA
ATOM      4  O   UNL d   1      52.313  33.084  53.898  0.00  0.00    -0.216 OA
BRANCH   2   5
ATOM      5  C   UNL d   1      52.769  32.245  53.211  0.00  0.00     0.089 A 
ATOM      6  C   UNL d   1      53.450  32.124  53.648  0.00  0.00     0.011 A 
ATOM      7  C   UNL d   1      53.729  31.356  53.768  0.00  0.00     0.001 A 
ATOM      8  C   UNL d   1      53.320  30.715  53.448  0.00  0.00     0.000 A 
ATOM      9  C   UNL d   1      52.633  30.842  53.008  0.00  0.00     0.001 A 
ATOM     10  C   UNL d   1      53.600  29.935  53.568  0.00  0.00     0.000 C 
ATOM     11  C   UNL d   1      52.361  31.604  52.891  0.00  0.00     0.011 A 
ENDBRANCH   2   5
ENDBRANCH   1   2
BRANCH   1  12
ATOM     12  N   UNL d   1      51.524  33.900  52.525  0.00  0.00    -0.195 NA
ATOM     13  C   UNL d   1      50.895  34.318  52.852  0.00  0.00     0.280 C 
ATOM     14  O   UNL d   1      50.952  34.618  53.619  0.00  0.00    -0.265 OA
BRANCH  13  15
ATOM     15  C   UNL d   1      50.203  34.436  52.408  0.00  0.00     0.058 A 
ATOM     16  C   UNL d   1      50.181  34.223  51.611  0.00  0.00     0.007 A 
ATOM     17  C   UNL d   1      49.492  34.342  51.171  0.00  0.00     0.024 A 
ATOM     18  C   UNL d   1      48.830  34.672  51.529  0.00  0.00     0.094 A 
ATOM     19  C   UNL d   1      48.852  34.884  52.326  0.00  0.00     0.024 A 
ATOM     20  C   UNL d   1      49.537  34.767  52.765  0.00  0.00     0.007 A 
BRANCH  18  21
ATOM     21  O   UNL d   1      48.137  34.789  51.080  0.00  0.00    -0.328 OA
ATOM     22  C   UNL d   1      47.592  35.377  51.298  0.00  0.00     0.181 C 
ENDBRANCH  18  21
ENDBRANCH  13  15
ENDBRANCH   1  12
BRANCH   1  23
ATOM     23  C   UNL d   1      52.619  34.428  53.277  0.00  0.00     0.144 C 
ATOM     24 CL   UNL d   1      53.053  34.922  52.777  0.00  0.00    -0.068 Cl
ATOM     25 CL   UNL d   1      52.593  34.582  54.083  0.00  0.00    -0.068 Cl
ENDBRANCH   1  23
TORSDOF 6
ENDMDL
