MODEL 1
REMARK VINA RESULT:      -4.0      0.000      0.000
REMARK  2 active torsions:
REMARK  status: ('A' for Active; 'I' for Inactive)
REMARK    1  A    between atoms: C_6  and  N_1 
REMARK    2  A    between atoms: C_7  and  C_6 
ROOT
ATOM      1  N   UNL d   1      56.439  -0.374  32.867  0.00  0.00    -0.236 N 
ATOM      2  C   UNL d   1      56.475  -0.709  32.128  0.00  0.00     0.267 A 
ATOM      3  C   UNL d   1      57.011   0.196  32.925  0.00  0.00     0.267 A 
ATOM      4  C   UNL d   1      57.079  -0.343  31.716  0.00  0.00     0.061 A 
ATOM      5  C   UNL d   1      57.413   0.222  32.214  0.00  0.00     0.061 A 
ATOM      6  O   UNL d   1      55.985  -1.322  31.830  0.00  0.00    -0.267 OA
ATOM      7  O   UNL d   1      57.171   0.682  33.594  0.00  0.00    -0.267 OA
ATOM      8  C   UNL d   1      58.042   0.681  31.942  0.00  0.00     0.005 A 
ATOM      9  C   UNL d   1      57.378  -0.441  30.954  0.00  0.00     0.005 A 
ATOM     10  C   UNL d   1      58.009   0.020  30.679  0.00  0.00     0.000 A 
ATOM     11  C   UNL d   1      58.344   0.585  31.177  0.00  0.00     0.000 A 
ENDROOT
BRANCH   1  12
ATOM     12  C   UNL d   1      55.892  -0.601  33.452  0.00  0.00     0.134 C 
ATOM     13  C   UNL d   1      55.860  -1.356  33.748  0.00  0.00     0.026 C 
BRANCH  12  14
ATOM     14  C   UNL d   1      55.361  -0.022  33.737  0.00  0.00     0.228 C 
ATOM     15  O   UNL d   1      54.751   0.261  33.241  0.00  0.00    -0.643 OA
ATOM     16  O   UNL d   1      55.435   0.271  34.510  0.00  0.00    -0.643 OA
ENDBRANCH  12  14
ENDBRANCH   1  12
TORSDOF 2
ENDMDL
MODEL 2
REMARK VINA RESULT:      -3.5      2.570      4.011
REMARK  2 active torsions:
REMARK  status: ('A' for Active; 'I' for Inactive)
REMARK    1  A    between atoms: C_6  and  N_1 
REMARK    2  A    between atoms: C_7  and  C_6 
ROOT
ATOM      1  N   UNL d   1      58.409  -0.732  29.850  0.00  0.00    -0.236 N 
ATOM      2  C   UNL d   1      57.902  -1.181  30.297  0.00  0.00     0.267 A 
ATOM      3  C   UNL d   1      58.393   0.030  30.121  0.00  0.00     0.267 A 
ATOM      4  C   UNL d   1      57.562  -0.693  30.857  0.00  0.00     0.061 A 
ATOM      5  C   UNL d   1      57.868   0.064  30.747  0.00  0.00     0.061 A 
ATOM      6  O   UNL d   1      57.746  -2.002  30.208  0.00  0.00    -0.267 OA
ATOM      7  O   UNL d   1      58.833   0.682  29.819  0.00  0.00    -0.267 OA
ATOM      8  C   UNL d   1      57.622   0.677  31.240  0.00  0.00     0.005 A 
ATOM      9  C   UNL d   1      57.013  -0.825  31.459  0.00  0.00     0.005 A 
ATOM     10  C   UNL d   1      56.764  -0.210  31.954  0.00  0.00     0.000 A 
ATOM     11  C   UNL d   1      57.070   0.546  31.845  0.00  0.00     0.000 A 
ENDROOT
BRANCH   1  12
ATOM     12  C   UNL d   1      58.861  -1.033  29.219  0.00  0.00     0.134 C 
ATOM     13  C   UNL d   1      58.587  -1.043  28.455  0.00  0.00     0.026 C 
BRANCH  12  14
ATOM     14  C   UNL d   1      59.622  -1.333  29.389  0.00  0.00     0.228 C 
ATOM     15  O   UNL d   1      59.763  -2.156  29.341  0.00  0.00    -0.643 OA
ATOM     16  O   UNL d   1      60.237  -0.819  29.606  0.00  0.00    -0.643 OA
ENDBRANCH  12  14
ENDBRANCH   1  12
TORSDOF 2
ENDMDL
MODEL 3
REMARK VINA RESULT:      -3.4      1.264      3.096
REMARK  2 active torsions:
REMARK  status: ('A' for Active; 'I' for Inactive)
REMARK    1  A    between atoms: C_6  and  N_1 
REMARK    2  A    between atoms: C_7  and  C_6 
ROOT
ATOM      1  N   UNL d   1      57.081  -0.242  31.950  0.00  0.00    -0.236 N 
ATOM      2  C   UNL d   1      57.364   0.258  32.524  0.00  0.00     0.267 A 
ATOM      3  C   UNL d   1      56.364  -0.533  32.187  0.00  0.00     0.267 A 
ATOM      4  C   UNL d   1      56.816   0.281  33.129  0.00  0.00     0.061 A 
ATOM      5  C   UNL d   1      56.191  -0.214  32.919  0.00  0.00     0.061 A 
ATOM      6  O   UNL d   1      58.089   0.682  32.508  0.00  0.00    -0.267 OA
ATOM      7  O   UNL d   1      55.874  -1.071  31.762  0.00  0.00    -0.267 OA
ATOM      8  C   UNL d   1      55.551  -0.300  33.432  0.00  0.00     0.005 A 
ATOM      9  C   UNL d   1      56.792   0.682  33.850  0.00  0.00     0.005 A 
ATOM     10  C   UNL d   1      56.149   0.597  34.366  0.00  0.00     0.000 A 
ATOM     11  C   UNL d   1      55.525   0.102  34.156  0.00  0.00     0.000 A 
ENDROOT
BRANCH   1  12
ATOM     12  C   UNL d   1      57.485  -0.410  31.242  0.00  0.00     0.134 C 
ATOM     13  C   UNL d   1      57.749  -1.155  31.060  0.00  0.00     0.026 C 
BRANCH  12  14
ATOM     14  C   UNL d   1      57.617   0.218  30.706  0.00  0.00     0.228 C 
ATOM     15  O   UNL d   1      58.394   0.496  30.578  0.00  0.00    -0.643 OA
ATOM     16  O   UNL d   1      56.981   0.565  30.303  0.00  0.00    -0.643 OA
ENDBRANCH  12  14
ENDBRANCH   1  12
TORSDOF 2
ENDMDL
MODEL 4
REMARK VINA RESULT:      -3.3      8.697      9.401
REMARK  2 active torsions:
REMARK  status: ('A' for Active; 'I' for Inactive)
REMARK    1  A    between atoms: C_6  and  N_1 
REMARK    2  A    between atoms: C_7  and  C_6 
ROOT
ATOM      1  N   UNL d   1      59.686  -8.567  35.055  0.00  0.00    -0.236 N 
ATOM      2  C   UNL d   1      59.256  -8.743  34.389  0.00  0.00     0.267 A 
ATOM      3  C   UNL d   1      60.452  -8.803  34.944  0.00  0.00     0.267 A 
ATOM      4  C   UNL d   1      59.760  -9.096  33.852  0.00  0.00     0.061 A 
ATOM      5  C   UNL d   1      60.507  -9.133  34.198  0.00  0.00     0.061 A 
ATOM      6  O   UNL d   1      58.439  -8.595  34.264  0.00  0.00    -0.267 OA
ATOM      7  O   UNL d   1      61.087  -8.727  35.492  0.00  0.00    -0.267 OA
ATOM      8  C   UNL d   1      61.133  -9.466  33.777  0.00  0.00     0.005 A 
ATOM      9  C   UNL d   1      59.651  -9.392  33.090  0.00  0.00     0.005 A 
ATOM     10  C   UNL d   1      60.279  -9.727  32.665  0.00  0.00     0.000 A 
ATOM     11  C   UNL d   1      61.025  -9.764  33.012  0.00  0.00     0.000 A 
ENDROOT
BRANCH   1  12
ATOM     12  C   UNL d   1      59.365  -8.201  35.730  0.00  0.00     0.134 C 
ATOM     13  C   UNL d   1      59.018  -8.624  36.330  0.00  0.00     0.026 C 
BRANCH  12  14
ATOM     14  C   UNL d   1      59.405  -7.368  35.783  0.00  0.00     0.228 C 
ATOM     15  O   UNL d   1      58.848  -6.899  35.372  0.00  0.00    -0.643 OA
ATOM     16  O   UNL d   1      59.995  -7.005  36.239  0.00  0.00    -0.643 OA
ENDBRANCH  12  14
ENDBRANCH   1  12
TORSDOF 2
ENDMDL
MODEL 5
REMARK VINA RESULT:      -2.9      0.830      1.754
REMARK  2 active torsions:
REMARK  status: ('A' for Active; 'I' for Inactive)
REMARK    1  A    between atoms: C_6  and  N_1 
REMARK    2  A    between atoms: C_7  and  C_6 
ROOT
ATOM      1  N   UNL d   1      56.755   0.164  32.421  0.00  0.00    -0.236 N 
ATOM      2  C   UNL d   1      57.457   0.433  32.725  0.00  0.00     0.267 A 
ATOM      3  C   UNL d   1      56.849   0.020  31.630  0.00  0.00     0.267 A 
ATOM      4  C   UNL d   1      58.001   0.459  32.115  0.00  0.00     0.061 A 
ATOM      5  C   UNL d   1      57.621   0.202  31.431  0.00  0.00     0.061 A 
ATOM      6  O   UNL d   1      57.610   0.650  33.522  0.00  0.00    -0.267 OA
ATOM      7  O   UNL d   1      56.262  -0.265  31.096  0.00  0.00    -0.267 OA
ATOM      8  C   UNL d   1      58.040   0.170  30.721  0.00  0.00     0.005 A 
ATOM      9  C   UNL d   1      58.794   0.682  32.080  0.00  0.00     0.005 A 
ATOM     10  C   UNL d   1      59.217   0.651  31.368  0.00  0.00     0.000 A 
ATOM     11  C   UNL d   1      58.836   0.393  30.684  0.00  0.00     0.000 A 
ENDROOT
BRANCH   1  12
ATOM     12  C   UNL d   1      56.063   0.061  32.873  0.00  0.00     0.134 C 
ATOM     13  C   UNL d   1      55.518   0.653  32.973  0.00  0.00     0.026 C 
BRANCH  12  14
ATOM     14  C   UNL d   1      55.936  -0.683  33.232  0.00  0.00     0.228 C 
ATOM     15  O   UNL d   1      55.924  -0.744  34.066  0.00  0.00    -0.643 OA
ATOM     16  O   UNL d   1      55.822  -1.360  32.766  0.00  0.00    -0.643 OA
ENDBRANCH  12  14
ENDBRANCH   1  12
TORSDOF 2
ENDMDL
MODEL 6
REMARK VINA RESULT:      -2.9      1.924      2.963
REMARK  2 active torsions:
REMARK  status: ('A' for Active; 'I' for Inactive)
REMARK    1  A    between atoms: C_6  and  N_1 
REMARK    2  A    between atoms: C_7  and  C_6 
ROOT
ATOM      1  N   UNL d   1      58.126   0.224  30.691  0.00  0.00    -0.236 N 
ATOM      2  C   UNL d   1      58.291   0.086  29.909  0.00  0.00     0.267 A 
ATOM      3  C   UNL d   1      58.803   0.467  31.063  0.00  0.00     0.267 A 
ATOM      4  C   UNL d   1      59.083   0.245  29.787  0.00  0.00     0.061 A 
ATOM      5  C   UNL d   1      59.403   0.483  30.508  0.00  0.00     0.061 A 
ATOM      6  O   UNL d   1      57.751  -0.173  29.319  0.00  0.00    -0.267 OA
ATOM      7  O   UNL d   1      58.886   0.670  31.877  0.00  0.00    -0.267 OA
ATOM      8  C   UNL d   1      60.203   0.681  30.552  0.00  0.00     0.005 A 
ATOM      9  C   UNL d   1      59.568   0.208  29.120  0.00  0.00     0.005 A 
ATOM     10  C   UNL d   1      60.371   0.407  29.163  0.00  0.00     0.000 A 
ATOM     11  C   UNL d   1      60.691   0.645  29.884  0.00  0.00     0.000 A 
ENDROOT
BRANCH   1  12
ATOM     12  C   UNL d   1      57.373   0.124  31.031  0.00  0.00     0.134 C 
ATOM     13  C   UNL d   1      56.788   0.681  30.961  0.00  0.00     0.026 C 
BRANCH  12  14
ATOM     14  C   UNL d   1      57.225  -0.580  31.458  0.00  0.00     0.228 C 
ATOM     15  O   UNL d   1      57.102  -0.545  32.284  0.00  0.00    -0.643 OA
ATOM     16  O   UNL d   1      57.200  -1.310  31.065  0.00  0.00    -0.643 OA
ENDBRANCH  12  14
ENDBRANCH   1  12
TORSDOF 2
ENDMDL
