MODEL 1
REMARK VINA RESULT:      41.1      0.000      0.000
REMARK  6 active torsions:
REMARK  status: ('A' for Active; 'I' for Inactive)
REMARK    1  A    between atoms: C_6  and  N_2 
REMARK    2  A    between atoms: C_7  and  C_3 
REMARK    3  A    between atoms: C_10  and  C_6 
REMARK    4  A    between atoms: C_15  and  C_7 
REMARK    5  A    between atoms: O_8  and  C_10 
REMARK    6  A    between atoms: C_9  and  O_8 
ROOT
ATOM      1  N   UNL d   1     -49.877  25.443  33.413  0.00  0.00    -0.227 NA
ATOM      2  N   UNL d   1     -51.200  25.340  33.578  0.00  0.00    -0.287 N 
ATOM      3  C   UNL d   1     -50.573  25.894  33.525  0.00  0.00     0.148 A 
ATOM      4  C   UNL d   1     -50.893  24.584  33.501  0.00  0.00     0.083 A 
ATOM      5  C   UNL d   1     -50.040  24.651  33.395  0.00  0.00     0.099 A 
ATOM      6  C   UNL d   1     -51.258  23.857  33.511  0.00  0.00     0.019 A 
ATOM      7  C   UNL d   1     -49.631  23.929  33.306  0.00  0.00     0.021 A 
ATOM      8  C   UNL d   1     -50.795  23.199  33.419  0.00  0.00     0.002 A 
ATOM      9  C   UNL d   1     -49.995  23.261  33.319  0.00  0.00     0.002 A 
ENDROOT
BRANCH   2  10
ATOM     10  C   UNL d   1     -51.917  25.674  33.687  0.00  0.00     0.108 C 
BRANCH  10  11
ATOM     11  C   UNL d   1     -52.607  25.336  33.403  0.00  0.00     0.142 C 
BRANCH  11  12
ATOM     12  O   UNL d   1     -53.296  25.293  33.839  0.00  0.00    -0.304 OA
BRANCH  12  13
ATOM     13  C   UNL d   1     -53.726  24.598  33.941  0.00  0.00     0.100 A 
ATOM     14  C   UNL d   1     -53.704  24.142  34.628  0.00  0.00     0.025 A 
ATOM     15  C   UNL d   1     -54.133  23.448  34.728  0.00  0.00     0.002 A 
ATOM     16  C   UNL d   1     -54.618  23.190  34.102  0.00  0.00     0.000 A 
ATOM     17  C   UNL d   1     -54.659  23.635  33.394  0.00  0.00     0.002 A 
ATOM     18  C   UNL d   1     -54.211  24.340  33.314  0.00  0.00     0.025 A 
ENDBRANCH  12  13
ENDBRANCH  11  12
ENDBRANCH  10  11
ENDBRANCH   2  10
BRANCH   3  19
ATOM     19  C   UNL d   1     -51.031  26.552  33.617  0.00  0.00     0.037 C 
BRANCH  19  20
ATOM     20  C   UNL d   1     -50.765  27.286  33.315  0.00  0.00     0.003 C 
ATOM     21  C   UNL d   1     -50.762  27.967  33.796  0.00  0.00     0.000 C 
ENDBRANCH  19  20
ENDBRANCH   3  19
TORSDOF 6
ENDMDL
MODEL 2
REMARK VINA RESULT:      43.1      1.488      4.397
REMARK  6 active torsions:
REMARK  status: ('A' for Active; 'I' for Inactive)
REMARK    1  A    between atoms: C_6  and  N_2 
REMARK    2  A    between atoms: C_7  and  C_3 
REMARK    3  A    between atoms: C_10  and  C_6 
REMARK    4  A    between atoms: C_15  and  C_7 
REMARK    5  A    between atoms: O_8  and  C_10 
REMARK    6  A    between atoms: C_9  and  O_8 
ROOT
ATOM      1  N   UNL d   1     -52.019  24.191  33.306  0.00  0.00    -0.227 NA
ATOM      2  N   UNL d   1     -51.133  25.193  33.323  0.00  0.00    -0.287 N 
ATOM      3  C   UNL d   1     -51.199  24.358  33.312  0.00  0.00     0.148 A 
ATOM      4  C   UNL d   1     -51.886  25.518  33.324  0.00  0.00     0.083 A 
ATOM      5  C   UNL d   1     -52.457  24.872  33.313  0.00  0.00     0.099 A 
ATOM      6  C   UNL d   1     -52.131  26.294  33.332  0.00  0.00     0.019 A 
ATOM      7  C   UNL d   1     -53.258  25.101  33.311  0.00  0.00     0.021 A 
ATOM      8  C   UNL d   1     -52.928  26.439  33.330  0.00  0.00     0.002 A 
ATOM      9  C   UNL d   1     -53.463  25.834  33.320  0.00  0.00     0.002 A 
ENDROOT
BRANCH   2  10
ATOM     10  C   UNL d   1     -50.379  25.458  33.330  0.00  0.00     0.108 C 
BRANCH  10  11
ATOM     11  C   UNL d   1     -50.193  26.255  33.311  0.00  0.00     0.142 C 
BRANCH  11  12
ATOM     12  O   UNL d   1     -49.432  26.538  33.394  0.00  0.00    -0.304 OA
BRANCH  12  13
ATOM     13  C   UNL d   1     -49.247  27.231  33.800  0.00  0.00     0.100 A 
ATOM     14  C   UNL d   1     -48.887  27.245  34.542  0.00  0.00     0.025 A 
ATOM     15  C   UNL d   1     -48.703  27.937  34.946  0.00  0.00     0.002 A 
ATOM     16  C   UNL d   1     -48.891  28.665  34.587  0.00  0.00     0.000 A 
ATOM     17  C   UNL d   1     -49.256  28.679  33.834  0.00  0.00     0.002 A 
ATOM     18  C   UNL d   1     -49.434  27.959  33.441  0.00  0.00     0.025 A 
ENDBRANCH  12  13
ENDBRANCH  11  12
ENDBRANCH  10  11
ENDBRANCH   2  10
BRANCH   3  19
ATOM     19  C   UNL d   1     -50.405  24.209  33.314  0.00  0.00     0.037 C 
BRANCH  19  20
ATOM     20  C   UNL d   1     -50.132  23.428  33.444  0.00  0.00     0.003 C 
ATOM     21  C   UNL d   1     -49.791  23.212  34.173  0.00  0.00     0.000 C 
ENDBRANCH  19  20
ENDBRANCH   3  19
TORSDOF 6
ENDMDL
