MODEL 1
REMARK VINA RESULT:      29.4      0.000      0.000
REMARK  1 active torsions:
REMARK  status: ('A' for Active; 'I' for Inactive)
REMARK    1  A    between atoms: C_7  and  C_1 
ROOT
ATOM      1  C   UNL d   1      59.065  49.628  50.633  0.00  0.00     0.103 A 
ATOM      2  C   UNL d   1      59.759  49.590  50.165  0.00  0.00     0.067 A 
ATOM      3  C   UNL d   1      60.569  49.630  51.361  0.00  0.00     0.062 A 
ATOM      4  C   UNL d   1      60.506  49.591  50.534  0.00  0.00     0.200 A 
ATOM      5  O   UNL d   1      59.125  49.667  51.462  0.00  0.00    -0.307 OA
ATOM      6  C   UNL d   1      59.871  49.668  51.823  0.00  0.00     0.103 A 
ATOM      7  C   UNL d   1      61.306  49.631  51.723  0.00  0.00     0.005 A 
ATOM      8  O   UNL d   1      61.189  49.553  50.073  0.00  0.00    -0.286 OA
ATOM      9  C   UNL d   1      59.933  49.707  52.650  0.00  0.00     0.025 A 
ATOM     10  C   UNL d   1      61.364  49.669  52.544  0.00  0.00     0.000 A 
ATOM     11  C   UNL d   1      60.681  49.707  53.004  0.00  0.00     0.002 A 
ATOM     12  C   UNL d   1      62.104  49.670  52.902  0.00  0.00     0.000 C 
ENDROOT
BRANCH   1  13
ATOM     13  C   UNL d   1      58.331  49.627  50.269  0.00  0.00     0.023 A 
ATOM     14  C   UNL d   1      57.641  49.550  50.722  0.00  0.00     0.002 A 
ATOM     15  C   UNL d   1      56.906  49.549  50.350  0.00  0.00     0.000 A 
ATOM     16  C   UNL d   1      56.858  49.625  49.530  0.00  0.00     0.000 A 
ATOM     17  C   UNL d   1      57.545  49.701  49.082  0.00  0.00     0.000 A 
ATOM     18  C   UNL d   1      56.116  49.624  49.159  0.00  0.00     0.000 C 
ATOM     19  C   UNL d   1      58.279  49.702  49.454  0.00  0.00     0.002 A 
ENDBRANCH   1  13
TORSDOF 1
ENDMDL
