MODEL 1
REMARK VINA RESULT:      29.7      0.000      0.000
REMARK  3 active torsions:
REMARK  status: ('A' for Active; 'I' for Inactive)
REMARK    1  A    between atoms: C_6  and  N_1 
REMARK    2  A    between atoms: C_5  and  C_6 
REMARK       I    between atoms: N_10  and  C_5 
REMARK    3  A    between atoms: C_16  and  N_10 
ROOT
ATOM      1  C   UNL d   1      13.186  12.481  -3.403  0.00  0.00     0.297 C 
ATOM      2  N   UNL d   1      13.360  11.779  -3.014  0.00  0.00    -0.207 NA
ATOM      3  O   UNL d   1      13.284  13.201  -3.005  0.00  0.00    -0.264 OA
ENDROOT
BRANCH   1   4
ATOM      4  C   UNL d   1      12.918  12.472  -4.180  0.00  0.00     0.148 C 
BRANCH   4   5
ATOM      5  N   UNL d   1      13.276  12.953  -4.742  0.00  0.00    -0.235 N 
ATOM      6  C   UNL d   1      13.224  13.769  -4.680  0.00  0.00     0.273 A 
ATOM      7  C   UNL d   1      13.584  14.253  -5.246  0.00  0.00     0.086 A 
ATOM      8  O   UNL d   1      12.811  14.116  -4.050  0.00  0.00    -0.266 OA
ATOM      9  C   UNL d   1      13.543  15.077  -5.201  0.00  0.00     0.012 C 
ATOM     10  S   UNL d   1      13.992  13.902  -5.868  0.00  0.00    -0.077 SA
ATOM     11  C   UNL d   1      14.047  13.087  -5.934  0.00  0.00     0.097 A 
ATOM     12  C   UNL d   1      13.689  12.606  -5.372  0.00  0.00     0.274 A 
ATOM     13  O   UNL d   1      13.743  11.781  -5.438  0.00  0.00    -0.266 OA
ENDBRANCH   4   5
ENDBRANCH   1   4
BRANCH   2  14
ATOM     14  C   UNL d   1      13.628  11.785  -2.240  0.00  0.00     0.087 A 
ATOM     15  C   UNL d   1      14.440  11.779  -2.106  0.00  0.00     0.045 A 
ATOM     16  C   UNL d   1      14.733  11.786  -1.341  0.00  0.00     0.121 A 
ATOM     17  O   UNL d   1      15.498  11.782  -1.037  0.00  0.00    -0.299 OA
ATOM     18  C   UNL d   1      14.208  11.798  -0.702  0.00  0.00     0.119 A 
ATOM     19  C   UNL d   1      15.445  11.792  -0.213  0.00  0.00     0.304 A 
ATOM     20  O   UNL d   1      14.658  11.802  -0.016  0.00  0.00    -0.300 OA
ATOM     21  C   UNL d   1      13.393  11.804  -0.831  0.00  0.00     0.028 A 
ATOM     22  C   UNL d   1      13.095  11.798  -1.604  0.00  0.00     0.021 A 
ENDBRANCH   2  14
TORSDOF 3
ENDMDL
MODEL 2
REMARK VINA RESULT:      31.5      1.704      4.434
REMARK  3 active torsions:
REMARK  status: ('A' for Active; 'I' for Inactive)
REMARK    1  A    between atoms: C_6  and  N_1 
REMARK    2  A    between atoms: C_5  and  C_6 
REMARK       I    between atoms: N_10  and  C_5 
REMARK    3  A    between atoms: C_16  and  N_10 
ROOT
ATOM      1  C   UNL d   1      13.603  12.352  -2.702  0.00  0.00     0.297 C 
ATOM      2  N   UNL d   1      13.024  12.459  -3.275  0.00  0.00    -0.207 NA
ATOM      3  O   UNL d   1      14.281  12.828  -2.716  0.00  0.00    -0.264 OA
ENDROOT
BRANCH   1   4
ATOM      4  C   UNL d   1      13.512  11.779  -2.120  0.00  0.00     0.148 C 
BRANCH   4   5
ATOM      5  N   UNL d   1      13.969  11.814  -1.438  0.00  0.00    -0.235 N 
ATOM      6  C   UNL d   1      14.787  11.845  -1.490  0.00  0.00     0.273 A 
ATOM      7  C   UNL d   1      15.246  11.880  -0.803  0.00  0.00     0.086 A 
ATOM      8  O   UNL d   1      15.160  11.842  -2.230  0.00  0.00    -0.266 OA
ATOM      9  C   UNL d   1      16.071  11.912  -0.834  0.00  0.00     0.012 C 
ATOM     10  S   UNL d   1      14.869  11.882  -0.071  0.00  0.00    -0.077 SA
ATOM     11  C   UNL d   1      14.052  11.851  -0.014  0.00  0.00     0.097 A 
ATOM     12  C   UNL d   1      13.595  11.816  -0.697  0.00  0.00     0.274 A 
ATOM     13  O   UNL d   1      12.769  11.784  -0.642  0.00  0.00    -0.266 OA
ENDBRANCH   4   5
ENDBRANCH   1   4
BRANCH   2  14
ATOM     14  C   UNL d   1      13.112  13.029  -3.856  0.00  0.00     0.087 A 
ATOM     15  C   UNL d   1      13.043  13.822  -3.642  0.00  0.00     0.045 A 
ATOM     16  C   UNL d   1      13.127  14.411  -4.205  0.00  0.00     0.121 A 
ATOM     17  O   UNL d   1      13.089  15.232  -4.162  0.00  0.00    -0.299 OA
ATOM     18  C   UNL d   1      13.281  14.207  -4.991  0.00  0.00     0.119 A 
ATOM     19  C   UNL d   1      13.220  15.533  -4.920  0.00  0.00     0.304 A 
ATOM     20  O   UNL d   1      13.336  14.904  -5.419  0.00  0.00    -0.300 OA
ATOM     21  C   UNL d   1      13.351  13.414  -5.211  0.00  0.00     0.028 A 
ATOM     22  C   UNL d   1      13.267  12.817  -4.643  0.00  0.00     0.021 A 
ENDBRANCH   2  14
TORSDOF 3
ENDMDL
