MODEL 1
REMARK VINA RESULT:      62.1      0.000      0.000
REMARK  2 active torsions:
REMARK  status: ('A' for Active; 'I' for Inactive)
REMARK       I    between atoms: C_3  and  N_1 
REMARK       I    between atoms: C_4  and  N_2 
REMARK    1  A    between atoms: C_6  and  C_3 
REMARK    2  A    between atoms: C_8  and  C_4 
ROOT
ATOM      1  N   UNL d   1     -50.997  24.620  33.578  0.00  0.00    -0.270 N 
ATOM      2  N   UNL d   1     -50.205  26.071  33.478  0.00  0.00    -0.269 N 
ATOM      3  C   UNL d   1     -51.390  23.899  33.628  0.00  0.00     0.265 C 
ATOM      4  C   UNL d   1     -49.807  26.793  33.428  0.00  0.00     0.265 C 
ATOM      5  C   UNL d   1     -50.175  24.640  33.472  0.00  0.00     0.085 A 
ATOM      6  C   UNL d   1     -49.774  25.355  33.422  0.00  0.00     0.101 A 
ATOM      7  C   UNL d   1     -51.417  25.329  33.634  0.00  0.00     0.102 A 
ATOM      8  C   UNL d   1     -51.018  26.060  33.583  0.00  0.00     0.102 A 
ATOM      9  O   UNL d   1     -50.966  23.189  33.572  0.00  0.00    -0.267 OA
ATOM     10  O   UNL d   1     -48.982  26.807  33.321  0.00  0.00    -0.267 OA
ATOM     11  C   UNL d   1     -49.747  23.926  33.416  0.00  0.00     0.021 C 
ENDROOT
BRANCH   3  12
ATOM     12  C   UNL d   1     -52.206  23.882  33.733  0.00  0.00     0.057 A 
ATOM     13  C   UNL d   1     -52.671  24.513  33.471  0.00  0.00     0.005 A 
ATOM     14  C   UNL d   1     -53.488  24.496  33.576  0.00  0.00     0.000 A 
ATOM     15  C   UNL d   1     -53.953  25.127  33.314  0.00  0.00     0.000 C 
ATOM     16  C   UNL d   1     -53.841  23.848  33.944  0.00  0.00     0.000 A 
ATOM     17  C   UNL d   1     -53.373  23.211  34.209  0.00  0.00     0.000 A 
ATOM     18  C   UNL d   1     -52.561  23.235  34.101  0.00  0.00     0.005 A 
ENDBRANCH   3  12
BRANCH   4  19
ATOM     19  C   UNL d   1     -50.229  27.498  33.483  0.00  0.00     0.057 A 
ATOM     20  C   UNL d   1     -49.822  28.208  33.600  0.00  0.00     0.005 A 
ATOM     21  C   UNL d   1     -50.245  28.913  33.656  0.00  0.00     0.000 A 
ATOM     22  C   UNL d   1     -49.845  29.626  33.773  0.00  0.00     0.000 C 
ATOM     23  C   UNL d   1     -51.074  28.909  33.594  0.00  0.00     0.000 A 
ATOM     24  C   UNL d   1     -51.473  28.205  33.478  0.00  0.00     0.000 A 
ATOM     25  C   UNL d   1     -51.051  27.490  33.422  0.00  0.00     0.005 A 
ENDBRANCH   4  19
TORSDOF 2
ENDMDL
