MODEL 1
REMARK VINA RESULT:      12.3      0.000      0.000
REMARK  2 active torsions:
REMARK  status: ('A' for Active; 'I' for Inactive)
REMARK    1  A    between atoms: C_6  and  C_1 
REMARK    2  A    between atoms: C_7  and  C_5 
ROOT
ATOM      1  C   UNL d   1     -55.445-102.588 -36.703  0.00  0.00     0.169 A 
ATOM      2  C   UNL d   1     -56.002-102.833 -37.149  0.00  0.00     0.048 A 
ATOM      3  N   UNL d   1     -54.713-102.328 -37.762  0.00  0.00    -0.148 NA
ATOM      4  N   UNL d   1     -54.797-102.334 -37.005  0.00  0.00    -0.142 NA
ATOM      5  C   UNL d   1     -55.269-102.573 -38.207  0.00  0.00     0.105 A 
ENDROOT
BRANCH   5   6
ATOM      6  C   UNL d   1     -55.378-102.649 -39.019  0.00  0.00     0.020 A 
ATOM      7  C   UNL d   1     -56.132-102.790 -39.329  0.00  0.00     0.004 A 
ATOM      8  C   UNL d   1     -56.240-102.865 -40.146  0.00  0.00     0.030 A 
ATOM      9  C   UNL d   1     -55.592-102.800 -40.657  0.00  0.00     0.140 A 
ATOM     10  C   UNL d   1     -54.831-102.658 -40.341  0.00  0.00     0.030 A 
ATOM     11  F   UNL d   1     -55.693-102.874 -41.463  0.00  0.00    -0.204 F 
ATOM     12  C   UNL d   1     -54.731-102.584 -39.525  0.00  0.00     0.004 A 
ENDBRANCH   5   6
BRANCH   1  13
ATOM     13  C   UNL d   1     -55.529-102.593 -35.946  0.00  0.00     0.231 C 
ATOM     14  O   UNL d   1     -54.986-102.318 -35.502  0.00  0.00    -0.643 OA
ATOM     15  O   UNL d   1     -56.163-102.878 -35.644  0.00  0.00    -0.643 OA
ENDBRANCH   1  13
TORSDOF 2
ENDMDL
