MODEL 1
REMARK VINA RESULT:      34.0      0.000      0.000
REMARK  5 active torsions:
REMARK  status: ('A' for Active; 'I' for Inactive)
REMARK    1  A    between atoms: N_2  and  S_1 
REMARK    2  A    between atoms: C_6  and  S_1 
REMARK       I    between atoms: C_3  and  N_4 
REMARK    3  A    between atoms: C_5  and  C_3 
REMARK    4  A    between atoms: O_22  and  C_12 
REMARK    5  A    between atoms: O_26  and  C_16 
ROOT
ATOM      1  N   UNL d   1      45.859 -14.516  44.385  0.00  0.00    -0.226 N 
ATOM      2  C   UNL d   1      45.497 -16.955  44.129  0.00  0.00     0.265 C 
ATOM      3  N   UNL d   1      45.617 -16.144  44.215  0.00  0.00    -0.269 N 
ATOM      4  C   UNL d   1      45.453 -14.947  44.949  0.00  0.00     0.111 A 
ATOM      5  C   UNL d   1      46.150 -14.914  43.716  0.00  0.00     0.111 A 
ATOM      6  C   UNL d   1      46.022 -15.722  43.648  0.00  0.00     0.103 A 
ATOM      7  C   UNL d   1      45.325 -15.746  44.884  0.00  0.00     0.103 A 
ATOM      8  O   UNL d   1      45.087 -17.364  44.711  0.00  0.00    -0.267 OA
ENDROOT
BRANCH   2   9
ATOM      9  C   UNL d   1      45.781 -17.342  43.479  0.00  0.00     0.059 A 
ATOM     10  C   UNL d   1      45.834 -18.164  43.474  0.00  0.00     0.031 A 
ATOM     11  C   UNL d   1      46.116 -18.548  42.829  0.00  0.00     0.116 A 
ATOM     12  C   UNL d   1      46.355 -18.125  42.164  0.00  0.00     0.116 A 
ATOM     13  C   UNL d   1      46.301 -17.302  42.168  0.00  0.00     0.026 A 
ATOM     14  C   UNL d   1      46.020 -16.918  42.814  0.00  0.00     0.007 A 
BRANCH  11  15
ATOM     15  O   UNL d   1      46.157 -19.387  42.859  0.00  0.00    -0.326 OA
ATOM     16  C   UNL d   1      46.183 -19.779  43.602  0.00  0.00     0.181 C 
ENDBRANCH  11  15
BRANCH  12  17
ATOM     17  O   UNL d   1      46.647 -18.518  41.494  0.00  0.00    -0.326 OA
ATOM     18  C   UNL d   1      46.099 -18.507  40.887  0.00  0.00     0.181 C 
ENDBRANCH  12  17
ENDBRANCH   2   9
BRANCH   1  19
ATOM     19  S   UNL d   1      45.978 -13.708  44.470  0.00  0.00     0.271 S 
ATOM     20  O   UNL d   1      46.643 -13.844  44.952  0.00  0.00    -0.200 OA
ATOM     21  O   UNL d   1      46.087 -12.886  44.549  0.00  0.00    -0.200 OA
BRANCH  19  22
ATOM     22  C   UNL d   1      45.320 -13.560  43.994  0.00  0.00     0.104 A 
ATOM     23  C   UNL d   1      45.394 -13.154  43.276  0.00  0.00     0.014 A 
ATOM     24  C   UNL d   1      44.753 -13.000  42.795  0.00  0.00     0.012 A 
ATOM     25  C   UNL d   1      44.002 -13.258  43.029  0.00  0.00     0.058 A 
ATOM     26  C   UNL d   1      43.905 -13.664  43.741  0.00  0.00     0.012 A 
ATOM     27 CL   UNL d   1      43.344 -13.110  42.553  0.00  0.00    -0.082 Cl
ATOM     28  C   UNL d   1      44.568 -13.817  44.229  0.00  0.00     0.014 A 
ENDBRANCH  19  22
ENDBRANCH   1  19
TORSDOF 5
ENDMDL
