MODEL 1
REMARK VINA RESULT:      -5.5      0.000      0.000
REMARK  6 active torsions:
REMARK  status: ('A' for Active; 'I' for Inactive)
REMARK    1  A    between atoms: N_2  and  S_1 
REMARK    2  A    between atoms: C_4  and  S_1 
REMARK    3  A    between atoms: C_5  and  N_3 
REMARK    4  A    between atoms: C_10  and  C_4 
REMARK    5  A    between atoms: C_14  and  C_10 
REMARK    6  A    between atoms: O_15  and  C_13 
ROOT
ATOM      1  N   UNL d   1     -41.448-122.936 -51.380  0.00  0.00    -0.226 N 
ATOM      2  N   UNL d   1     -41.656-123.206 -49.759  0.00  0.00    -0.300 N 
ATOM      3  C   UNL d   1     -41.174-123.644 -51.035  0.00  0.00     0.111 A 
ATOM      4  C   UNL d   1     -41.815-122.383 -50.916  0.00  0.00     0.111 A 
ATOM      5  C   UNL d   1     -41.922-122.506 -50.116  0.00  0.00     0.100 A 
ATOM      6  C   UNL d   1     -41.282-123.767 -50.235  0.00  0.00     0.100 A 
ENDROOT
BRANCH   1   7
ATOM      7  S   UNL d   1     -41.343-122.801 -52.195  0.00  0.00     0.272 S 
ATOM      8  O   UNL d   1     -41.555-123.605 -52.352  0.00  0.00    -0.200 OA
ATOM      9  O   UNL d   1     -41.139-122.025 -52.040  0.00  0.00    -0.200 OA
BRANCH   7  10
ATOM     10  C   UNL d   1     -41.243-122.678 -52.996  0.00  0.00     0.116 C 
BRANCH  10  11
ATOM     11  C   UNL d   1     -41.876-122.830 -53.523  0.00  0.00     0.014 C 
BRANCH  11  12
ATOM     12  C   UNL d   1     -41.875-122.507 -54.314  0.00  0.00     0.001 A 
ATOM     13  C   UNL d   1     -42.573-122.149 -54.625  0.00  0.00     0.000 A 
ATOM     14  C   UNL d   1     -42.557-121.841 -55.391  0.00  0.00     0.000 A 
ATOM     15  C   UNL d   1     -41.883-121.878 -55.845  0.00  0.00     0.000 A 
ATOM     16  C   UNL d   1     -41.197-122.236 -55.522  0.00  0.00     0.000 A 
ATOM     17  C   UNL d   1     -41.190-122.551 -54.759  0.00  0.00     0.000 A 
ENDBRANCH  11  12
ENDBRANCH  10  11
ENDBRANCH   7  10
ENDBRANCH   1   7
BRANCH   2  18
ATOM     18  C   UNL d   1     -41.754-123.349 -48.960  0.00  0.00     0.086 A 
ATOM     19  C   UNL d   1     -42.527-123.501 -48.654  0.00  0.00     0.110 A 
ATOM     20  C   UNL d   1     -42.630-123.646 -47.845  0.00  0.00     0.026 A 
ATOM     21  C   UNL d   1     -41.962-123.643 -47.318  0.00  0.00     0.002 A 
ATOM     22  C   UNL d   1     -41.218-123.492 -47.638  0.00  0.00     0.002 A 
ATOM     23  C   UNL d   1     -41.123-123.346 -48.459  0.00  0.00     0.019 A 
BRANCH  19  24
ATOM     24  O   UNL d   1     -43.173-123.505 -49.161  0.00  0.00    -0.327 OA
ATOM     25  C   UNL d   1     -43.898-123.817 -48.923  0.00  0.00     0.181 C 
ENDBRANCH  19  24
ENDBRANCH   2  18
TORSDOF 6
ENDMDL
