MODEL 1
REMARK VINA RESULT:      61.0      0.000      0.000
REMARK  3 active torsions:
REMARK  status: ('A' for Active; 'I' for Inactive)
REMARK    1  A    between atoms: C_6  and  C_2 
REMARK    2  A    between atoms: O_7  and  C_6 
REMARK    3  A    between atoms: C_8  and  O_7 
ROOT
ATOM      1  N   UNL d   1      61.169  46.411  49.331  0.00  0.00    -0.224 NA
ATOM      2  C   UNL d   1      61.748  46.972  49.532  0.00  0.00     0.188 A 
ATOM      3  N   UNL d   1      62.475  46.575  49.501  0.00  0.00    -0.224 NA
ATOM      4  C   UNL d   1      61.532  45.699  49.184  0.00  0.00     0.101 A 
ATOM      5  C   UNL d   1      62.346  45.801  49.290  0.00  0.00     0.101 A 
ATOM      6  C   UNL d   1      61.258  44.957  48.967  0.00  0.00     0.021 A 
ATOM      7  C   UNL d   1      62.865  45.158  49.176  0.00  0.00     0.021 A 
ATOM      8  C   UNL d   1      62.557  44.447  48.963  0.00  0.00     0.002 A 
ATOM      9  C   UNL d   1      61.744  44.345  48.857  0.00  0.00     0.002 A 
ENDROOT
BRANCH   2  10
ATOM     10  C   UNL d   1      61.415  47.687  49.683  0.00  0.00     0.161 C 
BRANCH  10  11
ATOM     11  O   UNL d   1      61.668  48.143  50.339  0.00  0.00    -0.302 OA
BRANCH  11  12
ATOM     12  C   UNL d   1      61.118  48.536  50.825  0.00  0.00     0.100 A 
ATOM     13  C   UNL d   1      60.746  49.213  50.554  0.00  0.00     0.025 A 
ATOM     14  C   UNL d   1      60.197  49.622  51.016  0.00  0.00     0.002 A 
ATOM     15  C   UNL d   1      60.039  49.315  51.765  0.00  0.00     0.000 A 
ATOM     16  C   UNL d   1      60.410  48.635  52.040  0.00  0.00     0.002 A 
ATOM     17  C   UNL d   1      59.489  49.708  52.251  0.00  0.00     0.000 C 
ATOM     18  C   UNL d   1      60.957  48.232  51.576  0.00  0.00     0.025 A 
ENDBRANCH  11  12
ENDBRANCH  10  11
ENDBRANCH   2  10
TORSDOF 3
ENDMDL
