MODEL 1
REMARK VINA RESULT:       8.8      0.000      0.000
REMARK  6 active torsions:
REMARK  status: ('A' for Active; 'I' for Inactive)
REMARK    1  A    between atoms: C_9  and  N_2 
REMARK    2  A    between atoms: O_11  and  C_7 
REMARK    3  A    between atoms: C_8  and  O_10 
REMARK    4  A    between atoms: C_12  and  C_9 
REMARK    5  A    between atoms: O_10  and  C_15 
REMARK    6  A    between atoms: C_15  and  C_12 
ROOT
ATOM      1  C   UNL d   1      46.435 -17.486  43.621  0.00  0.00     0.087 C 
ENDROOT
BRANCH   1   2
ATOM      2  N   UNL d   1      46.428 -18.307  43.551  0.00  0.00    -0.251 N 
ATOM      3  C   UNL d   1      46.354 -18.884  44.147  0.00  0.00     0.378 A 
ATOM      4  O   UNL d   1      46.379 -19.631  43.787  0.00  0.00    -0.258 OA
ATOM      5  O   UNL d   1      46.270 -18.727  44.950  0.00  0.00    -0.237 OA
ATOM      6  C   UNL d   1      46.468 -19.520  42.976  0.00  0.00     0.121 A 
ATOM      7  C   UNL d   1      46.527 -20.052  42.339  0.00  0.00     0.026 A 
ATOM      8  C   UNL d   1      46.499 -18.703  42.828  0.00  0.00     0.092 A 
ATOM      9  C   UNL d   1      46.614 -19.772  41.573  0.00  0.00     0.002 A 
ATOM     10  C   UNL d   1      46.644 -18.962  41.431  0.00  0.00     0.002 A 
ATOM     11  C   UNL d   1      46.587 -18.425  42.054  0.00  0.00     0.020 A 
ENDBRANCH   1   2
BRANCH   1  12
ATOM     12  C   UNL d   1      45.957 -17.119  44.173  0.00  0.00     0.046 C 
BRANCH  12  13
ATOM     13  C   UNL d   1      46.136 -16.356  44.431  0.00  0.00     0.124 C 
BRANCH  13  14
ATOM     14  O   UNL d   1      45.540 -15.871  44.732  0.00  0.00    -0.303 OA
BRANCH  14  15
ATOM     15  C   UNL d   1      45.643 -15.053  44.749  0.00  0.00     0.122 A 
ATOM     16  C   UNL d   1      44.991 -14.558  44.860  0.00  0.00     0.117 A 
ATOM     17  C   UNL d   1      45.089 -13.741  44.878  0.00  0.00     0.026 A 
ATOM     18  C   UNL d   1      45.847 -13.416  44.783  0.00  0.00     0.002 A 
ATOM     19  C   UNL d   1      46.498 -13.905  44.671  0.00  0.00     0.002 A 
ATOM     20  C   UNL d   1      46.395 -14.723  44.655  0.00  0.00     0.027 A 
BRANCH  16  21
ATOM     21  O   UNL d   1      44.238 -14.887  44.955  0.00  0.00    -0.326 OA
ATOM     22  C   UNL d   1      43.569 -14.426  44.800  0.00  0.00     0.181 C 
ENDBRANCH  16  21
ENDBRANCH  14  15
ENDBRANCH  13  14
ENDBRANCH  12  13
ENDBRANCH   1  12
TORSDOF 6
ENDMDL
