MODEL 1
REMARK VINA RESULT:      19.0      0.000      0.000
REMARK  6 active torsions:
REMARK  status: ('A' for Active; 'I' for Inactive)
REMARK    1  A    between atoms: N_3  and  C_1 
REMARK       I    between atoms: C_4  and  N_3 
REMARK       I    between atoms: N_10  and  C_4 
REMARK    2  A    between atoms: C_7  and  C_5 
REMARK    3  A    between atoms: C_9  and  C_7 
REMARK       I    between atoms: N_12  and  C_9 
REMARK    4  A    between atoms: C_14  and  N_10 
REMARK    5  A    between atoms: C_19  and  N_12 
REMARK    6  A    between atoms: C_17  and  C_19 
ROOT
ATOM      1  C   UNL d   1      46.064 -16.144  44.338  0.00  0.00     0.199 A 
ATOM      2  N   UNL d   1      45.879 -15.600  44.933  0.00  0.00    -0.220 NA
ATOM      3  C   UNL d   1      45.637 -14.904  44.569  0.00  0.00     0.095 A 
ATOM      4  S   UNL d   1      45.939 -15.793  43.618  0.00  0.00    -0.046 SA
ATOM      5  C   UNL d   1      45.674 -15.025  43.751  0.00  0.00     0.058 A 
ENDROOT
BRANCH   1   6
ATOM      6  N   UNL d   1      46.335 -16.928  44.453  0.00  0.00    -0.166 NA
ATOM      7  C   UNL d   1      46.319 -17.471  43.819  0.00  0.00     0.370 C 
ATOM      8  N   UNL d   1      46.584 -18.248  43.922  0.00  0.00    -0.191 NA
ATOM      9  O   UNL d   1      46.034 -17.234  43.075  0.00  0.00    -0.242 OA
BRANCH   8  10
ATOM     10  C   UNL d   1      46.571 -18.786  43.304  0.00  0.00     0.087 A 
ATOM     11  C   UNL d   1      46.610 -18.531  42.522  0.00  0.00     0.031 A 
ATOM     12  C   UNL d   1      46.597 -19.062  41.907  0.00  0.00     0.059 A 
ATOM     13 CL   UNL d   1      46.637 -18.798  41.122  0.00  0.00    -0.082 Cl
ATOM     14  C   UNL d   1      46.544 -19.879  42.070  0.00  0.00     0.011 A 
ATOM     15  C   UNL d   1      46.505 -20.133  42.853  0.00  0.00     0.002 A 
ATOM     16  C   UNL d   1      46.518 -19.587  43.472  0.00  0.00     0.019 A 
ENDBRANCH   8  10
ENDBRANCH   1   6
BRANCH   3  17
ATOM     17  C   UNL d   1      45.399 -14.209  44.955  0.00  0.00     0.082 C 
BRANCH  17  18
ATOM     18  C   UNL d   1      45.533 -13.457  44.605  0.00  0.00     0.281 C 
ATOM     19  N   UNL d   1      45.072 -13.199  43.971  0.00  0.00    -0.205 NA
ATOM     20  O   UNL d   1      46.135 -12.983  44.910  0.00  0.00    -0.265 OA
BRANCH  19  21
ATOM     21  C   UNL d   1      45.210 -12.462  43.636  0.00  0.00     0.121 C 
BRANCH  21  22
ATOM     22  C   UNL d   1      45.105 -12.341  42.843  0.00  0.00     0.101 A 
ATOM     23  N   UNL d   1      45.767 -12.256  42.338  0.00  0.00    -0.242 NA
ATOM     24  C   UNL d   1      45.650 -12.133  41.532  0.00  0.00     0.099 A 
ATOM     25  C   UNL d   1      44.890 -12.092  41.218  0.00  0.00     0.021 A 
ATOM     26  C   UNL d   1      44.236 -12.176  41.716  0.00  0.00     0.003 A 
ATOM     27  C   UNL d   1      44.354 -12.301  42.529  0.00  0.00     0.021 A 
ENDBRANCH  21  22
ENDBRANCH  19  21
ENDBRANCH  17  18
ENDBRANCH   3  17
TORSDOF 6
ENDMDL
