MODEL 1
REMARK VINA RESULT:       0.4      0.000      0.000
REMARK  4 active torsions:
REMARK  status: ('A' for Active; 'I' for Inactive)
REMARK    1  A    between atoms: N_5  and  S_1 
REMARK    2  A    between atoms: C_8  and  S_1 
REMARK    3  A    between atoms: C_2  and  C_11 
REMARK       I    between atoms: C_12  and  N_13 
REMARK    4  A    between atoms: N_13  and  C_21 
ROOT
ATOM      1  N   UNL d   1      57.043   0.120  32.104  0.00  0.00    -0.229 N 
ATOM      2  C   UNL d   1      58.372  -0.071  30.873  0.00  0.00     0.039 A 
ATOM      3  C   UNL d   1      57.848   0.538  32.230  0.00  0.00     0.092 A 
ATOM      4  C   UNL d   1      56.904  -0.392  31.362  0.00  0.00     0.092 A 
ATOM      5  C   UNL d   1      57.572  -0.490  30.742  0.00  0.00     0.023 A 
ATOM      6  C   UNL d   1      58.511   0.441  31.614  0.00  0.00     0.023 A 
ENDROOT
BRANCH   1   7
ATOM      7  S   UNL d   1      56.440   0.210  32.665  0.00  0.00     0.271 S 
ATOM      8  O   UNL d   1      56.988   0.507  33.211  0.00  0.00    -0.200 OA
ATOM      9  O   UNL d   1      55.896  -0.089  32.117  0.00  0.00    -0.200 OA
BRANCH   7  10
ATOM     10  C   UNL d   1      55.829   0.293  33.214  0.00  0.00     0.104 A 
ATOM     11  C   UNL d   1      55.107   0.596  32.997  0.00  0.00     0.015 A 
ATOM     12  C   UNL d   1      54.500   0.679  33.543  0.00  0.00     0.033 A 
ATOM     13  C   UNL d   1      54.631   0.446  34.336  0.00  0.00     0.135 A 
ATOM     14  C   UNL d   1      55.366   0.135  34.566  0.00  0.00     0.033 A 
ATOM     15  C   UNL d   1      55.966   0.059  34.001  0.00  0.00     0.015 A 
BRANCH  13  16
ATOM     16  N   UNL d   1      54.028   0.524  34.892  0.00  0.00    -0.365 NA
ATOM     17  C   UNL d   1      53.417   0.604  35.447  0.00  0.00     0.328 C 
ATOM     18  O   UNL d   1      52.863   0.660  34.844  0.00  0.00    -0.251 OA
ATOM     19  C   UNL d   1      52.822   0.682  36.007  0.00  0.00     0.082 C 
ENDBRANCH  13  16
ENDBRANCH   7  10
ENDBRANCH   1   7
BRANCH   2  20
ATOM     20  C   UNL d   1      59.040  -0.169  30.253  0.00  0.00     0.163 A 
ATOM     21  N   UNL d   1      59.106  -0.753  29.776  0.00  0.00    -0.225 NA
ATOM     22  C   UNL d   1      59.723  -0.636  29.353  0.00  0.00     0.101 A 
ATOM     23  C   UNL d   1      60.029  -1.058  28.795  0.00  0.00     0.021 A 
ATOM     24  C   UNL d   1      60.037   0.016  29.567  0.00  0.00     0.101 A 
ATOM     25  C   UNL d   1      60.661  -0.804  28.459  0.00  0.00     0.002 A 
ATOM     26  C   UNL d   1      60.980  -0.149  28.671  0.00  0.00     0.002 A 
ATOM     27  C   UNL d   1      60.667   0.253  29.219  0.00  0.00     0.021 A 
ATOM     28  N   UNL d   1      59.616   0.307  30.124  0.00  0.00    -0.225 NA
ENDBRANCH   2  20
TORSDOF 4
ENDMDL
MODEL 2
REMARK VINA RESULT:       1.5      5.676      8.011
REMARK  4 active torsions:
REMARK  status: ('A' for Active; 'I' for Inactive)
REMARK    1  A    between atoms: N_5  and  S_1 
REMARK    2  A    between atoms: C_8  and  S_1 
REMARK    3  A    between atoms: C_2  and  C_11 
REMARK       I    between atoms: C_12  and  N_13 
REMARK    4  A    between atoms: N_13  and  C_21 
ROOT
ATOM      1  N   UNL d   1      58.657  -4.756  28.535  0.00  0.00    -0.229 N 
ATOM      2  C   UNL d   1      58.026  -6.464  28.507  0.00  0.00     0.039 A 
ATOM      3  C   UNL d   1      59.240  -5.461  28.572  0.00  0.00     0.092 A 
ATOM      4  C   UNL d   1      57.760  -4.907  28.483  0.00  0.00     0.092 A 
ATOM      5  C   UNL d   1      57.440  -5.767  28.469  0.00  0.00     0.023 A 
ATOM      6  C   UNL d   1      58.923  -6.313  28.558  0.00  0.00     0.023 A 
ENDROOT
BRANCH   1   7
ATOM      7  S   UNL d   1      58.947  -3.980  28.547  0.00  0.00     0.271 S 
ATOM      8  O   UNL d   1      58.176  -3.688  28.623  0.00  0.00    -0.200 OA
ATOM      9  O   UNL d   1      59.718  -4.276  28.471  0.00  0.00    -0.200 OA
BRANCH   7  10
ATOM     10  C   UNL d   1      59.252  -3.213  28.558  0.00  0.00     0.104 A 
ATOM     11  C   UNL d   1      58.763  -2.567  28.632  0.00  0.00     0.015 A 
ATOM     12  C   UNL d   1      59.067  -1.805  28.643  0.00  0.00     0.033 A 
ATOM     13  C   UNL d   1      59.893  -1.694  28.577  0.00  0.00     0.135 A 
ATOM     14  C   UNL d   1      60.399  -2.348  28.501  0.00  0.00     0.033 A 
ATOM     15  C   UNL d   1      60.075  -3.110  28.492  0.00  0.00     0.015 A 
BRANCH  13  16
ATOM     16  N   UNL d   1      60.208  -0.933  28.587  0.00  0.00    -0.365 NA
ATOM     17  C   UNL d   1      60.524  -0.166  28.604  0.00  0.00     0.328 C 
ATOM     18  O   UNL d   1      60.421  -0.131  29.418  0.00  0.00    -0.251 OA
ATOM     19  C   UNL d   1      60.838   0.592  28.607  0.00  0.00     0.082 C 
ENDBRANCH  13  16
ENDBRANCH   7  10
ENDBRANCH   1   7
BRANCH   2  20
ATOM     20  C   UNL d   1      57.706  -7.323  28.493  0.00  0.00     0.163 A 
ATOM     21  N   UNL d   1      56.973  -7.513  28.488  0.00  0.00    -0.225 NA
ATOM     22  C   UNL d   1      56.931  -8.268  28.476  0.00  0.00     0.101 A 
ATOM     23  C   UNL d   1      56.324  -8.732  28.467  0.00  0.00     0.021 A 
ATOM     24  C   UNL d   1      57.633  -8.546  28.475  0.00  0.00     0.101 A 
ATOM     25  C   UNL d   1      56.445  -9.481  28.457  0.00  0.00     0.002 A 
ATOM     26  C   UNL d   1      57.149  -9.764  28.455  0.00  0.00     0.002 A 
ATOM     27  C   UNL d   1      57.733  -9.296  28.464  0.00  0.00     0.021 A 
ATOM     28  N   UNL d   1      58.115  -7.962  28.486  0.00  0.00    -0.225 NA
ENDBRANCH   2  20
TORSDOF 4
ENDMDL
MODEL 3
REMARK VINA RESULT:       1.6      0.543      1.058
REMARK  4 active torsions:
REMARK  status: ('A' for Active; 'I' for Inactive)
REMARK    1  A    between atoms: N_5  and  S_1 
REMARK    2  A    between atoms: C_8  and  S_1 
REMARK    3  A    between atoms: C_2  and  C_11 
REMARK       I    between atoms: C_12  and  N_13 
REMARK    4  A    between atoms: N_13  and  C_21 
ROOT
ATOM      1  N   UNL d   1      57.082  -0.154  32.098  0.00  0.00    -0.229 N 
ATOM      2  C   UNL d   1      58.414  -0.458  30.894  0.00  0.00     0.039 A 
ATOM      3  C   UNL d   1      57.012  -0.845  31.501  0.00  0.00     0.092 A 
ATOM      4  C   UNL d   1      57.818   0.383  32.091  0.00  0.00     0.092 A 
ATOM      5  C   UNL d   1      58.490   0.232  31.485  0.00  0.00     0.023 A 
ATOM      6  C   UNL d   1      57.678  -0.996  30.901  0.00  0.00     0.023 A 
ENDROOT
BRANCH   1   7
ATOM      7  S   UNL d   1      56.474  -0.019  32.645  0.00  0.00     0.271 S 
ATOM      8  O   UNL d   1      56.267   0.678  32.248  0.00  0.00    -0.200 OA
ATOM      9  O   UNL d   1      56.684  -0.716  33.039  0.00  0.00    -0.200 OA
BRANCH   7  10
ATOM     10  C   UNL d   1      55.873   0.103  33.197  0.00  0.00     0.104 A 
ATOM     11  C   UNL d   1      55.998   0.549  33.865  0.00  0.00     0.015 A 
ATOM     12  C   UNL d   1      55.400   0.669  34.414  0.00  0.00     0.033 A 
ATOM     13  C   UNL d   1      54.649   0.325  34.279  0.00  0.00     0.135 A 
ATOM     14  C   UNL d   1      54.512  -0.131  33.600  0.00  0.00     0.033 A 
ATOM     15  C   UNL d   1      55.128  -0.242  33.058  0.00  0.00     0.015 A 
BRANCH  13  16
ATOM     16  N   UNL d   1      54.041   0.440  34.824  0.00  0.00    -0.365 NA
ATOM     17  C   UNL d   1      53.425   0.555  35.367  0.00  0.00     0.328 C 
ATOM     18  O   UNL d   1      52.876   0.569  34.756  0.00  0.00    -0.251 OA
ATOM     19  C   UNL d   1      52.825   0.669  35.914  0.00  0.00     0.082 C 
ENDBRANCH  13  16
ENDBRANCH   7  10
ENDBRANCH   1   7
BRANCH   2  20
ATOM     20  C   UNL d   1      59.085  -0.609  30.288  0.00  0.00     0.163 A 
ATOM     21  N   UNL d   1      59.399  -0.080  29.847  0.00  0.00    -0.225 NA
ATOM     22  C   UNL d   1      59.930  -0.416  29.426  0.00  0.00     0.101 A 
ATOM     23  C   UNL d   1      60.400  -0.128  28.898  0.00  0.00     0.021 A 
ATOM     24  C   UNL d   1      59.945  -1.149  29.604  0.00  0.00     0.101 A 
ATOM     25  C   UNL d   1      60.886  -0.600  28.555  0.00  0.00     0.002 A 
ATOM     26  C   UNL d   1      60.905  -1.338  28.731  0.00  0.00     0.002 A 
ATOM     27  C   UNL d   1      60.438  -1.604  29.250  0.00  0.00     0.021 A 
ATOM     28  N   UNL d   1      59.423  -1.271  30.138  0.00  0.00    -0.225 NA
ENDBRANCH   2  20
TORSDOF 4
ENDMDL
