MODEL 1
REMARK VINA RESULT:      -9.9      0.000      0.000
REMARK  3 active torsions:
REMARK  status: ('A' for Active; 'I' for Inactive)
REMARK    1  A    between atoms: N_7  and  C_6 
REMARK       I    between atoms: C_8  and  N_7 
REMARK    2  A    between atoms: C_12  and  C_8 
REMARK    3  A    between atoms: C_16  and  C_12 
ROOT
ATOM      1  C   UNL d   1      53.465  34.025  54.345  0.00  0.00     0.269 A 
ATOM      2  N   UNL d   1      53.283  34.786  54.636  0.00  0.00    -0.239 N 
ATOM      3  C   UNL d   1      52.925  33.867  53.739  0.00  0.00     0.079 A 
ATOM      4  C   UNL d   1      52.654  35.076  54.217  0.00  0.00     0.267 A 
ATOM      5  C   UNL d   1      52.424  34.517  53.660  0.00  0.00     0.063 A 
ATOM      6  C   UNL d   1      52.832  33.212  53.253  0.00  0.00     0.089 A 
ATOM      7  O   UNL d   1      54.063  33.524  54.607  0.00  0.00    -0.267 OA
ATOM      8  O   UNL d   1      52.296  35.826  54.334  0.00  0.00    -0.267 OA
ATOM      9  C   UNL d   1      53.681  35.173  55.247  0.00  0.00     0.105 C 
ATOM     10  C   UNL d   1      51.829  34.512  53.095  0.00  0.00     0.005 A 
ATOM     11  C   UNL d   1      52.234  33.205  52.683  0.00  0.00     0.019 A 
ATOM     12  C   UNL d   1      51.732  33.856  52.604  0.00  0.00     0.002 A 
ENDROOT
BRANCH   6  13
ATOM     13  N   UNL d   1      53.333  32.562  53.332  0.00  0.00    -0.208 NA
ATOM     14  C   UNL d   1      53.145  31.853  52.957  0.00  0.00     0.279 C 
ATOM     15  O   UNL d   1      52.460  31.788  52.505  0.00  0.00    -0.265 OA
BRANCH  14  16
ATOM     16  C   UNL d   1      53.646  31.203  53.036  0.00  0.00     0.062 C 
BRANCH  16  17
ATOM     17  C   UNL d   1      53.361  30.499  53.359  0.00  0.00     0.005 A 
ATOM     18  C   UNL d   1      53.599  30.265  54.114  0.00  0.00     0.000 A 
ATOM     19  C   UNL d   1      53.321  29.572  54.438  0.00  0.00     0.000 A 
ATOM     20  C   UNL d   1      52.795  29.099  54.006  0.00  0.00     0.000 A 
ATOM     21  C   UNL d   1      52.557  29.332  53.251  0.00  0.00     0.000 A 
ATOM     22  C   UNL d   1      52.843  30.036  52.929  0.00  0.00     0.000 A 
ENDBRANCH  16  17
ENDBRANCH  14  16
ENDBRANCH   6  13
TORSDOF 3
ENDMDL
MODEL 2
REMARK VINA RESULT:      -9.8      0.872      1.739
REMARK  3 active torsions:
REMARK  status: ('A' for Active; 'I' for Inactive)
REMARK    1  A    between atoms: N_7  and  C_6 
REMARK       I    between atoms: C_8  and  N_7 
REMARK    2  A    between atoms: C_12  and  C_8 
REMARK    3  A    between atoms: C_16  and  C_12 
ROOT
ATOM      1  C   UNL d   1      52.711  33.971  53.386  0.00  0.00     0.269 A 
ATOM      2  N   UNL d   1      52.420  34.723  53.605  0.00  0.00    -0.239 N 
ATOM      3  C   UNL d   1      53.331  33.797  53.903  0.00  0.00     0.079 A 
ATOM      4  C   UNL d   1      52.853  34.990  54.234  0.00  0.00     0.267 A 
ATOM      5  C   UNL d   1      53.419  34.427  54.428  0.00  0.00     0.063 A 
ATOM      6  C   UNL d   1      53.824  33.142  53.958  0.00  0.00     0.089 A 
ATOM      7  O   UNL d   1      52.437  33.493  52.775  0.00  0.00    -0.267 OA
ATOM      8  O   UNL d   1      52.741  35.725  54.625  0.00  0.00    -0.267 OA
ATOM      9  C   UNL d   1      51.797  35.121  53.239  0.00  0.00     0.105 C 
ATOM     10  C   UNL d   1      54.000  34.403  55.008  0.00  0.00     0.005 A 
ATOM     11  C   UNL d   1      54.409  33.116  54.541  0.00  0.00     0.019 A 
ATOM     12  C   UNL d   1      54.496  33.746  55.066  0.00  0.00     0.002 A 
ENDROOT
BRANCH   6  13
ATOM     13  N   UNL d   1      53.736  32.511  53.434  0.00  0.00    -0.208 NA
ATOM     14  C   UNL d   1      53.904  31.745  53.684  0.00  0.00     0.279 C 
ATOM     15  O   UNL d   1      54.159  31.603  54.454  0.00  0.00    -0.265 OA
BRANCH  14  16
ATOM     16  C   UNL d   1      53.816  31.115  53.160  0.00  0.00     0.062 C 
BRANCH  16  17
ATOM     17  C   UNL d   1      53.418  30.432  53.398  0.00  0.00     0.005 A 
ATOM     18  C   UNL d   1      52.665  30.270  53.102  0.00  0.00     0.000 A 
ATOM     19  C   UNL d   1      52.266  29.599  53.333  0.00  0.00     0.000 A 
ATOM     20  C   UNL d   1      52.621  29.076  53.870  0.00  0.00     0.000 A 
ATOM     21  C   UNL d   1      53.373  29.238  54.166  0.00  0.00     0.000 A 
ATOM     22  C   UNL d   1      53.772  29.920  53.928  0.00  0.00     0.000 A 
ENDBRANCH  16  17
ENDBRANCH  14  16
ENDBRANCH   6  13
TORSDOF 3
ENDMDL
MODEL 3
REMARK VINA RESULT:      -9.1      1.331      4.213
REMARK  3 active torsions:
REMARK  status: ('A' for Active; 'I' for Inactive)
REMARK    1  A    between atoms: N_7  and  C_6 
REMARK       I    between atoms: C_8  and  N_7 
REMARK    2  A    between atoms: C_12  and  C_8 
REMARK    3  A    between atoms: C_16  and  C_12 
ROOT
ATOM      1  C   UNL d   1      52.890  31.365  52.932  0.00  0.00     0.269 A 
ATOM      2  N   UNL d   1      53.061  30.585  53.178  0.00  0.00    -0.239 N 
ATOM      3  C   UNL d   1      53.209  31.870  53.503  0.00  0.00     0.079 A 
ATOM      4  C   UNL d   1      53.471  30.622  53.875  0.00  0.00     0.267 A 
ATOM      5  C   UNL d   1      53.569  31.410  54.086  0.00  0.00     0.063 A 
ATOM      6  C   UNL d   1      53.215  32.689  53.561  0.00  0.00     0.089 A 
ATOM      7  O   UNL d   1      52.482  31.592  52.254  0.00  0.00    -0.267 OA
ATOM      8  O   UNL d   1      53.750  29.961  54.311  0.00  0.00    -0.267 OA
ATOM      9  C   UNL d   1      52.847  29.898  52.775  0.00  0.00     0.105 C 
ATOM     10  C   UNL d   1      53.934  31.770  54.727  0.00  0.00     0.005 A 
ATOM     11  C   UNL d   1      53.582  33.053  54.205  0.00  0.00     0.019 A 
ATOM     12  C   UNL d   1      53.942  32.593  54.788  0.00  0.00     0.002 A 
ENDROOT
BRANCH   6  13
ATOM     13  N   UNL d   1      52.855  33.149  52.977  0.00  0.00    -0.208 NA
ATOM     14  C   UNL d   1      52.536  33.882  53.174  0.00  0.00     0.279 C 
ATOM     15  O   UNL d   1      52.573  34.160  53.948  0.00  0.00    -0.265 OA
BRANCH  14  16
ATOM     16  C   UNL d   1      52.177  34.341  52.591  0.00  0.00     0.062 C 
BRANCH  16  17
ATOM     17  C   UNL d   1      51.354  34.393  52.556  0.00  0.00     0.005 A 
ATOM     18  C   UNL d   1      50.958  34.206  51.857  0.00  0.00     0.000 A 
ATOM     19  C   UNL d   1      50.146  34.256  51.816  0.00  0.00     0.000 A 
ATOM     20  C   UNL d   1      49.716  34.495  52.483  0.00  0.00     0.000 A 
ATOM     21  C   UNL d   1      50.111  34.682  53.182  0.00  0.00     0.000 A 
ATOM     22  C   UNL d   1      50.934  34.630  53.217  0.00  0.00     0.000 A 
ENDBRANCH  16  17
ENDBRANCH  14  16
ENDBRANCH   6  13
TORSDOF 3
ENDMDL
MODEL 4
REMARK VINA RESULT:      -8.3      1.465      3.629
REMARK  3 active torsions:
REMARK  status: ('A' for Active; 'I' for Inactive)
REMARK    1  A    between atoms: N_7  and  C_6 
REMARK       I    between atoms: C_8  and  N_7 
REMARK    2  A    between atoms: C_12  and  C_8 
REMARK    3  A    between atoms: C_16  and  C_12 
ROOT
ATOM      1  C   UNL d   1      53.563  34.020  54.420  0.00  0.00     0.269 A 
ATOM      2  N   UNL d   1      54.056  33.792  55.055  0.00  0.00    -0.239 N 
ATOM      3  C   UNL d   1      53.376  33.329  54.006  0.00  0.00     0.079 A 
ATOM      4  C   UNL d   1      54.161  32.991  55.022  0.00  0.00     0.267 A 
ATOM      5  C   UNL d   1      53.746  32.693  54.378  0.00  0.00     0.063 A 
ATOM      6  C   UNL d   1      52.915  33.205  53.338  0.00  0.00     0.089 A 
ATOM      7  O   UNL d   1      53.310  34.781  54.238  0.00  0.00    -0.267 OA
ATOM      8  O   UNL d   1      54.620  32.538  55.560  0.00  0.00    -0.267 OA
ATOM      9  C   UNL d   1      54.378  34.303  55.618  0.00  0.00     0.105 C 
ATOM     10  C   UNL d   1      53.655  31.933  54.082  0.00  0.00     0.005 A 
ATOM     11  C   UNL d   1      52.823  32.441  53.038  0.00  0.00     0.019 A 
ATOM     12  C   UNL d   1      53.193  31.805  53.411  0.00  0.00     0.002 A 
ENDROOT
BRANCH   6  13
ATOM     13  N   UNL d   1      52.545  33.842  52.965  0.00  0.00    -0.208 NA
ATOM     14  C   UNL d   1      51.913  33.705  52.456  0.00  0.00     0.279 C 
ATOM     15  O   UNL d   1      51.646  32.939  52.315  0.00  0.00    -0.265 OA
BRANCH  14  16
ATOM     16  C   UNL d   1      51.543  34.342  52.084  0.00  0.00     0.062 C 
BRANCH  16  17
ATOM     17  C   UNL d   1      50.720  34.400  52.088  0.00  0.00     0.005 A 
ATOM     18  C   UNL d   1      50.326  34.614  52.781  0.00  0.00     0.000 A 
ATOM     19  C   UNL d   1      49.514  34.673  52.793  0.00  0.00     0.000 A 
ATOM     20  C   UNL d   1      49.081  34.518  52.103  0.00  0.00     0.000 A 
ATOM     21  C   UNL d   1      49.475  34.304  51.410  0.00  0.00     0.000 A 
ATOM     22  C   UNL d   1      50.298  34.246  51.405  0.00  0.00     0.000 A 
ENDBRANCH  16  17
ENDBRANCH  14  16
ENDBRANCH   6  13
TORSDOF 3
ENDMDL
MODEL 5
REMARK VINA RESULT:      -7.8      1.742      4.201
REMARK  3 active torsions:
REMARK  status: ('A' for Active; 'I' for Inactive)
REMARK    1  A    between atoms: N_7  and  C_6 
REMARK       I    between atoms: C_8  and  N_7 
REMARK    2  A    between atoms: C_12  and  C_8 
REMARK    3  A    between atoms: C_16  and  C_12 
ROOT
ATOM      1  C   UNL d   1      52.961  32.605  53.580  0.00  0.00     0.269 A 
ATOM      2  N   UNL d   1      53.649  32.355  53.982  0.00  0.00    -0.239 N 
ATOM      3  C   UNL d   1      52.881  33.414  53.728  0.00  0.00     0.079 A 
ATOM      4  C   UNL d   1      53.971  32.995  54.360  0.00  0.00     0.267 A 
ATOM      5  C   UNL d   1      53.505  33.655  54.210  0.00  0.00     0.063 A 
ATOM      6  C   UNL d   1      52.315  33.957  53.482  0.00  0.00     0.089 A 
ATOM      7  O   UNL d   1      52.458  32.141  53.124  0.00  0.00    -0.267 OA
ATOM      8  O   UNL d   1      54.667  32.984  54.828  0.00  0.00    -0.267 OA
ATOM      9  C   UNL d   1      53.946  31.585  53.991  0.00  0.00     0.105 C 
ATOM     10  C   UNL d   1      53.564  34.439  54.447  0.00  0.00     0.005 A 
ATOM     11  C   UNL d   1      52.374  34.746  53.718  0.00  0.00     0.019 A 
ATOM     12  C   UNL d   1      52.998  34.987  54.201  0.00  0.00     0.002 A 
ENDROOT
BRANCH   6  13
ATOM     13  N   UNL d   1      51.691  33.716  52.999  0.00  0.00    -0.208 NA
ATOM     14  C   UNL d   1      51.140  34.269  52.739  0.00  0.00     0.279 C 
ATOM     15  O   UNL d   1      51.205  35.060  52.956  0.00  0.00    -0.265 OA
BRANCH  14  16
ATOM     16  C   UNL d   1      50.515  34.028  52.256  0.00  0.00     0.062 C 
BRANCH  16  17
ATOM     17  C   UNL d   1      49.818  34.469  52.234  0.00  0.00     0.005 A 
ATOM     18  C   UNL d   1      49.431  34.591  51.515  0.00  0.00     0.000 A 
ATOM     19  C   UNL d   1      48.743  35.025  51.486  0.00  0.00     0.000 A 
ATOM     20  C   UNL d   1      48.430  35.346  52.183  0.00  0.00     0.000 A 
ATOM     21  C   UNL d   1      48.817  35.224  52.902  0.00  0.00     0.000 A 
ATOM     22  C   UNL d   1      49.514  34.783  52.924  0.00  0.00     0.000 A 
ENDBRANCH  16  17
ENDBRANCH  14  16
ENDBRANCH   6  13
TORSDOF 3
ENDMDL
MODEL 6
REMARK VINA RESULT:      -7.4      3.599      4.917
REMARK  3 active torsions:
REMARK  status: ('A' for Active; 'I' for Inactive)
REMARK    1  A    between atoms: N_7  and  C_6 
REMARK       I    between atoms: C_8  and  N_7 
REMARK    2  A    between atoms: C_12  and  C_8 
REMARK    3  A    between atoms: C_16  and  C_12 
ROOT
ATOM      1  C   UNL d   1      48.017  35.680  52.671  0.00  0.00     0.269 A 
ATOM      2  N   UNL d   1      47.285  35.961  52.381  0.00  0.00    -0.239 N 
ATOM      3  C   UNL d   1      48.363  35.245  52.059  0.00  0.00     0.079 A 
ATOM      4  C   UNL d   1      47.196  35.702  51.620  0.00  0.00     0.267 A 
ATOM      5  C   UNL d   1      47.855  35.259  51.409  0.00  0.00     0.063 A 
ATOM      6  C   UNL d   1      49.077  34.841  52.017  0.00  0.00     0.089 A 
ATOM      7  O   UNL d   1      48.336  35.809  53.418  0.00  0.00    -0.267 OA
ATOM      8  O   UNL d   1      46.535  35.861  51.126  0.00  0.00    -0.267 OA
ATOM      9  C   UNL d   1      46.748  36.423  52.804  0.00  0.00     0.105 C 
ATOM     10  C   UNL d   1      48.061  34.868  50.717  0.00  0.00     0.005 A 
ATOM     11  C   UNL d   1      49.285  34.447  51.322  0.00  0.00     0.019 A 
ATOM     12  C   UNL d   1      48.777  34.461  50.672  0.00  0.00     0.002 A 
ENDROOT
BRANCH   6  13
ATOM     13  N   UNL d   1      49.585  34.828  52.667  0.00  0.00    -0.208 NA
ATOM     14  C   UNL d   1      50.317  34.457  52.605  0.00  0.00     0.279 C 
ATOM     15  O   UNL d   1      50.547  34.099  51.900  0.00  0.00    -0.265 OA
BRANCH  14  16
ATOM     16  C   UNL d   1      50.825  34.444  53.255  0.00  0.00     0.062 C 
BRANCH  16  17
ATOM     17  C   UNL d   1      51.544  34.042  53.207  0.00  0.00     0.005 A 
ATOM     18  C   UNL d   1      52.242  34.461  53.069  0.00  0.00     0.000 A 
ATOM     19  C   UNL d   1      52.955  34.071  53.022  0.00  0.00     0.000 A 
ATOM     20  C   UNL d   1      52.979  33.247  53.112  0.00  0.00     0.000 A 
ATOM     21  C   UNL d   1      52.282  32.828  53.250  0.00  0.00     0.000 A 
ATOM     22  C   UNL d   1      51.562  33.230  53.297  0.00  0.00     0.000 A 
ENDBRANCH  16  17
ENDBRANCH  14  16
ENDBRANCH   6  13
TORSDOF 3
ENDMDL
MODEL 7
REMARK VINA RESULT:      -7.4      1.447      4.326
REMARK  3 active torsions:
REMARK  status: ('A' for Active; 'I' for Inactive)
REMARK    1  A    between atoms: N_7  and  C_6 
REMARK       I    between atoms: C_8  and  N_7 
REMARK    2  A    between atoms: C_12  and  C_8 
REMARK    3  A    between atoms: C_16  and  C_12 
ROOT
ATOM      1  C   UNL d   1      53.444  30.320  54.588  0.00  0.00     0.269 A 
ATOM      2  N   UNL d   1      53.254  29.509  54.522  0.00  0.00    -0.239 N 
ATOM      3  C   UNL d   1      53.271  30.665  53.857  0.00  0.00     0.079 A 
ATOM      4  C   UNL d   1      52.976  29.372  53.774  0.00  0.00     0.267 A 
ATOM      5  C   UNL d   1      52.981  30.078  53.353  0.00  0.00     0.063 A 
ATOM      6  C   UNL d   1      53.342  31.439  53.591  0.00  0.00     0.089 A 
ATOM      7  O   UNL d   1      53.744  30.706  55.249  0.00  0.00    -0.267 OA
ATOM      8  O   UNL d   1      52.723  28.628  53.478  0.00  0.00    -0.267 OA
ATOM      9  C   UNL d   1      53.338  28.947  55.120  0.00  0.00     0.105 C 
ATOM     10  C   UNL d   1      52.763  30.266  52.584  0.00  0.00     0.005 A 
ATOM     11  C   UNL d   1      53.123  31.629  52.818  0.00  0.00     0.019 A 
ATOM     12  C   UNL d   1      52.834  31.043  52.315  0.00  0.00     0.002 A 
ENDROOT
BRANCH   6  13
ATOM     13  N   UNL d   1      53.631  32.025  54.094  0.00  0.00    -0.208 NA
ATOM     14  C   UNL d   1      53.834  32.762  53.788  0.00  0.00     0.279 C 
ATOM     15  O   UNL d   1      53.750  32.919  52.984  0.00  0.00    -0.265 OA
BRANCH  14  16
ATOM     16  C   UNL d   1      54.123  33.348  54.291  0.00  0.00     0.062 C 
BRANCH  16  17
ATOM     17  C   UNL d   1      53.709  34.056  54.379  0.00  0.00     0.005 A 
ATOM     18  C   UNL d   1      53.403  34.266  55.117  0.00  0.00     0.000 A 
ATOM     19  C   UNL d   1      52.993  34.963  55.211  0.00  0.00     0.000 A 
ATOM     20  C   UNL d   1      52.884  35.466  54.560  0.00  0.00     0.000 A 
ATOM     21  C   UNL d   1      53.189  35.256  53.823  0.00  0.00     0.000 A 
ATOM     22  C   UNL d   1      53.603  34.548  53.735  0.00  0.00     0.000 A 
ENDBRANCH  16  17
ENDBRANCH  14  16
ENDBRANCH   6  13
TORSDOF 3
ENDMDL
