MODEL 1
REMARK VINA RESULT:       9.9      0.000      0.000
REMARK  5 active torsions:
REMARK  status: ('A' for Active; 'I' for Inactive)
REMARK    1  A    between atoms: C_11  and  C_1 
REMARK    2  A    between atoms: O_19  and  C_11 
REMARK    3  A    between atoms: C_16  and  N_12 
REMARK    4  A    between atoms: C_18  and  C_16 
REMARK    5  A    between atoms: C_26  and  O_19 
ROOT
ATOM      1  C   UNL d   1     -41.698-120.886 -52.542  0.00  0.00     0.088 A 
ATOM      2  C   UNL d   1     -41.602-121.657 -52.793  0.00  0.00     0.033 A 
ATOM      3  C   UNL d   1     -41.529-122.374 -52.361  0.00  0.00     0.043 A 
ATOM      4  C   UNL d   1     -41.581-121.662 -53.618  0.00  0.00     0.100 A 
ATOM      5  C   UNL d   1     -41.737-120.402 -53.226  0.00  0.00     0.105 A 
ATOM      6  O   UNL d   1     -41.664-120.892 -53.889  0.00  0.00    -0.307 OA
ATOM      7  C   UNL d   1     -41.437-123.080 -52.771  0.00  0.00     0.103 A 
ATOM      8  O   UNL d   1     -41.364-123.795 -52.354  0.00  0.00    -0.288 OA
ATOM      9  C   UNL d   1     -41.487-122.386 -54.019  0.00  0.00     0.025 A 
ATOM     10  C   UNL d   1     -41.415-123.092 -53.592  0.00  0.00     0.025 A 
ATOM     11  N   UNL d   1     -41.479-123.071 -51.126  0.00  0.00    -0.282 N 
ATOM     12  C   UNL d   1     -41.551-122.363 -51.549  0.00  0.00     0.084 A 
ATOM     13  C   UNL d   1     -41.385-123.788 -51.530  0.00  0.00     0.209 A 
ATOM     14  C   UNL d   1     -41.832-119.582 -53.233  0.00  0.00     0.027 C 
ATOM     15  C   UNL d   1     -41.466-122.390 -54.843  0.00  0.00     0.002 A 
ATOM     16  C   UNL d   1     -41.323-123.804 -53.989  0.00  0.00     0.002 A 
ATOM     17  C   UNL d   1     -41.372-123.111 -55.240  0.00  0.00     0.000 A 
ATOM     18  C   UNL d   1     -41.301-123.813 -54.816  0.00  0.00     0.000 A 
ENDROOT
BRANCH  11  19
ATOM     19  C   UNL d   1     -41.499-123.072 -50.308  0.00  0.00     0.084 C 
BRANCH  19  20
ATOM     20  C   UNL d   1     -42.187-123.318 -49.913  0.00  0.00     0.037 A 
ATOM     21  C   UNL d   1     -42.864-123.514 -50.347  0.00  0.00     0.100 A 
ATOM     22  N   UNL d   1     -43.541-123.756 -49.955  0.00  0.00    -0.242 NA
ATOM     23  C   UNL d   1     -43.553-123.806 -49.132  0.00  0.00     0.099 A 
ATOM     24  C   UNL d   1     -42.880-123.611 -48.708  0.00  0.00     0.021 A 
ATOM     25  C   UNL d   1     -42.194-123.366 -49.093  0.00  0.00     0.005 A 
ENDBRANCH  19  20
ENDBRANCH  11  19
BRANCH   1  26
ATOM     26  C   UNL d   1     -41.746-120.640 -51.762  0.00  0.00     0.302 C 
ATOM     27  O   UNL d   1     -42.396-120.822 -51.302  0.00  0.00    -0.259 OA
BRANCH  26  28
ATOM     28  O   UNL d   1     -41.126-120.196 -51.427  0.00  0.00    -0.271 OA
BRANCH  28  29
ATOM     29  C   UNL d   1     -41.304-119.610 -50.889  0.00  0.00     0.126 C 
ATOM     30  C   UNL d   1     -41.127-118.825 -51.057  0.00  0.00     0.029 C 
ENDBRANCH  28  29
ENDBRANCH  26  28
ENDBRANCH   1  26
TORSDOF 5
ENDMDL
