MODEL 1
REMARK VINA RESULT:      27.9      0.000      0.000
REMARK  5 active torsions:
REMARK  status: ('A' for Active; 'I' for Inactive)
REMARK    1  A    between atoms: C_4  and  C_1 
REMARK    2  A    between atoms: C_3  and  N_8 
REMARK       I    between atoms: N_8  and  C_4 
REMARK    3  A    between atoms: C_13  and  C_6 
REMARK    4  A    between atoms: C_14  and  C_10 
REMARK    5  A    between atoms: C_20  and  C_14 
ROOT
ATOM      1  C   UNL d   1      45.852 -16.024  43.708  0.00  0.00     0.083 A 
ATOM      2  C   UNL d   1      45.667 -16.606  43.143  0.00  0.00     0.032 A 
ATOM      3  C   UNL d   1      46.032 -17.303  43.370  0.00  0.00     0.100 A 
ATOM      4  C   UNL d   1      46.335 -16.384  44.282  0.00  0.00     0.105 A 
ATOM      5  O   UNL d   1      46.443 -17.174  44.066  0.00  0.00    -0.307 OA
ATOM      6  C   UNL d   1      46.647 -16.004  44.945  0.00  0.00     0.027 C 
ENDROOT
BRANCH   1   7
ATOM      7  C   UNL d   1      45.603 -15.236  43.705  0.00  0.00     0.283 C 
ATOM      8  N   UNL d   1      45.908 -14.708  44.248  0.00  0.00    -0.181 NA
ATOM      9  O   UNL d   1      45.047 -14.993  43.147  0.00  0.00    -0.265 OA
BRANCH   8  10
ATOM     10  C   UNL d   1      45.658 -13.922  44.242  0.00  0.00     0.216 A 
ATOM     11  N   UNL d   1      45.313 -13.537  43.611  0.00  0.00    -0.200 NA
ATOM     12  C   UNL d   1      45.152 -12.769  43.840  0.00  0.00     0.175 A 
ATOM     13  N   UNL d   1      45.402 -12.682  44.621  0.00  0.00    -0.187 NA
ATOM     14  S   UNL d   1      45.714 -13.397  44.864  0.00  0.00     0.054 SA
BRANCH  12  15
ATOM     15  C   UNL d   1      44.806 -12.189  43.381  0.00  0.00     0.082 C 
BRANCH  15  16
ATOM     16  C   UNL d   1      44.846 -12.239  42.560  0.00  0.00     0.199 C 
ATOM     17  O   UNL d   1      44.157 -12.271  42.112  0.00  0.00    -0.286 OA
ATOM     18  C   UNL d   1      45.576 -12.256  42.186  0.00  0.00     0.045 C 
ENDBRANCH  15  16
ENDBRANCH  12  15
ENDBRANCH   8  10
ENDBRANCH   1   7
BRANCH   3  19
ATOM     19  C   UNL d   1      45.993 -18.015  42.967  0.00  0.00     0.024 A 
ATOM     20  C   UNL d   1      46.338 -18.083  42.218  0.00  0.00     0.014 A 
ATOM     21  C   UNL d   1      46.296 -18.806  41.815  0.00  0.00     0.068 A 
ATOM     22 CL   UNL d   1      46.640 -18.870  41.070  0.00  0.00    -0.082 Cl
ATOM     23  C   UNL d   1      45.914 -19.455  42.153  0.00  0.00     0.068 A 
ATOM     24  C   UNL d   1      45.569 -19.390  42.898  0.00  0.00     0.012 A 
ATOM     25 CL   UNL d   1      45.878 -20.175  41.739  0.00  0.00    -0.082 Cl
ATOM     26  C   UNL d   1      45.606 -18.672  43.309  0.00  0.00     0.003 A 
ENDBRANCH   3  19
TORSDOF 5
ENDMDL
