MODEL 1
REMARK VINA RESULT:       7.4      0.000      0.000
REMARK  5 active torsions:
REMARK  status: ('A' for Active; 'I' for Inactive)
REMARK    1  A    between atoms: S_9  and  C_3 
REMARK    2  A    between atoms: C_14  and  S_9 
REMARK    3  A    between atoms: C_10  and  C_11 
REMARK    4  A    between atoms: C_12  and  C_10 
REMARK    5  A    between atoms: C_11  and  C_14 
ROOT
ATOM      1  S   UNL d   1      45.594 -16.264  44.705  0.00  0.00    -0.046 SA
ENDROOT
BRANCH   1   2
ATOM      2  C   UNL d   1      45.669 -15.442  44.673  0.00  0.00     0.220 A 
ATOM      3  N   UNL d   1      45.009 -14.960  44.798  0.00  0.00    -0.149 N 
ATOM      4  C   UNL d   1      45.075 -14.132  44.767  0.00  0.00     0.303 A 
ATOM      5  N   UNL d   1      44.273 -15.299  44.954  0.00  0.00    -0.037 N 
ATOM      6  C   UNL d   1      45.821 -13.800  44.609  0.00  0.00     0.161 A 
ATOM      7  O   UNL d   1      44.422 -13.655  44.890  0.00  0.00    -0.263 OA
ATOM      8  C   UNL d   1      45.897 -12.980  44.577  0.00  0.00     0.028 C 
ATOM      9  N   UNL d   1      46.481 -14.283  44.485  0.00  0.00    -0.141 NA
ATOM     10  N   UNL d   1      46.402 -15.101  44.518  0.00  0.00    -0.121 NA
ENDBRANCH   1   2
BRANCH   1  11
ATOM     11  C   UNL d   1      46.156 -16.743  44.345  0.00  0.00     0.038 C 
BRANCH  11  12
ATOM     12  C   UNL d   1      46.001 -17.544  44.246  0.00  0.00     0.007 C 
BRANCH  12  13
ATOM     13  C   UNL d   1      46.621 -18.086  44.200  0.00  0.00     0.001 C 
BRANCH  13  14
ATOM     14  C   UNL d   1      46.498 -18.814  43.824  0.00  0.00     0.000 A 
ATOM     15  C   UNL d   1      46.395 -19.497  44.264  0.00  0.00     0.000 A 
ATOM     16  C   UNL d   1      46.272 -20.225  43.873  0.00  0.00     0.000 A 
ATOM     17  C   UNL d   1      46.256 -20.248  43.057  0.00  0.00     0.000 A 
ATOM     18  C   UNL d   1      46.360 -19.562  42.615  0.00  0.00     0.000 A 
ATOM     19  C   UNL d   1      46.482 -18.840  42.995  0.00  0.00     0.000 A 
ENDBRANCH  13  14
ENDBRANCH  12  13
ENDBRANCH  11  12
ENDBRANCH   1  11
TORSDOF 5
ENDMDL
