MODEL 1
REMARK VINA RESULT:      -4.4      0.000      0.000
REMARK  5 active torsions:
REMARK  status: ('A' for Active; 'I' for Inactive)
REMARK    1  A    between atoms: C_2  and  S_1 
REMARK    2  A    between atoms: N_5  and  S_1 
REMARK    3  A    between atoms: O_14  and  C_4 
REMARK    4  A    between atoms: C_11  and  N_5 
REMARK    5  A    between atoms: C_15  and  C_11 
ROOT
ATOM      1  C   UNL d   1     -41.836-122.922 -50.405  0.00  0.00     0.128 A 
ATOM      2  C   UNL d   1     -41.357-123.323 -49.869  0.00  0.00     0.026 A 
ATOM      3  C   UNL d   1     -42.560-122.615 -50.159  0.00  0.00     0.106 A 
ATOM      4  C   UNL d   1     -41.602-123.416 -49.086  0.00  0.00     0.059 A 
ATOM      5  C   UNL d   1     -42.804-122.709 -49.377  0.00  0.00     0.026 A 
ATOM      6  C   UNL d   1     -42.325-123.110 -48.840  0.00  0.00     0.013 A 
ATOM      7 CL   UNL d   1     -41.123-123.817 -48.549  0.00  0.00    -0.082 Cl
ATOM      8  C   UNL d   1     -42.569-123.203 -48.057  0.00  0.00     0.001 C 
ENDROOT
BRANCH   1   9
ATOM      9  S   UNL d   1     -41.592-122.828 -51.187  0.00  0.00     0.287 S 
ATOM     10  O   UNL d   1     -41.359-122.054 -51.022  0.00  0.00    -0.198 OA
ATOM     11  O   UNL d   1     -41.824-123.603 -51.352  0.00  0.00    -0.198 OA
BRANCH   9  12
ATOM     12  N   UNL d   1     -41.347-122.735 -51.969  0.00  0.00    -0.155 NA
BRANCH  12  13
ATOM     13  C   UNL d   1     -41.387-123.369 -52.493  0.00  0.00     0.137 C 
BRANCH  13  14
ATOM     14  C   UNL d   1     -41.329-123.239 -53.306  0.00  0.00     0.120 A 
ATOM     15  O   UNL d   1     -41.466-122.525 -53.696  0.00  0.00    -0.304 OA
ATOM     16  C   UNL d   1     -41.346-122.645 -54.497  0.00  0.00     0.123 A 
ATOM     17  C   UNL d   1     -41.133-123.433 -54.617  0.00  0.00     0.029 A 
ATOM     18  C   UNL d   1     -41.124-123.797 -53.875  0.00  0.00     0.028 A 
ENDBRANCH  13  14
ENDBRANCH  12  13
ENDBRANCH   9  12
ENDBRANCH   1   9
BRANCH   3  19
ATOM     19  O   UNL d   1     -43.043-122.212 -50.696  0.00  0.00    -0.327 OA
ATOM     20  C   UNL d   1     -43.810-122.003 -50.485  0.00  0.00     0.181 C 
ENDBRANCH   3  19
TORSDOF 5
ENDMDL
MODEL 2
REMARK VINA RESULT:      -2.1      1.991      4.636
REMARK  5 active torsions:
REMARK  status: ('A' for Active; 'I' for Inactive)
REMARK    1  A    between atoms: C_2  and  S_1 
REMARK    2  A    between atoms: N_5  and  S_1 
REMARK    3  A    between atoms: O_14  and  C_4 
REMARK    4  A    between atoms: C_11  and  N_5 
REMARK    5  A    between atoms: C_15  and  C_11 
ROOT
ATOM      1  C   UNL d   1     -41.948-122.118 -53.658  0.00  0.00     0.128 A 
ATOM      2  C   UNL d   1     -42.388-121.439 -53.807  0.00  0.00     0.026 A 
ATOM      3  C   UNL d   1     -41.685-122.583 -54.285  0.00  0.00     0.106 A 
ATOM      4  C   UNL d   1     -42.564-121.223 -54.583  0.00  0.00     0.059 A 
ATOM      5  C   UNL d   1     -41.862-122.367 -55.061  0.00  0.00     0.026 A 
ATOM      6  C   UNL d   1     -42.302-121.687 -55.211  0.00  0.00     0.013 A 
ATOM      7 CL   UNL d   1     -43.004-120.543 -54.733  0.00  0.00    -0.082 Cl
ATOM      8  C   UNL d   1     -42.479-121.471 -55.987  0.00  0.00     0.001 C 
ENDROOT
BRANCH   1   9
ATOM      9  S   UNL d   1     -41.771-122.334 -52.881  0.00  0.00     0.287 S 
ATOM     10  O   UNL d   1     -42.419-122.844 -52.876  0.00  0.00    -0.198 OA
ATOM     11  O   UNL d   1     -41.123-121.823 -52.887  0.00  0.00    -0.198 OA
BRANCH   9  12
ATOM     12  N   UNL d   1     -41.595-122.549 -52.105  0.00  0.00    -0.155 NA
BRANCH  12  13
ATOM     13  C   UNL d   1     -41.992-122.193 -51.477  0.00  0.00     0.137 C 
BRANCH  13  14
ATOM     14  C   UNL d   1     -41.857-122.449 -50.704  0.00  0.00     0.120 A 
ATOM     15  O   UNL d   1     -41.126-122.652 -50.379  0.00  0.00    -0.304 OA
ATOM     16  C   UNL d   1     -41.247-122.874 -49.599  0.00  0.00     0.123 A 
ATOM     17  C   UNL d   1     -42.052-122.812 -49.429  0.00  0.00     0.029 A 
ATOM     18  C   UNL d   1     -42.425-122.549 -50.118  0.00  0.00     0.028 A 
ENDBRANCH  13  14
ENDBRANCH  12  13
ENDBRANCH   9  12
ENDBRANCH   1   9
BRANCH   3  19
ATOM     19  O   UNL d   1     -41.243-123.266 -54.137  0.00  0.00    -0.327 OA
ATOM     20  C   UNL d   1     -41.123-123.816 -54.737  0.00  0.00     0.181 C 
ENDBRANCH   3  19
TORSDOF 5
ENDMDL
