MODEL 1
REMARK VINA RESULT:     114.1      0.000      0.000
REMARK  4 active torsions:
REMARK  status: ('A' for Active; 'I' for Inactive)
REMARK    1  A    between atoms: C_4  and  N_1 
REMARK    2  A    between atoms: C_8  and  C_2 
REMARK    3  A    between atoms: C_17  and  C_6 
REMARK    4  A    between atoms: C_7  and  C_8 
ROOT
ATOM      1  N   UNL d   1      60.298  49.424  52.231  0.00  0.00    -0.255 N 
ATOM      2  C   UNL d   1      60.860  49.180  51.048  0.00  0.00     0.101 A 
ATOM      3  C   UNL d   1      61.124  49.509  52.317  0.00  0.00     0.305 A 
ATOM      4  C   UNL d   1      61.470  49.358  51.588  0.00  0.00     0.256 A 
ATOM      5  C   UNL d   1      60.149  49.224  51.453  0.00  0.00     0.075 A 
ATOM      6  O   UNL d   1      61.523  49.707  53.011  0.00  0.00    -0.263 OA
ATOM      7  O   UNL d   1      62.277  49.380  51.422  0.00  0.00    -0.281 OA
ENDROOT
BRANCH   2   8
ATOM      8  C   UNL d   1      60.959  48.995  50.249  0.00  0.00     0.223 C 
ATOM      9  O   UNL d   1      60.770  49.540  49.671  0.00  0.00    -0.284 OA
BRANCH   8  10
ATOM     10  C   UNL d   1      61.251  48.254  50.032  0.00  0.00     0.139 A 
ATOM     11  O   UNL d   1      60.835  47.540  50.066  0.00  0.00    -0.304 OA
ATOM     12  C   UNL d   1      61.337  46.947  49.798  0.00  0.00     0.100 A 
ATOM     13  C   UNL d   1      61.229  46.135  49.709  0.00  0.00     0.025 A 
ATOM     14  C   UNL d   1      62.058  47.283  49.598  0.00  0.00     0.025 A 
ATOM     15  C   UNL d   1      61.831  45.669  49.426  0.00  0.00     0.002 A 
ATOM     16  C   UNL d   1      62.559  46.012  49.224  0.00  0.00     0.000 A 
ATOM     17  C   UNL d   1      62.669  46.815  49.311  0.00  0.00     0.002 A 
ATOM     18  C   UNL d   1      62.006  48.091  49.742  0.00  0.00     0.030 A 
ENDBRANCH   8  10
ENDBRANCH   2   8
BRANCH   5  19
ATOM     19  C   UNL d   1      59.402  49.086  51.118  0.00  0.00     0.017 A 
ATOM     20  C   UNL d   1      58.978  49.708  50.785  0.00  0.00     0.001 A 
ATOM     21  C   UNL d   1      58.237  49.570  50.451  0.00  0.00     0.000 A 
ATOM     22  C   UNL d   1      57.923  48.806  50.453  0.00  0.00     0.000 A 
ATOM     23  C   UNL d   1      58.351  48.180  50.789  0.00  0.00     0.000 A 
ATOM     24  C   UNL d   1      57.178  48.664  50.119  0.00  0.00     0.000 C 
ATOM     25  C   UNL d   1      59.096  48.327  51.122  0.00  0.00     0.001 A 
ENDBRANCH   5  19
BRANCH   1  26
ATOM     26  C   UNL d   1      59.734  49.526  52.830  0.00  0.00     0.179 A 
ATOM     27  N   UNL d   1      58.930  49.627  52.715  0.00  0.00    -0.108 NA
ATOM     28  O   UNL d   1      58.579  49.708  53.462  0.00  0.00    -0.210 OA
ATOM     29  C   UNL d   1      59.170  49.657  54.030  0.00  0.00     0.128 A 
ATOM     30  C   UNL d   1      59.898  49.543  53.638  0.00  0.00     0.067 A 
ATOM     31  C   UNL d   1      59.077  49.707  54.847  0.00  0.00     0.029 C 
ENDBRANCH   1  26
TORSDOF 4
ENDMDL
