MODEL 1
REMARK VINA RESULT:      48.0      0.000      0.000
REMARK  7 active torsions:
REMARK  status: ('A' for Active; 'I' for Inactive)
REMARK    1  A    between atoms: C_11  and  C_3 
REMARK    2  A    between atoms: C_10  and  C_4 
REMARK    3  A    between atoms: O_16  and  C_10 
REMARK    4  A    between atoms: N_15  and  C_11 
REMARK    5  A    between atoms: C_21  and  N_15 
REMARK    6  A    between atoms: C_23  and  O_16 
REMARK    7  A    between atoms: C_18  and  C_21 
ROOT
ATOM      1  C   UNL d   1      14.897  14.019  -1.288  0.00  0.00     0.035 A 
ATOM      2  C   UNL d   1      15.411  14.500  -0.860  0.00  0.00     0.100 A 
ATOM      3  C   UNL d   1      14.398  14.342  -1.860  0.00  0.00     0.060 A 
ATOM      4  C   UNL d   1      15.003  13.240  -1.024  0.00  0.00     0.088 A 
ATOM      5  O   UNL d   1      15.827  14.024  -0.342  0.00  0.00    -0.307 OA
ATOM      6  C   UNL d   1      15.572  13.279  -0.453  0.00  0.00     0.105 A 
ATOM      7  C   UNL d   1      14.408  15.150  -2.011  0.00  0.00     0.197 A 
ATOM      8  C   UNL d   1      15.417  15.306  -1.015  0.00  0.00     0.026 A 
ATOM      9  C   UNL d   1      14.918  15.629  -1.587  0.00  0.00     0.041 A 
ATOM     10  O   UNL d   1      13.912  15.472  -2.579  0.00  0.00    -0.286 OA
ATOM     11  C   UNL d   1      15.859  12.606  -0.027  0.00  0.00     0.027 C 
ATOM     12  C   UNL d   1      15.934  15.792  -0.586  0.00  0.00     0.002 A 
ATOM     13  C   UNL d   1      14.931  16.442  -1.737  0.00  0.00     0.003 A 
ATOM     14  C   UNL d   1      15.441  16.921  -1.313  0.00  0.00     0.000 A 
ATOM     15  C   UNL d   1      15.940  16.597  -0.741  0.00  0.00     0.000 A 
ENDROOT
BRANCH   3  16
ATOM     16  C   UNL d   1      13.863  13.853  -2.307  0.00  0.00     0.102 C 
BRANCH  16  17
ATOM     17  N   UNL d   1      13.644  14.052  -3.088  0.00  0.00    -0.241 NA
BRANCH  17  18
ATOM     18  C   UNL d   1      13.024  13.659  -3.443  0.00  0.00     0.118 C 
BRANCH  18  19
ATOM     19  C   UNL d   1      13.183  13.079  -4.028  0.00  0.00     0.101 A 
ATOM     20  N   UNL d   1      13.748  13.213  -4.608  0.00  0.00    -0.242 NA
ATOM     21  C   UNL d   1      13.905  12.643  -5.183  0.00  0.00     0.099 A 
ATOM     22  C   UNL d   1      13.498  11.933  -5.186  0.00  0.00     0.021 A 
ATOM     23  C   UNL d   1      12.931  11.793  -4.607  0.00  0.00     0.003 A 
ATOM     24  C   UNL d   1      12.774  12.363  -4.031  0.00  0.00     0.021 A 
ENDBRANCH  18  19
ENDBRANCH  17  18
ENDBRANCH  16  17
ENDBRANCH   3  16
BRANCH   4  25
ATOM     25  C   UNL d   1      14.612  12.526  -1.280  0.00  0.00     0.302 C 
ATOM     26  O   UNL d   1      15.053  11.944  -1.661  0.00  0.00    -0.259 OA
BRANCH  25  27
ATOM     27  O   UNL d   1      13.833  12.429  -1.149  0.00  0.00    -0.271 OA
BRANCH  27  28
ATOM     28  C   UNL d   1      13.554  11.804  -0.692  0.00  0.00     0.126 C 
ATOM     29  C   UNL d   1      12.769  11.798  -0.418  0.00  0.00     0.029 C 
ENDBRANCH  27  28
ENDBRANCH  25  27
ENDBRANCH   4  25
TORSDOF 7
ENDMDL
