MODEL 1
REMARK VINA RESULT:      48.7      0.000      0.000
REMARK  3 active torsions:
REMARK  status: ('A' for Active; 'I' for Inactive)
REMARK    1  A    between atoms: C_13  and  N_2 
REMARK    2  A    between atoms: N_5  and  C_14 
REMARK    3  A    between atoms: C_14  and  C_13 
ROOT
ATOM      1  C   UNL d   1      14.540  14.273  -1.725  0.00  0.00     0.166 A 
ATOM      2  N   UNL d   1      14.269  13.508  -1.929  0.00  0.00    -0.288 N 
ATOM      3  C   UNL d   1      14.971  14.217  -1.018  0.00  0.00     0.117 A 
ATOM      4  N   UNL d   1      14.438  15.006  -2.109  0.00  0.00    -0.225 NA
ATOM      5  N   UNL d   1      15.302  14.894  -0.692  0.00  0.00    -0.241 NA
ATOM      6  C   UNL d   1      14.967  13.414  -0.783  0.00  0.00     0.037 A 
ATOM      7  C   UNL d   1      14.537  12.993  -1.344  0.00  0.00     0.067 A 
ATOM      8  C   UNL d   1      14.769  15.689  -1.785  0.00  0.00     0.101 A 
ATOM      9  C   UNL d   1      15.200  15.632  -1.077  0.00  0.00     0.099 A 
ATOM     10  C   UNL d   1      15.313  13.033  -0.113  0.00  0.00     0.003 A 
ATOM     11  C   UNL d   1      14.443  12.156  -1.242  0.00  0.00     0.018 A 
ATOM     12  C   UNL d   1      14.671  16.429  -2.165  0.00  0.00     0.021 A 
ATOM     13  C   UNL d   1      15.516  16.310  -0.775  0.00  0.00     0.021 A 
ATOM     14  C   UNL d   1      15.222  12.227  -0.017  0.00  0.00     0.000 A 
ATOM     15  C   UNL d   1      14.792  11.798  -0.577  0.00  0.00     0.002 A 
ATOM     16  C   UNL d   1      15.431  17.051  -1.135  0.00  0.00     0.002 A 
ATOM     17  C   UNL d   1      15.000  17.108  -1.843  0.00  0.00     0.002 A 
ENDROOT
BRANCH   2  18
ATOM     18  C   UNL d   1      13.867  12.965  -2.409  0.00  0.00     0.101 C 
BRANCH  18  19
ATOM     19  C   UNL d   1      13.618  13.185  -3.164  0.00  0.00     0.104 C 
BRANCH  19  20
ATOM     20  N   UNL d   1      13.279  12.619  -3.659  0.00  0.00    -0.250 N 
ATOM     21  C   UNL d   1      12.936  12.051  -3.569  0.00  0.00     0.378 A 
ATOM     22  O   UNL d   1      12.788  11.800  -4.174  0.00  0.00    -0.258 OA
ATOM     23  O   UNL d   1      12.769  11.779  -2.982  0.00  0.00    -0.237 OA
ATOM     24  C   UNL d   1      13.042  12.217  -4.636  0.00  0.00     0.121 A 
ATOM     25  C   UNL d   1      13.345  12.723  -4.317  0.00  0.00     0.092 A 
ATOM     26  C   UNL d   1      13.037  12.203  -5.309  0.00  0.00     0.026 A 
ATOM     27  C   UNL d   1      13.643  13.213  -4.662  0.00  0.00     0.020 A 
ATOM     28  C   UNL d   1      13.636  13.196  -5.336  0.00  0.00     0.002 A 
ATOM     29  C   UNL d   1      13.335  12.693  -5.654  0.00  0.00     0.002 A 
ENDBRANCH  19  20
ENDBRANCH  18  19
ENDBRANCH   2  18
TORSDOF 3
ENDMDL
MODEL 2
REMARK VINA RESULT:      48.9      1.593      4.202
REMARK  3 active torsions:
REMARK  status: ('A' for Active; 'I' for Inactive)
REMARK    1  A    between atoms: C_13  and  N_2 
REMARK    2  A    between atoms: N_5  and  C_14 
REMARK    3  A    between atoms: C_14  and  C_13 
ROOT
ATOM      1  C   UNL d   1      14.050  13.362  -2.428  0.00  0.00     0.166 A 
ATOM      2  N   UNL d   1      14.399  13.778  -1.791  0.00  0.00    -0.288 N 
ATOM      3  C   UNL d   1      14.048  12.554  -2.241  0.00  0.00     0.117 A 
ATOM      4  N   UNL d   1      13.738  13.636  -3.150  0.00  0.00    -0.225 NA
ATOM      5  N   UNL d   1      13.734  12.016  -2.775  0.00  0.00    -0.241 NA
ATOM      6  C   UNL d   1      14.398  12.468  -1.484  0.00  0.00     0.037 A 
ATOM      7  C   UNL d   1      14.607  13.219  -1.222  0.00  0.00     0.067 A 
ATOM      8  C   UNL d   1      13.421  13.099  -3.691  0.00  0.00     0.101 A 
ATOM      9  C   UNL d   1      13.420  12.290  -3.503  0.00  0.00     0.099 A 
ATOM     10  C   UNL d   1      14.542  11.780  -1.017  0.00  0.00     0.003 A 
ATOM     11  C   UNL d   1      14.976  13.298  -0.462  0.00  0.00     0.018 A 
ATOM     12  C   UNL d   1      13.105  13.367  -4.419  0.00  0.00     0.021 A 
ATOM     13  C   UNL d   1      13.106  11.780  -4.043  0.00  0.00     0.021 A 
ATOM     14  C   UNL d   1      14.898  11.857  -0.286  0.00  0.00     0.000 A 
ATOM     15  C   UNL d   1      15.111  12.608  -0.016  0.00  0.00     0.002 A 
ATOM     16  C   UNL d   1      12.789  12.024  -4.768  0.00  0.00     0.002 A 
ATOM     17  C   UNL d   1      12.790  12.833  -4.956  0.00  0.00     0.002 A 
ENDROOT
BRANCH   2  18
ATOM     18  C   UNL d   1      14.660  14.463  -1.405  0.00  0.00     0.101 C 
BRANCH  18  19
ATOM     19  C   UNL d   1      14.624  15.193  -1.787  0.00  0.00     0.104 C 
BRANCH  19  20
ATOM     20  N   UNL d   1      14.911  15.865  -1.405  0.00  0.00    -0.250 N 
ATOM     21  C   UNL d   1      15.096  16.015  -0.778  0.00  0.00     0.378 A 
ATOM     22  O   UNL d   1      15.291  16.657  -0.768  0.00  0.00    -0.258 OA
ATOM     23  O   UNL d   1      15.088  15.601  -0.255  0.00  0.00    -0.237 OA
ATOM     24  C   UNL d   1      15.225  16.901  -1.391  0.00  0.00     0.121 A 
ATOM     25  C   UNL d   1      14.990  16.412  -1.784  0.00  0.00     0.092 A 
ATOM     26  C   UNL d   1      15.349  17.509  -1.654  0.00  0.00     0.026 A 
ATOM     27  C   UNL d   1      14.878  16.521  -2.434  0.00  0.00     0.020 A 
ATOM     28  C   UNL d   1      15.003  17.131  -2.695  0.00  0.00     0.002 A 
ATOM     29  C   UNL d   1      15.237  17.619  -2.305  0.00  0.00     0.002 A 
ENDBRANCH  19  20
ENDBRANCH  18  19
ENDBRANCH   2  18
TORSDOF 3
ENDMDL
