MODEL 1
REMARK VINA RESULT:      -7.5      0.000      0.000
REMARK  5 active torsions:
REMARK  status: ('A' for Active; 'I' for Inactive)
REMARK       I    between atoms: C_8  and  N_1 
REMARK    1  A    between atoms: C_7  and  C_3 
REMARK    2  A    between atoms: S_4  and  N_9 
REMARK    3  A    between atoms: C_21  and  S_4 
REMARK    4  A    between atoms: C_11  and  C_5 
REMARK    5  A    between atoms: N_9  and  C_20 
ROOT
ATOM      1  N   UNL d   1     -49.245  12.868  23.185  0.00  0.00    -0.194 N 
ATOM      2  N   UNL d   1     -48.451  12.596  23.110  0.00  0.00    -0.163 NA
ATOM      3  C   UNL d   1     -49.276  13.638  22.954  0.00  0.00     0.093 A 
ATOM      4  C   UNL d   1     -48.002  13.222  22.828  0.00  0.00     0.103 A 
ATOM      5  C   UNL d   1     -48.504  13.880  22.725  0.00  0.00     0.041 A 
ATOM      6  C   UNL d   1     -49.880  12.422  23.449  0.00  0.00     0.281 C 
ATOM      7  O   UNL d   1     -50.628  12.758  23.495  0.00  0.00    -0.265 OA
ATOM      8  C   UNL d   1     -49.768  11.633  23.670  0.00  0.00     0.068 C 
ENDROOT
BRANCH   4   9
ATOM      9  C   UNL d   1     -47.198  13.239  22.662  0.00  0.00     0.019 A 
ATOM     10  C   UNL d   1     -46.923  12.930  21.944  0.00  0.00     0.003 A 
ATOM     11  C   UNL d   1     -46.123  12.946  21.779  0.00  0.00     0.020 A 
ATOM     12  C   UNL d   1     -45.590  13.267  22.320  0.00  0.00     0.094 A 
ATOM     13  C   UNL d   1     -45.865  13.574  23.034  0.00  0.00     0.020 A 
ATOM     14  C   UNL d   1     -46.673  13.561  23.208  0.00  0.00     0.003 A 
BRANCH  12  15
ATOM     15  N   UNL d   1     -44.774  13.288  22.161  0.00  0.00    -0.158 NA
BRANCH  15  16
ATOM     16  S   UNL d   1     -44.346  12.594  22.156  0.00  0.00     0.286 S 
ATOM     17  O   UNL d   1     -43.896  11.883  22.136  0.00  0.00    -0.198 OA
ATOM     18  O   UNL d   1     -44.721  12.351  22.855  0.00  0.00    -0.198 OA
BRANCH  16  19
ATOM     19  C   UNL d   1     -43.966  12.835  21.452  0.00  0.00     0.117 C 
ATOM     20  C   UNL d   1     -43.152  12.784  21.379  0.00  0.00     0.014 C 
ENDBRANCH  16  19
ENDBRANCH  15  16
ENDBRANCH  12  15
ENDBRANCH   4   9
BRANCH   3  21
ATOM     21  C   UNL d   1     -49.947  14.106  22.943  0.00  0.00     0.047 A 
ATOM     22  S   UNL d   1     -50.467  14.202  22.306  0.00  0.00    -0.085 SA
ATOM     23  C   UNL d   1     -51.064  14.720  22.537  0.00  0.00     0.035 A 
ATOM     24  C   UNL d   1     -50.920  14.947  23.315  0.00  0.00     0.007 A 
ATOM     25  C   UNL d   1     -50.230  14.569  23.567  0.00  0.00     0.009 A 
ENDBRANCH   3  21
TORSDOF 5
ENDMDL
MODEL 2
REMARK VINA RESULT:      -7.3      1.536      1.708
REMARK  5 active torsions:
REMARK  status: ('A' for Active; 'I' for Inactive)
REMARK       I    between atoms: C_8  and  N_1 
REMARK    1  A    between atoms: C_7  and  C_3 
REMARK    2  A    between atoms: S_4  and  N_9 
REMARK    3  A    between atoms: C_21  and  S_4 
REMARK    4  A    between atoms: C_11  and  C_5 
REMARK    5  A    between atoms: N_9  and  C_20 
ROOT
ATOM      1  N   UNL d   1     -49.620  13.286  22.441  0.00  0.00    -0.194 N 
ATOM      2  N   UNL d   1     -49.031  12.683  22.444  0.00  0.00    -0.163 NA
ATOM      3  C   UNL d   1     -49.379  13.882  22.924  0.00  0.00     0.093 A 
ATOM      4  C   UNL d   1     -48.428  12.932  22.941  0.00  0.00     0.103 A 
ATOM      5  C   UNL d   1     -48.631  13.680  23.249  0.00  0.00     0.041 A 
ATOM      6  C   UNL d   1     -50.321  13.267  22.017  0.00  0.00     0.281 C 
ATOM      7  O   UNL d   1     -50.849  13.894  22.066  0.00  0.00    -0.265 OA
ATOM      8  C   UNL d   1     -50.499  12.615  21.540  0.00  0.00     0.068 C 
ENDROOT
BRANCH   4   9
ATOM      9  C   UNL d   1     -47.729  12.542  23.129  0.00  0.00     0.019 A 
ATOM     10  C   UNL d   1     -47.009  12.947  23.073  0.00  0.00     0.003 A 
ATOM     11  C   UNL d   1     -46.314  12.559  23.260  0.00  0.00     0.020 A 
ATOM     12  C   UNL d   1     -46.326  11.772  23.504  0.00  0.00     0.094 A 
ATOM     13  C   UNL d   1     -47.043  11.371  23.560  0.00  0.00     0.020 A 
ATOM     14  C   UNL d   1     -47.751  11.756  23.372  0.00  0.00     0.003 A 
BRANCH  12  15
ATOM     15  N   UNL d   1     -45.624  11.370  23.697  0.00  0.00    -0.158 NA
BRANCH  15  16
ATOM     16  S   UNL d   1     -44.994  11.387  23.178  0.00  0.00     0.286 S 
ATOM     17  O   UNL d   1     -44.342  11.386  22.647  0.00  0.00    -0.198 OA
ATOM     18  O   UNL d   1     -45.102  12.201  23.064  0.00  0.00    -0.198 OA
BRANCH  16  19
ATOM     19  C   UNL d   1     -44.882  10.566  23.291  0.00  0.00     0.117 C 
ATOM     20  C   UNL d   1     -44.129  10.258  23.390  0.00  0.00     0.014 C 
ENDBRANCH  16  19
ENDBRANCH  15  16
ENDBRANCH  12  15
ENDBRANCH   4   9
BRANCH   3  21
ATOM     21  C   UNL d   1     -49.795  14.571  23.074  0.00  0.00     0.047 A 
ATOM     22  S   UNL d   1     -50.384  14.673  23.647  0.00  0.00    -0.085 SA
ATOM     23  C   UNL d   1     -50.652  15.451  23.605  0.00  0.00     0.035 A 
ATOM     24  C   UNL d   1     -50.233  15.835  23.008  0.00  0.00     0.007 A 
ATOM     25  C   UNL d   1     -49.704  15.293  22.679  0.00  0.00     0.009 A 
ENDBRANCH   3  21
TORSDOF 5
ENDMDL
MODEL 3
REMARK VINA RESULT:      -5.7      8.501      9.954
REMARK  5 active torsions:
REMARK  status: ('A' for Active; 'I' for Inactive)
REMARK       I    between atoms: C_8  and  N_1 
REMARK    1  A    between atoms: C_7  and  C_3 
REMARK    2  A    between atoms: S_4  and  N_9 
REMARK    3  A    between atoms: C_21  and  S_4 
REMARK    4  A    between atoms: C_11  and  C_5 
REMARK    5  A    between atoms: N_9  and  C_20 
ROOT
ATOM      1  N   UNL d   1     -40.108  15.417  17.567  0.00  0.00    -0.194 N 
ATOM      2  N   UNL d   1     -40.376  15.514  18.360  0.00  0.00    -0.163 NA
ATOM      3  C   UNL d   1     -39.350  15.149  17.583  0.00  0.00     0.093 A 
ATOM      4  C   UNL d   1     -39.759  15.297  18.856  0.00  0.00     0.103 A 
ATOM      5  C   UNL d   1     -39.111  15.067  18.384  0.00  0.00     0.041 A 
ATOM      6  C   UNL d   1     -40.548  15.571  16.893  0.00  0.00     0.281 C 
ATOM      7  O   UNL d   1     -40.218  15.453  16.150  0.00  0.00    -0.265 OA
ATOM      8  C   UNL d   1     -41.325  15.846  16.959  0.00  0.00     0.068 C 
ENDROOT
BRANCH   4   9
ATOM      9  C   UNL d   1     -39.742  15.293  19.677  0.00  0.00     0.019 A 
ATOM     10  C   UNL d   1     -39.378  15.918  20.080  0.00  0.00     0.003 A 
ATOM     11  C   UNL d   1     -39.361  15.915  20.897  0.00  0.00     0.020 A 
ATOM     12  C   UNL d   1     -39.702  15.295  21.321  0.00  0.00     0.094 A 
ATOM     13  C   UNL d   1     -40.064  14.674  20.918  0.00  0.00     0.020 A 
ATOM     14  C   UNL d   1     -40.085  14.670  20.092  0.00  0.00     0.003 A 
BRANCH  12  15
ATOM     15  N   UNL d   1     -39.690  15.283  22.152  0.00  0.00    -0.158 NA
BRANCH  15  16
ATOM     16  S   UNL d   1     -38.996  15.104  22.542  0.00  0.00     0.286 S 
ATOM     17  O   UNL d   1     -38.282  14.936  22.954  0.00  0.00    -0.198 OA
ATOM     18  O   UNL d   1     -38.943  14.385  22.131  0.00  0.00    -0.198 OA
BRANCH  16  19
ATOM     19  C   UNL d   1     -39.046  15.827  22.959  0.00  0.00     0.117 C 
ATOM     20  C   UNL d   1     -38.697  15.909  23.695  0.00  0.00     0.014 C 
ENDBRANCH  16  19
ENDBRANCH  15  16
ENDBRANCH  12  15
ENDBRANCH   4   9
BRANCH   3  21
ATOM     21  C   UNL d   1     -38.889  14.985  16.926  0.00  0.00     0.047 A 
ATOM     22  S   UNL d   1     -38.384  15.514  16.538  0.00  0.00    -0.085 SA
ATOM     23  C   UNL d   1     -38.031  15.117  15.908  0.00  0.00     0.035 A 
ATOM     24  C   UNL d   1     -38.314  14.344  15.902  0.00  0.00     0.007 A 
ATOM     25  C   UNL d   1     -38.844  14.260  16.530  0.00  0.00     0.009 A 
ENDBRANCH   3  21
TORSDOF 5
ENDMDL
