MODEL 1
REMARK VINA RESULT:     120.4      0.000      0.000
REMARK  9 active torsions:
REMARK  status: ('A' for Active; 'I' for Inactive)
REMARK    1  A    between atoms: C_17  and  N_1 
REMARK    2  A    between atoms: S_10  and  C_2 
REMARK    3  A    between atoms: N_8  and  C_9 
REMARK    4  A    between atoms: C_19  and  S_10 
REMARK    5  A    between atoms: C_11  and  C_19 
REMARK       I    between atoms: N_13  and  C_11 
REMARK    6  A    between atoms: C_20  and  N_13 
REMARK    7  A    between atoms: C_28  and  C_17 
REMARK    8  A    between atoms: C_23  and  C_20 
REMARK    9  A    between atoms: C_29  and  C_28 
ROOT
ATOM      1  N   UNL d   1      61.287  46.695  50.331  0.00  0.00    -0.253 N 
ATOM      2  C   UNL d   1      60.873  46.910  51.012  0.00  0.00     0.182 A 
ATOM      3  C   UNL d   1      61.595  45.927  50.261  0.00  0.00     0.268 A 
ATOM      4  C   UNL d   1      61.487  45.381  50.868  0.00  0.00     0.076 A 
ATOM      5  N   UNL d   1      60.767  46.357  51.622  0.00  0.00    -0.222 NA
ATOM      6  C   UNL d   1      61.073  45.596  51.549  0.00  0.00     0.088 A 
ATOM      7  C   UNL d   1      61.793  44.620  50.794  0.00  0.00     0.024 A 
ATOM      8  C   UNL d   1      61.686  44.074  51.402  0.00  0.00     0.065 A 
ATOM      9  O   UNL d   1      62.008  45.712  49.580  0.00  0.00    -0.267 OA
ATOM     10  C   UNL d   1      60.966  45.051  52.156  0.00  0.00     0.021 A 
ATOM     11  C   UNL d   1      61.272  44.290  52.083  0.00  0.00     0.019 A 
ENDROOT
BRANCH   2  12
ATOM     12  S   UNL d   1      60.565  47.675  51.087  0.00  0.00    -0.044 SA
BRANCH  12  13
ATOM     13  C   UNL d   1      59.743  47.790  51.166  0.00  0.00     0.101 C 
BRANCH  13  14
ATOM     14  C   UNL d   1      59.423  48.550  51.081  0.00  0.00     0.286 C 
ATOM     15  N   UNL d   1      58.791  48.672  50.557  0.00  0.00    -0.206 NA
ATOM     16  O   UNL d   1      59.736  49.176  51.518  0.00  0.00    -0.265 OA
BRANCH  15  17
ATOM     17  C   UNL d   1      58.471  49.436  50.472  0.00  0.00     0.102 C 
BRANCH  17  18
ATOM     18  C   UNL d   1      57.659  49.526  50.319  0.00  0.00     0.019 A 
ATOM     19  C   UNL d   1      57.119  49.526  50.942  0.00  0.00     0.002 A 
ATOM     20  C   UNL d   1      56.313  49.614  50.795  0.00  0.00     0.000 A 
ATOM     21  C   UNL d   1      56.044  49.706  50.004  0.00  0.00     0.000 A 
ATOM     22  C   UNL d   1      56.585  49.706  49.382  0.00  0.00     0.000 A 
ATOM     23  C   UNL d   1      57.396  49.617  49.533  0.00  0.00     0.002 A 
ENDBRANCH  17  18
ENDBRANCH  15  17
ENDBRANCH  13  14
ENDBRANCH  12  13
ENDBRANCH   2  12
BRANCH   1  24
ATOM     24  C   UNL d   1      61.394  47.244  49.722  0.00  0.00     0.085 C 
BRANCH  24  25
ATOM     25  C   UNL d   1      61.944  47.853  49.808  0.00  0.00     0.019 C 
BRANCH  25  26
ATOM     26  C   UNL d   1      61.721  48.635  49.642  0.00  0.00     0.002 C 
ATOM     27  C   UNL d   1      62.294  49.228  49.602  0.00  0.00     0.000 C 
ENDBRANCH  25  26
ENDBRANCH  24  25
ENDBRANCH   1  24
BRANCH   8  28
ATOM     28  N   UNL d   1      61.992  43.314  51.328  0.00  0.00    -0.300 N 
ATOM     29  C   UNL d   1      62.741  43.204  51.003  0.00  0.00     0.107 A 
ATOM     30  C   UNL d   1      63.057  42.436  50.925  0.00  0.00     0.142 A 
ATOM     31  O   UNL d   1      62.611  41.779  51.178  0.00  0.00    -0.300 OA
ATOM     32  C   UNL d   1      61.853  41.896  51.506  0.00  0.00     0.142 A 
ATOM     33  C   UNL d   1      61.546  42.657  51.581  0.00  0.00     0.107 A 
ENDBRANCH   8  28
TORSDOF 9
ENDMDL
