MODEL 1
REMARK VINA RESULT:       3.0      0.000      0.000
REMARK  9 active torsions:
REMARK  status: ('A' for Active; 'I' for Inactive)
REMARK    1  A    between atoms: C_2  and  N_1 
REMARK    2  A    between atoms: C_6  and  C_2 
REMARK    3  A    between atoms: C_8  and  C_2 
REMARK    4  A    between atoms: C_10  and  N_3 
REMARK       I    between atoms: C_4  and  N_7 
REMARK    5  A    between atoms: C_5  and  C_4 
REMARK       I    between atoms: N_9  and  C_5 
REMARK    6  A    between atoms: N_7  and  C_8 
REMARK    7  A    between atoms: C_24  and  N_9 
REMARK    8  A    between atoms: C_26  and  C_24 
REMARK    9  A    between atoms: O_29  and  C_25 
ROOT
ATOM      1  C   UNL d   1      58.175   0.424  32.221  0.00  0.00     0.106 C 
ENDROOT
BRANCH   1   2
ATOM      2  N   UNL d   1      57.450   0.460  32.629  0.00  0.00    -0.298 N 
ATOM      3  C   UNL d   1      57.425   0.320  33.434  0.00  0.00     0.100 A 
ATOM      4  C   UNL d   1      56.700   0.356  33.842  0.00  0.00     0.100 A 
ATOM      5  N   UNL d   1      56.007   0.532  33.429  0.00  0.00    -0.301 N 
ATOM      6  C   UNL d   1      56.045   0.671  32.611  0.00  0.00     0.100 A 
ATOM      7  C   UNL d   1      56.757   0.636  32.216  0.00  0.00     0.100 A 
BRANCH   5   8
ATOM      8  C   UNL d   1      55.299   0.568  33.816  0.00  0.00     0.064 A 
ATOM      9  C   UNL d   1      54.589   0.614  33.387  0.00  0.00     0.020 A 
ATOM     10  C   UNL d   1      53.864   0.652  33.773  0.00  0.00     0.026 A 
ATOM     11  C   UNL d   1      53.839   0.643  34.598  0.00  0.00     0.094 A 
ATOM     12  C   UNL d   1      54.548   0.597  35.032  0.00  0.00     0.026 A 
ATOM     13  C   UNL d   1      55.274   0.560  34.641  0.00  0.00     0.020 A 
BRANCH  11  14
ATOM     14  O   UNL d   1      53.109   0.681  34.989  0.00  0.00    -0.328 OA
ATOM     15  C   UNL d   1      52.491   0.182  34.763  0.00  0.00     0.181 C 
ENDBRANCH  11  14
ENDBRANCH   5   8
ENDBRANCH   1   2
BRANCH   1  16
ATOM     16  C   UNL d   1      58.890   0.505  32.653  0.00  0.00     0.118 A 
ATOM     17  O   UNL d   1      59.053   0.500  33.465  0.00  0.00    -0.304 OA
ATOM     18  C   UNL d   1      59.872   0.606  33.551  0.00  0.00     0.123 A 
ATOM     19  C   UNL d   1      60.206   0.675  32.810  0.00  0.00     0.029 A 
ATOM     20  C   UNL d   1      59.597   0.613  32.250  0.00  0.00     0.028 A 
ENDBRANCH   1  16
BRANCH   1  21
ATOM     21  C   UNL d   1      58.204   0.312  31.406  0.00  0.00     0.122 C 
BRANCH  21  22
ATOM     22  N   UNL d   1      58.261  -0.466  31.097  0.00  0.00    -0.201 NA
ATOM     23  C   UNL d   1      58.131  -0.606  30.297  0.00  0.00     0.337 C 
ATOM     24  O   UNL d   1      57.944   0.011  29.797  0.00  0.00    -0.260 OA
BRANCH  23  25
ATOM     25  C   UNL d   1      58.191  -1.372  30.011  0.00  0.00     0.337 C 
ATOM     26  N   UNL d   1      58.782  -1.556  29.465  0.00  0.00    -0.200 NA
ATOM     27  O   UNL d   1      57.674  -1.955  30.259  0.00  0.00    -0.260 OA
BRANCH  26  28
ATOM     28  C   UNL d   1      58.850  -2.324  29.173  0.00  0.00     0.127 C 
BRANCH  28  29
ATOM     29  C   UNL d   1      59.581  -2.707  29.185  0.00  0.00     0.119 A 
ATOM     30  O   UNL d   1      60.334  -2.450  29.402  0.00  0.00    -0.304 OA
ATOM     31  C   UNL d   1      60.853  -3.087  29.297  0.00  0.00     0.123 A 
ATOM     32  C   UNL d   1      60.425  -3.726  29.020  0.00  0.00     0.029 A 
ATOM     33  C   UNL d   1      59.637  -3.496  28.950  0.00  0.00     0.028 A 
ENDBRANCH  28  29
ENDBRANCH  26  28
ENDBRANCH  23  25
ENDBRANCH  21  22
ENDBRANCH   1  21
TORSDOF 9
ENDMDL
MODEL 2
REMARK VINA RESULT:       5.1      0.883      1.032
REMARK  9 active torsions:
REMARK  status: ('A' for Active; 'I' for Inactive)
REMARK    1  A    between atoms: C_2  and  N_1 
REMARK    2  A    between atoms: C_6  and  C_2 
REMARK    3  A    between atoms: C_8  and  C_2 
REMARK    4  A    between atoms: C_10  and  N_3 
REMARK       I    between atoms: C_4  and  N_7 
REMARK    5  A    between atoms: C_5  and  C_4 
REMARK       I    between atoms: N_9  and  C_5 
REMARK    6  A    between atoms: N_7  and  C_8 
REMARK    7  A    between atoms: C_24  and  N_9 
REMARK    8  A    between atoms: C_26  and  C_24 
REMARK    9  A    between atoms: O_29  and  C_25 
ROOT
ATOM      1  C   UNL d   1      57.883   0.009  31.315  0.00  0.00     0.106 C 
ENDROOT
BRANCH   1   2
ATOM      2  N   UNL d   1      57.251  -0.003  31.857  0.00  0.00    -0.298 N 
ATOM      3  C   UNL d   1      57.077  -0.689  32.268  0.00  0.00     0.100 A 
ATOM      4  C   UNL d   1      56.445  -0.701  32.810  0.00  0.00     0.100 A 
ATOM      5  N   UNL d   1      55.997  -0.019  32.931  0.00  0.00    -0.301 N 
ATOM      6  C   UNL d   1      56.184   0.672  32.509  0.00  0.00     0.100 A 
ATOM      7  C   UNL d   1      56.803   0.679  31.978  0.00  0.00     0.100 A 
BRANCH   5   8
ATOM      8  C   UNL d   1      55.383  -0.022  33.455  0.00  0.00     0.064 A 
ATOM      9  C   UNL d   1      54.984  -0.730  33.629  0.00  0.00     0.020 A 
ATOM     10  C   UNL d   1      54.357  -0.742  34.162  0.00  0.00     0.026 A 
ATOM     11  C   UNL d   1      54.119  -0.043  34.530  0.00  0.00     0.094 A 
ATOM     12  C   UNL d   1      54.517   0.670  34.358  0.00  0.00     0.026 A 
ATOM     13  C   UNL d   1      55.145   0.677  33.823  0.00  0.00     0.020 A 
BRANCH  11  14
ATOM     14  O   UNL d   1      53.488  -0.053  35.067  0.00  0.00    -0.328 OA
ATOM     15  C   UNL d   1      52.777   0.322  34.877  0.00  0.00     0.181 C 
ENDBRANCH  11  14
ENDBRANCH   5   8
ENDBRANCH   1   2
BRANCH   1  16
ATOM     16  C   UNL d   1      58.660   0.150  31.598  0.00  0.00     0.118 A 
ATOM     17  O   UNL d   1      59.407   0.006  31.270  0.00  0.00    -0.304 OA
ATOM     18  C   UNL d   1      59.971   0.269  31.820  0.00  0.00     0.123 A 
ATOM     19  C   UNL d   1      59.582   0.567  32.471  0.00  0.00     0.029 A 
ATOM     20  C   UNL d   1      58.767   0.495  32.336  0.00  0.00     0.028 A 
ENDBRANCH   1  16
BRANCH   1  21
ATOM     21  C   UNL d   1      57.760  -0.113  30.510  0.00  0.00     0.122 C 
BRANCH  21  22
ATOM     22  N   UNL d   1      57.979  -0.845  30.165  0.00  0.00    -0.201 NA
ATOM     23  C   UNL d   1      57.914  -0.958  29.352  0.00  0.00     0.337 C 
ATOM     24  O   UNL d   1      57.636  -0.357  28.875  0.00  0.00    -0.260 OA
BRANCH  23  25
ATOM     25  C   UNL d   1      58.132  -1.680  29.031  0.00  0.00     0.337 C 
ATOM     26  N   UNL d   1      58.911  -1.793  28.780  0.00  0.00    -0.200 NA
ATOM     27  O   UNL d   1      57.590  -2.288  28.956  0.00  0.00    -0.260 OA
BRANCH  26  28
ATOM     28  C   UNL d   1      59.139  -2.516  28.456  0.00  0.00     0.127 C 
BRANCH  28  29
ATOM     29  C   UNL d   1      59.837  -2.878  28.705  0.00  0.00     0.119 A 
ATOM     30  O   UNL d   1      60.617  -2.611  28.733  0.00  0.00    -0.304 OA
ATOM     31  C   UNL d   1      61.080  -3.226  29.038  0.00  0.00     0.123 A 
ATOM     32  C   UNL d   1      60.591  -3.862  29.196  0.00  0.00     0.029 A 
ATOM     33  C   UNL d   1      59.821  -3.651  28.992  0.00  0.00     0.028 A 
ENDBRANCH  28  29
ENDBRANCH  26  28
ENDBRANCH  23  25
ENDBRANCH  21  22
ENDBRANCH   1  21
TORSDOF 9
ENDMDL
