MODEL 1
REMARK VINA RESULT:      14.2      0.000      0.000
REMARK  4 active torsions:
REMARK  status: ('A' for Active; 'I' for Inactive)
REMARK       I    between atoms: C_5  and  N_1 
REMARK    1  A    between atoms: N_3  and  C_8 
REMARK    2  A    between atoms: C_7  and  C_5 
REMARK    3  A    between atoms: C_11  and  C_7 
REMARK    4  A    between atoms: C_15  and  C_11 
ROOT
ATOM      1  N   UNL d   1      45.765 -14.889  44.500  0.00  0.00    -0.256 N 
ATOM      2  C   UNL d   1      46.511 -14.815  44.861  0.00  0.00     0.185 A 
ATOM      3  N   UNL d   1      46.639 -14.018  44.943  0.00  0.00    -0.224 NA
ATOM      4  C   UNL d   1      45.380 -15.605  44.296  0.00  0.00     0.266 C 
ATOM      5  C   UNL d   1      45.472 -14.135  44.378  0.00  0.00     0.086 A 
ATOM      6  C   UNL d   1      46.009 -13.592  44.651  0.00  0.00     0.099 A 
ATOM      7  O   UNL d   1      44.625 -15.603  43.933  0.00  0.00    -0.267 OA
ATOM      8  C   UNL d   1      44.756 -13.881  44.040  0.00  0.00     0.019 A 
ATOM      9  C   UNL d   1      45.856 -12.792  44.597  0.00  0.00     0.021 A 
ATOM     10  C   UNL d   1      44.584 -13.067  43.977  0.00  0.00     0.002 A 
ATOM     11  C   UNL d   1      45.151 -12.497  44.265  0.00  0.00     0.002 A 
ENDROOT
BRANCH   4  12
ATOM     12  C   UNL d   1      45.741 -16.325  44.452  0.00  0.00     0.061 C 
BRANCH  12  13
ATOM     13  C   UNL d   1      45.341 -17.025  44.281  0.00  0.00     0.005 C 
BRANCH  13  14
ATOM     14  C   UNL d   1      45.774 -17.714  44.150  0.00  0.00     0.002 A 
ATOM     15  C   UNL d   1      45.910 -17.970  43.363  0.00  0.00     0.024 A 
ATOM     16  C   UNL d   1      46.337 -18.649  43.228  0.00  0.00     0.127 A 
ATOM     17  C   UNL d   1      46.638 -19.087  43.865  0.00  0.00     0.024 A 
ATOM     18  C   UNL d   1      46.502 -18.831  44.637  0.00  0.00     0.002 A 
ATOM     19  C   UNL d   1      46.069 -18.142  44.788  0.00  0.00     0.000 A 
BRANCH  16  20
ATOM     20  N   UNL d   1      46.489 -18.930  42.470  0.00  0.00    -0.114 N 
ATOM     21  O   UNL d   1      46.647 -18.389  41.853  0.00  0.00    -0.532 OA
ATOM     22  O   UNL d   1      46.485 -19.729  42.319  0.00  0.00    -0.532 OA
ENDBRANCH  16  20
ENDBRANCH  13  14
ENDBRANCH  12  13
ENDBRANCH   4  12
TORSDOF 4
ENDMDL
