MODEL 1
REMARK VINA RESULT:     124.0      0.000      0.000
REMARK  10 active torsions:
REMARK  status: ('A' for Active; 'I' for Inactive)
REMARK    1  A    between atoms: C_5  and  C_1 
REMARK    2  A    between atoms: C_10  and  C_2 
REMARK    3  A    between atoms: S_11  and  C_3 
REMARK    4  A    between atoms: C_9  and  C_4 
REMARK       I    between atoms: N_8  and  C_5 
REMARK    5  A    between atoms: C_15  and  N_8 
REMARK    6  A    between atoms: C_26  and  S_11 
REMARK    7  A    between atoms: C_13  and  C_18 
REMARK    8  A    between atoms: C_16  and  C_26 
REMARK       I    between atoms: N_19  and  C_16 
REMARK    9  A    between atoms: C_29  and  N_19 
REMARK   10  A    between atoms: O_34  and  C_23 
ROOT
ATOM      1  C   UNL d   1     -55.219-100.524 -43.566  0.00  0.00     0.076 A 
ATOM      2  C   UNL d   1     -55.089-101.662 -42.748  0.00  0.00     0.045 A 
ATOM      3  C   UNL d   1     -54.917-101.162 -42.086  0.00  0.00     0.112 A 
ATOM      4  C   UNL d   1     -55.236-101.340 -43.470  0.00  0.00     0.016 A 
ATOM      5  C   UNL d   1     -55.049-100.031 -42.913  0.00  0.00     0.087 A 
ATOM      6  N   UNL d   1     -54.899-100.364 -42.176  0.00  0.00    -0.239 NA
ATOM      7  C   UNL d   1     -55.029 -99.207 -42.995  0.00  0.00     0.021 C 
ENDROOT
BRANCH   3   8
ATOM      8  S   UNL d   1     -54.756-101.456 -41.307  0.00  0.00    -0.062 SA
BRANCH   8   9
ATOM      9  C   UNL d   1     -55.132-102.142 -41.026  0.00  0.00     0.099 C 
BRANCH   9  10
ATOM     10  C   UNL d   1     -55.542-102.119 -40.309  0.00  0.00     0.286 C 
ATOM     11  N   UNL d   1     -55.175-102.360 -39.614  0.00  0.00    -0.208 NA
ATOM     12  O   UNL d   1     -56.316-101.855 -40.294  0.00  0.00    -0.265 OA
BRANCH  11  13
ATOM     13  C   UNL d   1     -55.596-102.332 -38.902  0.00  0.00     0.085 A 
ATOM     14  C   UNL d   1     -55.192-102.350 -38.191  0.00  0.00     0.019 A 
ATOM     15  C   UNL d   1     -55.607-102.322 -37.482  0.00  0.00     0.008 A 
ATOM     16  C   UNL d   1     -56.439-102.276 -37.497  0.00  0.00     0.065 A 
ATOM     17  C   UNL d   1     -56.842-102.258 -38.208  0.00  0.00     0.008 A 
ATOM     18  C   UNL d   1     -56.421-102.286 -38.920  0.00  0.00     0.019 A 
BRANCH  16  19
ATOM     19  C   UNL d   1     -56.870-102.248 -36.780  0.00  0.00     0.211 C 
ATOM     20  O   UNL d   1     -56.511-102.485 -36.068  0.00  0.00    -0.644 OA
ATOM     21  O   UNL d   1     -57.644-101.985 -36.789  0.00  0.00    -0.644 OA
ENDBRANCH  16  19
ENDBRANCH  11  13
ENDBRANCH   9  10
ENDBRANCH   8   9
ENDBRANCH   3   8
BRANCH   2  22
ATOM     22  C   UNL d   1     -55.115-102.503 -42.687  0.00  0.00     0.124 C 
ATOM     23  N   UNL d   1     -55.710-102.871 -42.224  0.00  0.00    -0.146 N 
ENDBRANCH   2  22
BRANCH   4  24
ATOM     24  C   UNL d   1     -55.403-101.823 -44.111  0.00  0.00     0.030 A 
ATOM     25  S   UNL d   1     -55.237-101.762 -44.904  0.00  0.00    -0.086 SA
ATOM     26  C   UNL d   1     -55.542-102.410 -45.267  0.00  0.00     0.035 A 
ATOM     27  C   UNL d   1     -55.893-102.873 -44.722  0.00  0.00     0.007 A 
ATOM     28  C   UNL d   1     -55.816-102.524 -43.999  0.00  0.00     0.007 A 
ENDBRANCH   4  24
BRANCH   1  29
ATOM     29  C   UNL d   1     -55.371-100.199 -44.310  0.00  0.00     0.281 C 
ATOM     30  N   UNL d   1     -56.047 -99.729 -44.420  0.00  0.00    -0.206 NA
ATOM     31  O   UNL d   1     -54.859-100.338 -44.931  0.00  0.00    -0.265 OA
BRANCH  30  32
ATOM     32  C   UNL d   1     -56.194 -99.406 -45.164  0.00  0.00     0.107 A 
ATOM     33  C   UNL d   1     -56.940 -99.152 -45.351  0.00  0.00     0.112 A 
ATOM     34  C   UNL d   1     -57.083 -98.829 -46.099  0.00  0.00     0.026 A 
ATOM     35  C   UNL d   1     -56.486 -98.765 -46.641  0.00  0.00     0.002 A 
ATOM     36  C   UNL d   1     -55.722 -99.022 -46.456  0.00  0.00     0.002 A 
ATOM     37  C   UNL d   1     -55.578 -99.345 -45.709  0.00  0.00     0.021 A 
BRANCH  33  38
ATOM     38  O   UNL d   1     -57.549 -99.217 -44.799  0.00  0.00    -0.327 OA
ATOM     39  C   UNL d   1     -58.335 -99.139 -45.035  0.00  0.00     0.181 C 
ENDBRANCH  33  38
ENDBRANCH  30  32
ENDBRANCH   1  29
TORSDOF 10
ENDMDL
