MODEL 1
REMARK VINA RESULT:      -4.7      0.000      0.000
REMARK  4 active torsions:
REMARK  status: ('A' for Active; 'I' for Inactive)
REMARK    1  A    between atoms: C_9  and  N_2 
REMARK    2  A    between atoms: C_7  and  O_10 
REMARK    3  A    between atoms: C_11  and  C_9 
REMARK    4  A    between atoms: O_10  and  C_11 
ROOT
ATOM      1  C   UNL d   1     -41.214-121.896 -52.249  0.00  0.00     0.296 A 
ATOM      2  N   UNL d   1     -41.214-122.718 -52.253  0.00  0.00    -0.266 N 
ATOM      3  S   UNL d   1     -41.324-121.638 -53.038  0.00  0.00    -0.025 SA
ATOM      4  C   UNL d   1     -41.323-122.972 -53.035  0.00  0.00     0.074 A 
ATOM      5  C   UNL d   1     -41.390-122.311 -53.516  0.00  0.00     0.050 A 
ATOM      6  O   UNL d   1     -41.124-121.410 -51.593  0.00  0.00    -0.259 OA
ATOM      7  C   UNL d   1     -41.368-123.732 -53.360  0.00  0.00     0.018 A 
ATOM      8  C   UNL d   1     -41.504-122.393 -54.334  0.00  0.00     0.008 A 
ATOM      9  C   UNL d   1     -41.481-123.817 -54.176  0.00  0.00     0.002 A 
ATOM     10  C   UNL d   1     -41.549-123.155 -54.657  0.00  0.00     0.001 A 
ENDROOT
BRANCH   2  11
ATOM     11  C   UNL d   1     -41.123-123.206 -51.595  0.00  0.00     0.110 C 
BRANCH  11  12
ATOM     12  C   UNL d   1     -41.495-123.021 -50.885  0.00  0.00     0.142 C 
BRANCH  12  13
ATOM     13  O   UNL d   1     -41.881-123.604 -50.441  0.00  0.00    -0.304 OA
BRANCH  13  14
ATOM     14  C   UNL d   1     -41.907-123.553 -49.619  0.00  0.00     0.100 A 
ATOM     15  C   UNL d   1     -42.634-123.581 -49.227  0.00  0.00     0.023 A 
ATOM     16  C   UNL d   1     -43.334-123.660 -49.660  0.00  0.00     0.002 C 
ATOM     17  C   UNL d   1     -42.658-123.529 -48.409  0.00  0.00     0.002 A 
ATOM     18  C   UNL d   1     -41.957-123.450 -47.982  0.00  0.00     0.000 A 
ATOM     19  C   UNL d   1     -41.231-123.422 -48.378  0.00  0.00     0.002 A 
ATOM     20  C   UNL d   1     -41.214-123.474 -49.198  0.00  0.00     0.025 A 
ENDBRANCH  13  14
ENDBRANCH  12  13
ENDBRANCH  11  12
ENDBRANCH   2  11
TORSDOF 4
ENDMDL
MODEL 2
REMARK VINA RESULT:      -2.9      1.357      4.478
REMARK  4 active torsions:
REMARK  status: ('A' for Active; 'I' for Inactive)
REMARK    1  A    between atoms: C_9  and  N_2 
REMARK    2  A    between atoms: C_7  and  O_10 
REMARK    3  A    between atoms: C_11  and  C_9 
REMARK    4  A    between atoms: O_10  and  C_11 
ROOT
ATOM      1  C   UNL d   1     -41.461-121.280 -51.374  0.00  0.00     0.296 A 
ATOM      2  N   UNL d   1     -41.396-122.031 -51.701  0.00  0.00    -0.266 N 
ATOM      3  S   UNL d   1     -41.762-121.366 -50.597  0.00  0.00    -0.025 SA
ATOM      4  C   UNL d   1     -41.654-122.582 -51.137  0.00  0.00     0.074 A 
ATOM      5  C   UNL d   1     -41.878-122.175 -50.460  0.00  0.00     0.050 A 
ATOM      6  O   UNL d   1     -41.267-120.569 -51.737  0.00  0.00    -0.259 OA
ATOM      7  C   UNL d   1     -41.708-123.407 -51.166  0.00  0.00     0.018 A 
ATOM      8  C   UNL d   1     -42.162-122.583 -49.797  0.00  0.00     0.008 A 
ATOM      9  C   UNL d   1     -41.991-123.817 -50.506  0.00  0.00     0.002 A 
ATOM     10  C   UNL d   1     -42.215-123.410 -49.829  0.00  0.00     0.001 A 
ENDROOT
BRANCH   2  11
ATOM     11  C   UNL d   1     -41.123-122.207 -52.459  0.00  0.00     0.110 C 
BRANCH  11  12
ATOM     12  C   UNL d   1     -41.636-122.181 -53.102  0.00  0.00     0.142 C 
BRANCH  12  13
ATOM     13  O   UNL d   1     -41.347-122.191 -53.878  0.00  0.00    -0.304 OA
BRANCH  13  14
ATOM     14  C   UNL d   1     -41.837-122.416 -54.502  0.00  0.00     0.100 A 
ATOM     15  C   UNL d   1     -42.088-121.853 -55.052  0.00  0.00     0.023 A 
ATOM     16  C   UNL d   1     -41.848-121.066 -54.977  0.00  0.00     0.002 C 
ATOM     17  C   UNL d   1     -42.576-122.078 -55.672  0.00  0.00     0.002 A 
ATOM     18  C   UNL d   1     -42.813-122.865 -55.743  0.00  0.00     0.000 A 
ATOM     19  C   UNL d   1     -42.558-123.426 -55.189  0.00  0.00     0.002 A 
ATOM     20  C   UNL d   1     -42.070-123.193 -54.571  0.00  0.00     0.025 A 
ENDBRANCH  13  14
ENDBRANCH  12  13
ENDBRANCH  11  12
ENDBRANCH   2  11
TORSDOF 4
ENDMDL
