MODEL 1
REMARK VINA RESULT:      -8.7      0.000      0.000
REMARK  4 active torsions:
REMARK  status: ('A' for Active; 'I' for Inactive)
REMARK    1  A    between atoms: N_2  and  S_1 
REMARK    2  A    between atoms: C_3  and  S_1 
REMARK    3  A    between atoms: O_15  and  C_7 
REMARK    4  A    between atoms: C_18  and  O_15 
ROOT
ATOM      1  C   UNL d   1      53.437  31.794  53.643  0.00  0.00     0.106 A 
ATOM      2  C   UNL d   1      53.628  31.045  53.929  0.00  0.00     0.040 A 
ATOM      3  C   UNL d   1      53.358  30.376  53.541  0.00  0.00     0.128 A 
ATOM      4  C   UNL d   1      52.894  30.452  52.863  0.00  0.00     0.163 A 
ATOM      5  C   UNL d   1      52.973  31.870  52.965  0.00  0.00     0.015 A 
ATOM      6  C   UNL d   1      52.703  31.202  52.577  0.00  0.00     0.032 A 
ATOM      7  F   UNL d   1      52.621  29.777  52.471  0.00  0.00    -0.202 F 
ENDROOT
BRANCH   1   8
ATOM      8  S   UNL d   1      53.711  32.469  54.035  0.00  0.00     0.272 S 
ATOM      9  O   UNL d   1      52.984  32.538  54.424  0.00  0.00    -0.200 OA
ATOM     10  O   UNL d   1      54.437  32.401  53.648  0.00  0.00    -0.200 OA
BRANCH   8  11
ATOM     11  N   UNL d   1      53.984  33.143  54.427  0.00  0.00    -0.225 N 
ATOM     12  C   UNL d   1      53.504  33.813  54.482  0.00  0.00     0.118 A 
ATOM     13  C   UNL d   1      53.777  34.487  54.874  0.00  0.00     0.142 A 
ATOM     14  O   UNL d   1      54.530  34.493  55.211  0.00  0.00    -0.300 OA
ATOM     15  C   UNL d   1      55.010  33.824  55.156  0.00  0.00     0.142 A 
ATOM     16  C   UNL d   1      54.737  33.150  54.765  0.00  0.00     0.118 A 
ENDBRANCH   8  11
ENDBRANCH   1   8
BRANCH   3  17
ATOM     17  O   UNL d   1      53.553  29.622  53.833  0.00  0.00    -0.303 OA
BRANCH  17  18
ATOM     18  C   UNL d   1      53.246  29.363  54.554  0.00  0.00     0.123 C 
ATOM     19  C   UNL d   1      53.481  28.633  54.867  0.00  0.00     0.029 C 
ENDBRANCH  17  18
ENDBRANCH   3  17
TORSDOF 4
ENDMDL
MODEL 2
REMARK VINA RESULT:      -8.1      2.213      4.034
REMARK  4 active torsions:
REMARK  status: ('A' for Active; 'I' for Inactive)
REMARK    1  A    between atoms: N_2  and  S_1 
REMARK    2  A    between atoms: C_3  and  S_1 
REMARK    3  A    between atoms: O_15  and  C_7 
REMARK    4  A    between atoms: C_18  and  O_15 
ROOT
ATOM      1  C   UNL d   1      52.882  32.989  53.304  0.00  0.00     0.106 A 
ATOM      2  C   UNL d   1      52.188  33.323  53.006  0.00  0.00     0.040 A 
ATOM      3  C   UNL d   1      52.096  34.137  52.998  0.00  0.00     0.128 A 
ATOM      4  C   UNL d   1      52.695  34.624  53.288  0.00  0.00     0.163 A 
ATOM      5  C   UNL d   1      53.481  33.476  53.593  0.00  0.00     0.015 A 
ATOM      6  C   UNL d   1      53.388  34.290  53.585  0.00  0.00     0.032 A 
ATOM      7  F   UNL d   1      52.602  35.445  53.280  0.00  0.00    -0.202 F 
ENDROOT
BRANCH   1   8
ATOM      8  S   UNL d   1      52.975  32.168  53.312  0.00  0.00     0.272 S 
ATOM      9  O   UNL d   1      52.985  32.177  54.139  0.00  0.00    -0.200 OA
ATOM     10  O   UNL d   1      52.965  32.158  52.486  0.00  0.00    -0.200 OA
BRANCH   8  11
ATOM     11  N   UNL d   1      53.069  31.347  53.320  0.00  0.00    -0.225 N 
ATOM     12  C   UNL d   1      53.710  31.007  53.713  0.00  0.00     0.118 A 
ATOM     13  C   UNL d   1      53.804  30.186  53.721  0.00  0.00     0.142 A 
ATOM     14  O   UNL d   1      53.256  29.704  53.336  0.00  0.00    -0.300 OA
ATOM     15  C   UNL d   1      52.614  30.043  52.943  0.00  0.00     0.142 A 
ATOM     16  C   UNL d   1      52.521  30.864  52.935  0.00  0.00     0.118 A 
ENDBRANCH   8  11
ENDBRANCH   1   8
BRANCH   3  17
ATOM     17  O   UNL d   1      51.394  34.469  52.697  0.00  0.00    -0.303 OA
BRANCH  17  18
ATOM     18  C   UNL d   1      50.661  34.174  52.931  0.00  0.00     0.123 C 
ATOM     19  C   UNL d   1      49.966  34.470  52.590  0.00  0.00     0.029 C 
ENDBRANCH  17  18
ENDBRANCH   3  17
TORSDOF 4
ENDMDL
MODEL 3
REMARK VINA RESULT:      -7.8      2.406      3.310
REMARK  4 active torsions:
REMARK  status: ('A' for Active; 'I' for Inactive)
REMARK    1  A    between atoms: N_2  and  S_1 
REMARK    2  A    between atoms: C_3  and  S_1 
REMARK    3  A    between atoms: O_15  and  C_7 
REMARK    4  A    between atoms: C_18  and  O_15 
ROOT
ATOM      1  C   UNL d   1      52.706  33.424  53.707  0.00  0.00     0.106 A 
ATOM      2  C   UNL d   1      53.011  32.672  53.560  0.00  0.00     0.040 A 
ATOM      3  C   UNL d   1      53.657  32.402  53.984  0.00  0.00     0.128 A 
ATOM      4  C   UNL d   1      54.004  32.882  54.558  0.00  0.00     0.163 A 
ATOM      5  C   UNL d   1      53.053  33.904  54.281  0.00  0.00     0.015 A 
ATOM      6  C   UNL d   1      53.699  33.634  54.705  0.00  0.00     0.032 A 
ATOM      7  F   UNL d   1      54.657  32.609  54.987  0.00  0.00    -0.202 F 
ENDROOT
BRANCH   1   8
ATOM      8  S   UNL d   1      52.053  33.696  53.279  0.00  0.00     0.272 S 
ATOM      9  O   UNL d   1      52.542  34.221  52.867  0.00  0.00    -0.200 OA
ATOM     10  O   UNL d   1      51.564  33.172  53.690  0.00  0.00    -0.200 OA
BRANCH   8  11
ATOM     11  N   UNL d   1      51.400  33.968  52.851  0.00  0.00    -0.225 N 
ATOM     12  C   UNL d   1      51.451  34.058  52.032  0.00  0.00     0.118 A 
ATOM     13  C   UNL d   1      50.798  34.331  51.604  0.00  0.00     0.142 A 
ATOM     14  O   UNL d   1      50.095  34.514  51.995  0.00  0.00    -0.300 OA
ATOM     15  C   UNL d   1      50.044  34.424  52.814  0.00  0.00     0.142 A 
ATOM     16  C   UNL d   1      50.697  34.151  53.241  0.00  0.00     0.118 A 
ENDBRANCH   8  11
ENDBRANCH   1   8
BRANCH   3  17
ATOM     17  O   UNL d   1      53.962  31.642  53.833  0.00  0.00    -0.303 OA
BRANCH  17  18
ATOM     18  C   UNL d   1      53.454  31.022  53.637  0.00  0.00     0.123 C 
ATOM     19  C   UNL d   1      53.761  30.269  53.477  0.00  0.00     0.029 C 
ENDBRANCH  17  18
ENDBRANCH   3  17
TORSDOF 4
ENDMDL
MODEL 4
REMARK VINA RESULT:      -7.7      1.767      3.977
REMARK  4 active torsions:
REMARK  status: ('A' for Active; 'I' for Inactive)
REMARK    1  A    between atoms: N_2  and  S_1 
REMARK    2  A    between atoms: C_3  and  S_1 
REMARK    3  A    between atoms: O_15  and  C_7 
REMARK    4  A    between atoms: C_18  and  O_15 
ROOT
ATOM      1  C   UNL d   1      53.683  32.420  54.086  0.00  0.00     0.106 A 
ATOM      2  C   UNL d   1      53.136  33.026  53.970  0.00  0.00     0.040 A 
ATOM      3  C   UNL d   1      53.329  33.796  54.171  0.00  0.00     0.128 A 
ATOM      4  C   UNL d   1      54.070  33.966  54.491  0.00  0.00     0.163 A 
ATOM      5  C   UNL d   1      54.424  32.590  54.406  0.00  0.00     0.015 A 
ATOM      6  C   UNL d   1      54.616  33.360  54.608  0.00  0.00     0.032 A 
ATOM      7  F   UNL d   1      54.264  34.744  54.695  0.00  0.00    -0.202 F 
ENDROOT
BRANCH   1   8
ATOM      8  S   UNL d   1      53.489  31.642  53.883  0.00  0.00     0.272 S 
ATOM      9  O   UNL d   1      53.321  31.476  54.676  0.00  0.00    -0.200 OA
ATOM     10  O   UNL d   1      53.656  31.807  53.091  0.00  0.00    -0.200 OA
BRANCH   8  11
ATOM     11  N   UNL d   1      53.295  30.865  53.680  0.00  0.00    -0.225 N 
ATOM     12  C   UNL d   1      53.513  30.241  54.174  0.00  0.00     0.118 A 
ATOM     13  C   UNL d   1      53.319  29.464  53.971  0.00  0.00     0.142 A 
ATOM     14  O   UNL d   1      52.906  29.310  53.273  0.00  0.00    -0.300 OA
ATOM     15  C   UNL d   1      52.688  29.934  52.779  0.00  0.00     0.142 A 
ATOM     16  C   UNL d   1      52.882  30.711  52.982  0.00  0.00     0.118 A 
ENDBRANCH   8  11
ENDBRANCH   1   8
BRANCH   3  17
ATOM     17  O   UNL d   1      52.774  34.405  54.052  0.00  0.00    -0.303 OA
BRANCH  17  18
ATOM     18  C   UNL d   1      52.382  34.474  53.329  0.00  0.00     0.123 C 
ATOM     19  C   UNL d   1      51.676  34.905  53.279  0.00  0.00     0.029 C 
ENDBRANCH  17  18
ENDBRANCH   3  17
TORSDOF 4
ENDMDL
MODEL 5
REMARK VINA RESULT:      -7.1      1.341      2.216
REMARK  4 active torsions:
REMARK  status: ('A' for Active; 'I' for Inactive)
REMARK    1  A    between atoms: N_2  and  S_1 
REMARK    2  A    between atoms: C_3  and  S_1 
REMARK    3  A    between atoms: O_15  and  C_7 
REMARK    4  A    between atoms: C_18  and  O_15 
ROOT
ATOM      1  C   UNL d   1      53.596  32.237  53.798  0.00  0.00     0.106 A 
ATOM      2  C   UNL d   1      52.900  32.556  53.490  0.00  0.00     0.040 A 
ATOM      3  C   UNL d   1      52.384  32.081  53.067  0.00  0.00     0.128 A 
ATOM      4  C   UNL d   1      52.559  31.284  52.948  0.00  0.00     0.163 A 
ATOM      5  C   UNL d   1      53.771  31.440  53.679  0.00  0.00     0.015 A 
ATOM      6  C   UNL d   1      53.255  30.966  53.256  0.00  0.00     0.032 A 
ATOM      7  F   UNL d   1      52.038  30.805  52.520  0.00  0.00    -0.202 F 
ENDROOT
BRANCH   1   8
ATOM      8  S   UNL d   1      54.117  32.717  54.226  0.00  0.00     0.272 S 
ATOM      9  O   UNL d   1      54.468  32.965  53.520  0.00  0.00    -0.200 OA
ATOM     10  O   UNL d   1      53.766  32.469  54.931  0.00  0.00    -0.200 OA
BRANCH   8  11
ATOM     11  N   UNL d   1      54.637  33.195  54.653  0.00  0.00    -0.225 N 
ATOM     12  C   UNL d   1      54.515  33.323  55.459  0.00  0.00     0.118 A 
ATOM     13  C   UNL d   1      55.035  33.802  55.887  0.00  0.00     0.142 A 
ATOM     14  O   UNL d   1      55.679  34.154  55.508  0.00  0.00    -0.300 OA
ATOM     15  C   UNL d   1      55.801  34.026  54.702  0.00  0.00     0.142 A 
ATOM     16  C   UNL d   1      55.281  33.547  54.275  0.00  0.00     0.118 A 
ENDBRANCH   8  11
ENDBRANCH   1   8
BRANCH   3  17
ATOM     17  O   UNL d   1      51.683  32.407  52.758  0.00  0.00    -0.303 OA
BRANCH  17  18
ATOM     18  C   UNL d   1      51.340  33.068  53.113  0.00  0.00     0.123 C 
ATOM     19  C   UNL d   1      50.693  33.442  52.756  0.00  0.00     0.029 C 
ENDBRANCH  17  18
ENDBRANCH   3  17
TORSDOF 4
ENDMDL
