MODEL 1
REMARK VINA RESULT:      49.3      0.000      0.000
REMARK  2 active torsions:
REMARK  status: ('A' for Active; 'I' for Inactive)
REMARK       I    between atoms: C_3  and  N_1 
REMARK       I    between atoms: C_4  and  N_2 
REMARK    1  A    between atoms: C_5  and  C_3 
REMARK    2  A    between atoms: C_6  and  C_4 
ROOT
ATOM      1  N   UNL d   1     -50.488  26.169  33.459  0.00  0.00    -0.270 N 
ATOM      2  N   UNL d   1     -51.995  25.499  33.450  0.00  0.00    -0.269 N 
ATOM      3  C   UNL d   1     -49.742  26.497  33.463  0.00  0.00     0.271 C 
ATOM      4  C   UNL d   1     -52.736  25.158  33.445  0.00  0.00     0.271 C 
ATOM      5  C   UNL d   1     -51.159  26.658  33.511  0.00  0.00     0.085 A 
ATOM      6  C   UNL d   1     -51.899  26.317  33.506  0.00  0.00     0.101 A 
ATOM      7  C   UNL d   1     -50.559  25.347  33.402  0.00  0.00     0.102 A 
ATOM      8  C   UNL d   1     -51.325  25.011  33.398  0.00  0.00     0.102 A 
ATOM      9  O   UNL d   1     -49.068  26.003  33.410  0.00  0.00    -0.266 OA
ATOM     10  O   UNL d   1     -53.394  25.636  33.496  0.00  0.00    -0.266 OA
ATOM     11  C   UNL d   1     -51.062  27.476  33.567  0.00  0.00     0.021 C 
ENDROOT
BRANCH   3  12
ATOM     12  C   UNL d   1     -49.635  27.311  33.518  0.00  0.00     0.086 A 
ATOM     13  S   UNL d   1     -49.748  28.118  33.370  0.00  0.00    -0.082 SA
ATOM     14  C   UNL d   1     -49.220  28.537  33.839  0.00  0.00     0.036 A 
ATOM     15  C   UNL d   1     -48.777  27.989  34.279  0.00  0.00     0.008 A 
ATOM     16  C   UNL d   1     -49.039  27.228  34.077  0.00  0.00     0.012 A 
ENDBRANCH   3  12
BRANCH   4  17
ATOM     17  C   UNL d   1     -53.021  24.386  33.397  0.00  0.00     0.086 A 
ATOM     18  S   UNL d   1     -52.882  23.577  33.326  0.00  0.00    -0.082 SA
ATOM     19  C   UNL d   1     -53.618  23.194  33.331  0.00  0.00     0.036 A 
ATOM     20  C   UNL d   1     -54.206  23.785  33.407  0.00  0.00     0.008 A 
ATOM     21  C   UNL d   1     -53.823  24.507  33.446  0.00  0.00     0.012 A 
ENDBRANCH   4  17
TORSDOF 2
ENDMDL
