MODEL 1
REMARK VINA RESULT:      96.9      0.000      0.000
REMARK  5 active torsions:
REMARK  status: ('A' for Active; 'I' for Inactive)
REMARK       I    between atoms: C_8  and  N_1 
REMARK    1  A    between atoms: C_7  and  C_3 
REMARK    2  A    between atoms: S_4  and  N_9 
REMARK    3  A    between atoms: C_21  and  S_4 
REMARK    4  A    between atoms: C_11  and  C_5 
REMARK    5  A    between atoms: N_9  and  C_20 
ROOT
ATOM      1  N   UNL d   1      61.884  45.438  49.965  0.00  0.00    -0.194 N 
ATOM      2  N   UNL d   1      61.766  46.269  49.891  0.00  0.00    -0.163 NA
ATOM      3  C   UNL d   1      61.473  45.177  50.606  0.00  0.00     0.093 A 
ATOM      4  C   UNL d   1      61.273  46.503  50.503  0.00  0.00     0.103 A 
ATOM      5  C   UNL d   1      61.081  45.831  50.958  0.00  0.00     0.041 A 
ATOM      6  C   UNL d   1      62.342  44.974  49.469  0.00  0.00     0.281 C 
ATOM      7  O   UNL d   1      62.410  44.167  49.606  0.00  0.00    -0.265 OA
ATOM      8  C   UNL d   1      62.736  45.317  48.828  0.00  0.00     0.068 C 
ENDROOT
BRANCH   4   9
ATOM      9  C   UNL d   1      60.993  47.256  50.672  0.00  0.00     0.019 A 
ATOM     10  C   UNL d   1      61.339  47.691  51.287  0.00  0.00     0.003 A 
ATOM     11  C   UNL d   1      61.061  48.441  51.456  0.00  0.00     0.020 A 
ATOM     12  C   UNL d   1      60.441  48.766  51.020  0.00  0.00     0.094 A 
ATOM     13  C   UNL d   1      60.098  48.332  50.410  0.00  0.00     0.020 A 
ATOM     14  C   UNL d   1      60.373  47.573  50.232  0.00  0.00     0.003 A 
BRANCH  12  15
ATOM     15  N   UNL d   1      60.152  49.528  51.185  0.00  0.00    -0.158 NA
BRANCH  15  16
ATOM     16  S   UNL d   1      59.492  49.615  51.656  0.00  0.00     0.286 S 
ATOM     17  O   UNL d   1      58.800  49.707  52.127  0.00  0.00    -0.198 OA
ATOM     18  O   UNL d   1      59.958  49.524  52.336  0.00  0.00    -0.198 OA
BRANCH  16  19
ATOM     19  C   UNL d   1      59.019  49.708  50.973  0.00  0.00     0.117 C 
ATOM     20  C   UNL d   1      58.202  49.680  51.025  0.00  0.00     0.014 C 
ENDBRANCH  16  19
ENDBRANCH  15  16
ENDBRANCH  12  15
ENDBRANCH   4   9
BRANCH   3  21
ATOM     21  C   UNL d   1      61.443  44.402  50.869  0.00  0.00     0.047 A 
ATOM     22  S   UNL d   1      60.759  43.975  51.054  0.00  0.00    -0.085 SA
ATOM     23  C   UNL d   1      60.984  43.220  51.295  0.00  0.00     0.035 A 
ATOM     24  C   UNL d   1      61.805  43.175  51.261  0.00  0.00     0.007 A 
ATOM     25  C   UNL d   1      62.090  43.904  50.998  0.00  0.00     0.009 A 
ENDBRANCH   3  21
TORSDOF 5
ENDMDL
