MODEL 1
REMARK VINA RESULT:      12.7      0.000      0.000
REMARK  5 active torsions:
REMARK  status: ('A' for Active; 'I' for Inactive)
REMARK    1  A    between atoms: C_2  and  S_1 
REMARK    2  A    between atoms: C_9  and  S_1 
REMARK    3  A    between atoms: N_5  and  C_3 
REMARK    4  A    between atoms: O_28  and  C_23 
REMARK    5  A    between atoms: O_29  and  C_24 
ROOT
ATOM      1  C   UNL d   1      32.476  23.028 -22.068  0.00  0.00     0.123 A 
ATOM      2  C   UNL d   1      32.673  22.297 -22.391  0.00  0.00     0.078 A 
ATOM      3  C   UNL d   1      32.745  22.217 -23.208  0.00  0.00     0.036 A 
ATOM      4  C   UNL d   1      32.353  23.678 -22.560  0.00  0.00     0.112 A 
ATOM      5  N   UNL d   1      32.425  23.598 -23.375  0.00  0.00    -0.243 NA
ATOM      6  C   UNL d   1      32.622  22.867 -23.700  0.00  0.00     0.083 A 
ATOM      7  C   UNL d   1      32.942  21.486 -23.532  0.00  0.00     0.027 A 
ATOM      8  C   UNL d   1      32.695  22.787 -24.515  0.00  0.00     0.021 A 
ATOM      9  C   UNL d   1      33.015  21.406 -24.349  0.00  0.00     0.094 A 
ATOM     10  C   UNL d   1      32.891  22.056 -24.840  0.00  0.00     0.026 A 
ENDROOT
BRANCH   1  11
ATOM     11  S   UNL d   1      32.401  23.114 -21.241  0.00  0.00     0.213 S 
ATOM     12  O   UNL d   1      31.572  23.045 -21.309  0.00  0.00    -0.217 OA
ATOM     13  O   UNL d   1      33.226  23.184 -21.175  0.00  0.00    -0.217 OA
BRANCH  11  14
ATOM     14  C   UNL d   1      32.325  23.201 -20.415  0.00  0.00     0.088 A 
ATOM     15  C   UNL d   1      32.978  23.438 -19.968  0.00  0.00     0.013 A 
ATOM     16  C   UNL d   1      32.909  23.525 -19.152  0.00  0.00     0.025 A 
ATOM     17  C   UNL d   1      32.177  23.374 -18.775  0.00  0.00     0.094 A 
ATOM     18  C   UNL d   1      31.526  23.136 -19.237  0.00  0.00     0.025 A 
ATOM     19  C   UNL d   1      31.601  23.051 -20.048  0.00  0.00     0.013 A 
BRANCH  17  20
ATOM     20  O   UNL d   1      32.105  23.461 -17.953  0.00  0.00    -0.328 OA
ATOM     21  C   UNL d   1      32.770  23.629 -17.493  0.00  0.00     0.181 C 
ENDBRANCH  17  20
ENDBRANCH  11  14
ENDBRANCH   1  11
BRANCH   2  22
ATOM     22  N   UNL d   1      32.796  21.646 -21.899  0.00  0.00    -0.303 N 
ATOM     23  C   UNL d   1      32.858  20.890 -22.222  0.00  0.00     0.081 A 
ATOM     24  C   UNL d   1      32.982  20.233 -21.725  0.00  0.00     0.053 A 
ATOM     25  C   UNL d   1      33.044  20.338 -20.911  0.00  0.00     0.239 A 
ATOM     26  C   UNL d   1      32.983  21.100 -20.578  0.00  0.00     0.053 A 
ATOM     27  O   UNL d   1      33.119  20.357 -20.079  0.00  0.00    -0.298 OA
ATOM     28  O   UNL d   1      33.117  19.553 -21.149  0.00  0.00    -0.298 OA
ATOM     29  C   UNL d   1      32.859  21.757 -21.075  0.00  0.00     0.081 A 
ATOM     30  C   UNL d   1      33.236  19.578 -19.820  0.00  0.00     0.146 A 
ATOM     31  C   UNL d   1      33.235  19.084 -20.480  0.00  0.00     0.146 A 
ENDBRANCH   2  22
BRANCH   9  32
ATOM     32  O   UNL d   1      33.212  20.668 -24.667  0.00  0.00    -0.328 OA
ATOM     33  C   UNL d   1      32.646  20.245 -25.097  0.00  0.00     0.181 C 
ENDBRANCH   9  32
TORSDOF 5
ENDMDL
