MODEL 1
REMARK VINA RESULT:      -2.2      0.000      0.000
REMARK  5 active torsions:
REMARK  status: ('A' for Active; 'I' for Inactive)
REMARK    1  A    between atoms: N_7  and  C_1 
REMARK    2  A    between atoms: O_17  and  C_5 
REMARK    3  A    between atoms: C_10  and  N_7 
REMARK    4  A    between atoms: O_18  and  C_8 
REMARK    5  A    between atoms: O_19  and  C_9 
ROOT
ATOM      1  C   UNL d   1      29.591  16.573 -24.080  0.00  0.00     0.139 A 
ATOM      2  C   UNL d   1      29.760  17.228 -24.552  0.00  0.00     0.120 A 
ATOM      3  C   UNL d   1      30.218  16.120 -23.761  0.00  0.00     0.120 A 
ATOM      4  C   UNL d   1      31.157  16.984 -24.389  0.00  0.00     0.087 A 
ATOM      5  C   UNL d   1      31.001  16.330 -23.917  0.00  0.00     0.045 A 
ATOM      6  C   UNL d   1      30.552  17.442 -24.713  0.00  0.00     0.045 A 
ENDROOT
BRANCH   4   7
ATOM      7  N   UNL d   1      31.947  17.192 -24.544  0.00  0.00    -0.226 NA
BRANCH   7   8
ATOM      8  C   UNL d   1      32.366  17.647 -24.004  0.00  0.00     0.169 A 
ATOM      9  C   UNL d   1      32.606  18.365 -24.188  0.00  0.00     0.094 A 
ATOM     10  C   UNL d   1      33.007  18.802 -23.671  0.00  0.00     0.190 A 
ATOM     11  C   UNL d   1      32.681  19.380 -25.096  0.00  0.00     0.128 A 
ATOM     12  N   UNL d   1      33.241  19.520 -23.869  0.00  0.00    -0.128 NA
ATOM     13  N   UNL d   1      33.169  18.520 -22.969  0.00  0.00    -0.203 NA
ATOM     14  N   UNL d   1      33.084  19.810 -24.567  0.00  0.00    -0.145 NA
ATOM     15  C   UNL d   1      32.934  17.789 -22.760  0.00  0.00     0.202 A 
ATOM     16  N   UNL d   1      32.532  17.353 -23.277  0.00  0.00    -0.205 NA
ENDBRANCH   7   8
ENDBRANCH   4   7
BRANCH   3  17
ATOM     17  O   UNL d   1      30.052  15.458 -23.284  0.00  0.00    -0.326 OA
ATOM     18  C   UNL d   1      30.213  15.486 -22.468  0.00  0.00     0.181 C 
ENDBRANCH   3  17
BRANCH   2  19
ATOM     19  O   UNL d   1      29.141  17.681 -24.873  0.00  0.00    -0.326 OA
ATOM     20  C   UNL d   1      29.177  18.514 -24.846  0.00  0.00     0.181 C 
ENDBRANCH   2  19
BRANCH   1  21
ATOM     21  O   UNL d   1      28.807  16.357 -23.919  0.00  0.00    -0.324 OA
ATOM     22  C   UNL d   1      28.441  15.761 -24.382  0.00  0.00     0.182 C 
ENDBRANCH   1  21
TORSDOF 5
ENDMDL
MODEL 2
REMARK VINA RESULT:      -2.0      2.562      4.501
REMARK  5 active torsions:
REMARK  status: ('A' for Active; 'I' for Inactive)
REMARK    1  A    between atoms: N_7  and  C_1 
REMARK    2  A    between atoms: O_17  and  C_5 
REMARK    3  A    between atoms: C_10  and  N_7 
REMARK    4  A    between atoms: O_18  and  C_8 
REMARK    5  A    between atoms: O_19  and  C_9 
ROOT
ATOM      1  C   UNL d   1      33.050  20.578 -22.788  0.00  0.00     0.139 A 
ATOM      2  C   UNL d   1      32.988  19.937 -22.273  0.00  0.00     0.120 A 
ATOM      3  C   UNL d   1      33.176  20.441 -23.604  0.00  0.00     0.120 A 
ATOM      4  C   UNL d   1      33.173  19.040 -23.367  0.00  0.00     0.087 A 
ATOM      5  C   UNL d   1      33.237  19.670 -23.890  0.00  0.00     0.045 A 
ATOM      6  C   UNL d   1      33.049  19.154 -22.559  0.00  0.00     0.045 A 
ENDROOT
BRANCH   4   7
ATOM      7  N   UNL d   1      33.236  18.264 -23.659  0.00  0.00    -0.226 NA
BRANCH   7   8
ATOM      8  C   UNL d   1      32.559  17.817 -23.786  0.00  0.00     0.169 A 
ATOM      9  C   UNL d   1      32.561  17.046 -23.668  0.00  0.00     0.094 A 
ATOM     10  C   UNL d   1      31.912  16.618 -23.789  0.00  0.00     0.190 A 
ATOM     11  C   UNL d   1      33.233  15.917 -23.302  0.00  0.00     0.128 A 
ATOM     12  N   UNL d   1      31.928  15.847 -23.667  0.00  0.00    -0.128 NA
ATOM     13  N   UNL d   1      31.261  16.960 -24.028  0.00  0.00    -0.203 NA
ATOM     14  N   UNL d   1      32.573  15.497 -23.428  0.00  0.00    -0.145 NA
ATOM     15  C   UNL d   1      31.236  17.745 -24.155  0.00  0.00     0.202 A 
ATOM     16  N   UNL d   1      31.885  18.173 -24.034  0.00  0.00    -0.205 NA
ENDBRANCH   7   8
ENDBRANCH   4   7
BRANCH   3  17
ATOM     17  O   UNL d   1      33.239  21.086 -24.129  0.00  0.00    -0.326 OA
ATOM     18  C   UNL d   1      33.239  20.951 -24.950  0.00  0.00     0.181 C 
ENDBRANCH   3  17
BRANCH   2  19
ATOM     19  O   UNL d   1      32.862  20.066 -21.461  0.00  0.00    -0.326 OA
ATOM     20  C   UNL d   1      33.223  19.567 -20.899  0.00  0.00     0.181 C 
ENDBRANCH   2  19
BRANCH   1  21
ATOM     21  O   UNL d   1      32.989  21.356 -22.509  0.00  0.00    -0.324 OA
ATOM     22  C   UNL d   1      32.239  21.653 -22.280  0.00  0.00     0.182 C 
ENDBRANCH   1  21
TORSDOF 5
ENDMDL
MODEL 3
REMARK VINA RESULT:      -1.3      2.089      4.076
REMARK  5 active torsions:
REMARK  status: ('A' for Active; 'I' for Inactive)
REMARK    1  A    between atoms: N_7  and  C_1 
REMARK    2  A    between atoms: O_17  and  C_5 
REMARK    3  A    between atoms: C_10  and  N_7 
REMARK    4  A    between atoms: O_18  and  C_8 
REMARK    5  A    between atoms: O_19  and  C_9 
ROOT
ATOM      1  C   UNL d   1      31.992  18.203 -24.197  0.00  0.00     0.139 A 
ATOM      2  C   UNL d   1      32.327  17.565 -23.797  0.00  0.00     0.120 A 
ATOM      3  C   UNL d   1      31.281  18.094 -24.626  0.00  0.00     0.120 A 
ATOM      4  C   UNL d   1      31.264  16.725 -24.243  0.00  0.00     0.087 A 
ATOM      5  C   UNL d   1      30.920  17.352 -24.646  0.00  0.00     0.045 A 
ATOM      6  C   UNL d   1      31.964  16.812 -23.816  0.00  0.00     0.045 A 
ENDROOT
BRANCH   4   7
ATOM      7  N   UNL d   1      30.896  15.979 -24.267  0.00  0.00    -0.226 NA
BRANCH   7   8
ATOM      8  C   UNL d   1      30.276  15.811 -23.756  0.00  0.00     0.169 A 
ATOM      9  C   UNL d   1      29.551  15.711 -24.027  0.00  0.00     0.094 A 
ATOM     10  C   UNL d   1      28.956  15.550 -23.538  0.00  0.00     0.190 A 
ATOM     11  C   UNL d   1      28.688  15.674 -25.082  0.00  0.00     0.128 A 
ATOM     12  N   UNL d   1      28.236  15.453 -23.823  0.00  0.00    -0.128 NA
ATOM     13  N   UNL d   1      29.085  15.488 -22.778  0.00  0.00    -0.203 NA
ATOM     14  N   UNL d   1      28.098  15.512 -24.580  0.00  0.00    -0.145 NA
ATOM     15  C   UNL d   1      29.816  15.586 -22.480  0.00  0.00     0.202 A 
ATOM     16  N   UNL d   1      30.411  15.748 -22.969  0.00  0.00    -0.205 NA
ENDBRANCH   7   8
ENDBRANCH   4   7
BRANCH   3  17
ATOM     17  O   UNL d   1      30.938  18.735 -25.032  0.00  0.00    -0.326 OA
ATOM     18  C   UNL d   1      30.122  18.882 -24.959  0.00  0.00     0.181 C 
ENDBRANCH   3  17
BRANCH   2  19
ATOM     19  O   UNL d   1      33.033  17.667 -23.369  0.00  0.00    -0.326 OA
ATOM     20  C   UNL d   1      33.234  17.132 -22.762  0.00  0.00     0.181 C 
ENDBRANCH   2  19
BRANCH   1  21
ATOM     21  O   UNL d   1      32.349  18.950 -24.181  0.00  0.00    -0.324 OA
ATOM     22  C   UNL d   1      32.810  19.200 -24.835  0.00  0.00     0.182 C 
ENDBRANCH   1  21
TORSDOF 5
ENDMDL
MODEL 4
REMARK VINA RESULT:      -0.1      3.423      5.226
REMARK  5 active torsions:
REMARK  status: ('A' for Active; 'I' for Inactive)
REMARK    1  A    between atoms: N_7  and  C_1 
REMARK    2  A    between atoms: O_17  and  C_5 
REMARK    3  A    between atoms: C_10  and  N_7 
REMARK    4  A    between atoms: O_18  and  C_8 
REMARK    5  A    between atoms: O_19  and  C_9 
ROOT
ATOM      1  C   UNL d   1      32.515  22.043 -21.743  0.00  0.00     0.139 A 
ATOM      2  C   UNL d   1      32.295  21.400 -21.276  0.00  0.00     0.120 A 
ATOM      3  C   UNL d   1      32.984  21.917 -22.425  0.00  0.00     0.120 A 
ATOM      4  C   UNL d   1      32.996  20.521 -22.155  0.00  0.00     0.087 A 
ATOM      5  C   UNL d   1      33.222  21.153 -22.628  0.00  0.00     0.045 A 
ATOM      6  C   UNL d   1      32.535  20.625 -21.479  0.00  0.00     0.045 A 
ENDROOT
BRANCH   4   7
ATOM      7  N   UNL d   1      33.238  19.753 -22.363  0.00  0.00    -0.226 NA
BRANCH   7   8
ATOM      8  C   UNL d   1      32.861  19.355 -22.974  0.00  0.00     0.169 A 
ATOM      9  C   UNL d   1      32.861  18.576 -23.004  0.00  0.00     0.094 A 
ATOM     10  C   UNL d   1      32.500  18.194 -23.589  0.00  0.00     0.190 A 
ATOM     11  C   UNL d   1      33.234  17.382 -22.460  0.00  0.00     0.128 A 
ATOM     12  N   UNL d   1      32.508  17.413 -23.605  0.00  0.00    -0.128 NA
ATOM     13  N   UNL d   1      32.138  18.591 -24.145  0.00  0.00    -0.203 NA
ATOM     14  N   UNL d   1      32.867  17.009 -23.055  0.00  0.00    -0.145 NA
ATOM     15  C   UNL d   1      32.125  19.386 -24.135  0.00  0.00     0.202 A 
ATOM     16  N   UNL d   1      32.486  19.768 -23.550  0.00  0.00    -0.205 NA
ENDBRANCH   7   8
ENDBRANCH   4   7
BRANCH   3  17
ATOM     17  O   UNL d   1      33.209  22.563 -22.899  0.00  0.00    -0.326 OA
ATOM     18  C   UNL d   1      33.240  22.478 -23.726  0.00  0.00     0.181 C 
ENDBRANCH   3  17
BRANCH   2  19
ATOM     19  O   UNL d   1      31.829  21.518 -20.597  0.00  0.00    -0.326 OA
ATOM     20  C   UNL d   1      31.967  21.063 -19.912  0.00  0.00     0.181 C 
ENDBRANCH   2  19
BRANCH   1  21
ATOM     21  O   UNL d   1      32.280  22.812 -21.545  0.00  0.00    -0.324 OA
ATOM     22  C   UNL d   1      32.765  23.275 -21.042  0.00  0.00     0.182 C 
ENDBRANCH   1  21
TORSDOF 5
ENDMDL
