MODEL 1
REMARK VINA RESULT:      -7.4      0.000      0.000
REMARK  0 active torsions:
REMARK  status: ('A' for Active; 'I' for Inactive)
ROOT
ATOM      1  N   UNL d   1      53.656  32.635  54.238  0.00  0.00    -0.187 N 
ATOM      2  C   UNL d   1      53.177  33.036  53.698  0.00  0.00     0.200 A 
ATOM      3  N   UNL d   1      52.805  32.628  53.084  0.00  0.00    -0.181 NA
ATOM      4  N   UNL d   1      53.764  31.809  54.160  0.00  0.00    -0.157 NA
ATOM      5  C   UNL d   1      53.946  33.187  54.780  0.00  0.00     0.194 A 
ATOM      6  C   UNL d   1      52.910  31.814  53.006  0.00  0.00     0.300 A 
ATOM      7  C   UNL d   1      53.392  31.402  53.547  0.00  0.00     0.159 A 
ATOM      8  S   UNL d   1      53.173  33.834  53.908  0.00  0.00    -0.045 SA
ATOM      9  C   UNL d   1      53.652  33.926  54.582  0.00  0.00     0.079 A 
ATOM     10  O   UNL d   1      52.538  31.407  52.392  0.00  0.00    -0.263 OA
ATOM     11  N   UNL d   1      54.447  33.019  55.412  0.00  0.00    -0.126 N 
ATOM     12  C   UNL d   1      53.497  30.587  53.468  0.00  0.00     0.028 C 
ENDROOT
TORSDOF 0
ENDMDL
MODEL 2
REMARK VINA RESULT:      -7.3      1.499      2.454
REMARK  0 active torsions:
REMARK  status: ('A' for Active; 'I' for Inactive)
ROOT
ATOM      1  N   UNL d   1      53.498  32.536  53.896  0.00  0.00    -0.187 N 
ATOM      2  C   UNL d   1      52.984  33.159  53.730  0.00  0.00     0.200 A 
ATOM      3  N   UNL d   1      53.072  33.888  54.107  0.00  0.00    -0.181 NA
ATOM      4  N   UNL d   1      54.114  32.646  54.453  0.00  0.00    -0.157 NA
ATOM      5  C   UNL d   1      53.271  31.888  53.437  0.00  0.00     0.194 A 
ATOM      6  C   UNL d   1      53.677  33.999  54.655  0.00  0.00     0.300 A 
ATOM      7  C   UNL d   1      54.201  33.374  54.829  0.00  0.00     0.159 A 
ATOM      8  S   UNL d   1      52.440  32.895  53.168  0.00  0.00    -0.045 SA
ATOM      9  C   UNL d   1      52.621  32.103  52.987  0.00  0.00     0.079 A 
ATOM     10  O   UNL d   1      53.765  34.728  55.032  0.00  0.00    -0.263 OA
ATOM     11  N   UNL d   1      53.639  31.151  53.434  0.00  0.00    -0.126 N 
ATOM     12  C   UNL d   1      54.807  33.486  55.378  0.00  0.00     0.028 C 
ENDROOT
TORSDOF 0
ENDMDL
MODEL 3
REMARK VINA RESULT:      -7.2      1.928      2.790
REMARK  0 active torsions:
REMARK  status: ('A' for Active; 'I' for Inactive)
ROOT
ATOM      1  N   UNL d   1      53.494  33.444  54.263  0.00  0.00    -0.187 N 
ATOM      2  C   UNL d   1      53.859  33.933  54.818  0.00  0.00     0.200 A 
ATOM      3  N   UNL d   1      53.653  34.730  54.875  0.00  0.00    -0.181 NA
ATOM      4  N   UNL d   1      52.909  33.762  53.754  0.00  0.00    -0.157 NA
ATOM      5  C   UNL d   1      53.813  32.687  54.339  0.00  0.00     0.194 A 
ATOM      6  C   UNL d   1      53.078  35.045  54.376  0.00  0.00     0.300 A 
ATOM      7  C   UNL d   1      52.704  34.558  53.812  0.00  0.00     0.159 A 
ATOM      8  S   UNL d   1      54.404  33.476  55.237  0.00  0.00    -0.045 SA
ATOM      9  C   UNL d   1      54.374  32.700  54.937  0.00  0.00     0.079 A 
ATOM     10  O   UNL d   1      52.872  35.842  54.433  0.00  0.00    -0.263 OA
ATOM     11  N   UNL d   1      53.602  32.030  53.889  0.00  0.00    -0.126 N 
ATOM     12  C   UNL d   1      52.128  34.874  53.312  0.00  0.00     0.028 C 
ENDROOT
TORSDOF 0
ENDMDL
MODEL 4
REMARK VINA RESULT:      -7.1      1.365      1.641
REMARK  0 active torsions:
REMARK  status: ('A' for Active; 'I' for Inactive)
ROOT
ATOM      1  N   UNL d   1      52.732  33.693  53.447  0.00  0.00    -0.187 N 
ATOM      2  C   UNL d   1      52.174  33.420  52.904  0.00  0.00     0.200 A 
ATOM      3  N   UNL d   1      52.199  32.641  52.633  0.00  0.00    -0.181 NA
ATOM      4  N   UNL d   1      53.329  33.174  53.722  0.00  0.00    -0.157 NA
ATOM      5  C   UNL d   1      52.563  34.485  53.610  0.00  0.00     0.194 A 
ATOM      6  C   UNL d   1      52.786  32.128  52.902  0.00  0.00     0.300 A 
ATOM      7  C   UNL d   1      53.354  32.397  53.450  0.00  0.00     0.159 A 
ATOM      8  S   UNL d   1      51.660  34.043  52.734  0.00  0.00    -0.045 SA
ATOM      9  C   UNL d   1      51.904  34.706  53.175  0.00  0.00     0.079 A 
ATOM     10  O   UNL d   1      52.811  31.349  52.631  0.00  0.00    -0.263 OA
ATOM     11  N   UNL d   1      52.987  34.969  54.125  0.00  0.00    -0.126 N 
ATOM     12  C   UNL d   1      53.941  31.883  53.720  0.00  0.00     0.028 C 
ENDROOT
TORSDOF 0
ENDMDL
MODEL 5
REMARK VINA RESULT:      -6.9      1.471      2.201
REMARK  0 active torsions:
REMARK  status: ('A' for Active; 'I' for Inactive)
ROOT
ATOM      1  N   UNL d   1      53.208  32.917  53.740  0.00  0.00    -0.187 N 
ATOM      2  C   UNL d   1      52.847  32.481  53.140  0.00  0.00     0.200 A 
ATOM      3  N   UNL d   1      52.296  32.834  52.637  0.00  0.00    -0.181 NA
ATOM      4  N   UNL d   1      53.013  33.726  53.837  0.00  0.00    -0.157 NA
ATOM      5  C   UNL d   1      53.726  32.416  54.143  0.00  0.00     0.194 A 
ATOM      6  C   UNL d   1      52.102  33.630  52.731  0.00  0.00     0.300 A 
ATOM      7  C   UNL d   1      52.463  34.078  53.335  0.00  0.00     0.159 A 
ATOM      8  S   UNL d   1      53.142  31.711  53.175  0.00  0.00    -0.045 SA
ATOM      9  C   UNL d   1      53.689  31.672  53.800  0.00  0.00     0.079 A 
ATOM     10  O   UNL d   1      51.551  33.984  52.229  0.00  0.00    -0.263 OA
ATOM     11  N   UNL d   1      54.198  32.630  54.784  0.00  0.00    -0.126 N 
ATOM     12  C   UNL d   1      52.269  34.875  53.429  0.00  0.00     0.028 C 
ENDROOT
TORSDOF 0
ENDMDL
MODEL 6
REMARK VINA RESULT:      -4.6      9.724     10.003
REMARK  0 active torsions:
REMARK  status: ('A' for Active; 'I' for Inactive)
ROOT
ATOM      1  N   UNL d   1      45.004  28.961  57.242  0.00  0.00    -0.187 N 
ATOM      2  C   UNL d   1      45.080  28.966  58.064  0.00  0.00     0.200 A 
ATOM      3  N   UNL d   1      45.263  28.273  58.472  0.00  0.00    -0.181 NA
ATOM      4  N   UNL d   1      45.112  28.245  56.822  0.00  0.00    -0.157 NA
ATOM      5  C   UNL d   1      44.821  29.728  56.998  0.00  0.00     0.194 A 
ATOM      6  C   UNL d   1      45.370  27.567  58.061  0.00  0.00     0.300 A 
ATOM      7  C   UNL d   1      45.295  27.553  57.230  0.00  0.00     0.159 A 
ATOM      8  S   UNL d   1      44.945  29.737  58.325  0.00  0.00    -0.045 SA
ATOM      9  C   UNL d   1      44.784  30.211  57.660  0.00  0.00     0.079 A 
ATOM     10  O   UNL d   1      45.553  26.874  58.470  0.00  0.00    -0.263 OA
ATOM     11  N   UNL d   1      44.698  29.967  56.218  0.00  0.00    -0.126 N 
ATOM     12  C   UNL d   1      45.402  26.846  56.819  0.00  0.00     0.028 C 
ENDROOT
TORSDOF 0
ENDMDL
MODEL 7
REMARK VINA RESULT:      -4.5      9.796     10.112
REMARK  0 active torsions:
REMARK  status: ('A' for Active; 'I' for Inactive)
ROOT
ATOM      1  N   UNL d   1      45.200  28.547  57.957  0.00  0.00    -0.187 N 
ATOM      2  C   UNL d   1      44.986  28.886  57.236  0.00  0.00     0.200 A 
ATOM      3  N   UNL d   1      44.839  29.696  57.179  0.00  0.00    -0.181 NA
ATOM      4  N   UNL d   1      45.268  29.032  58.637  0.00  0.00    -0.157 NA
ATOM      5  C   UNL d   1      45.308  27.737  57.837  0.00  0.00     0.194 A 
ATOM      6  C   UNL d   1      44.906  30.175  57.847  0.00  0.00     0.300 A 
ATOM      7  C   UNL d   1      45.122  29.841  58.580  0.00  0.00     0.159 A 
ATOM      8  S   UNL d   1      44.962  28.284  56.672  0.00  0.00    -0.045 SA
ATOM      9  C   UNL d   1      45.163  27.569  57.048  0.00  0.00     0.079 A 
ATOM     10  O   UNL d   1      44.760  30.985  57.790  0.00  0.00    -0.263 OA
ATOM     11  N   UNL d   1      45.525  27.192  58.416  0.00  0.00    -0.126 N 
ATOM     12  C   UNL d   1      45.189  30.321  59.248  0.00  0.00     0.028 C 
ENDROOT
TORSDOF 0
ENDMDL
