MODEL 1
REMARK VINA RESULT:      -7.7      0.000      0.000
REMARK  4 active torsions:
REMARK  status: ('A' for Active; 'I' for Inactive)
REMARK    1  A    between atoms: C_5  and  N_1 
REMARK    2  A    between atoms: C_9  and  C_3 
REMARK    3  A    between atoms: C_7  and  C_5 
REMARK    4  A    between atoms: O_10  and  C_8 
ROOT
ATOM      1  N   UNL d   1     -47.825  13.147  23.164  0.00  0.00    -0.289 N 
ATOM      2  N   UNL d   1     -46.537  13.439  22.882  0.00  0.00    -0.227 NA
ATOM      3  C   UNL d   1     -47.315  13.749  22.894  0.00  0.00     0.148 A 
ATOM      4  C   UNL d   1     -47.368  12.465  23.320  0.00  0.00     0.083 A 
ATOM      5  C   UNL d   1     -46.570  12.645  23.146  0.00  0.00     0.099 A 
ATOM      6  C   UNL d   1     -47.558  11.704  23.596  0.00  0.00     0.019 A 
ATOM      7  C   UNL d   1     -45.981  12.076  23.247  0.00  0.00     0.021 A 
ATOM      8  C   UNL d   1     -46.969  11.131  23.698  0.00  0.00     0.002 A 
ATOM      9  C   UNL d   1     -46.182  11.317  23.523  0.00  0.00     0.002 A 
ENDROOT
BRANCH   1  10
ATOM     10  C   UNL d   1     -48.643  13.205  23.264  0.00  0.00     0.083 C 
BRANCH  10  11
ATOM     11  C   UNL d   1     -49.151  13.006  22.657  0.00  0.00     0.040 A 
ATOM     12  C   UNL d   1     -49.951  12.940  22.804  0.00  0.00     0.096 A 
ATOM     13  C   UNL d   1     -50.466  12.740  22.192  0.00  0.00     0.024 A 
ATOM     14  C   UNL d   1     -50.173  12.607  21.431  0.00  0.00     0.002 A 
ATOM     15  C   UNL d   1     -49.365  12.674  21.286  0.00  0.00     0.000 A 
ATOM     16  C   UNL d   1     -48.854  12.875  21.900  0.00  0.00     0.004 A 
BRANCH  12  17
ATOM     17  O   UNL d   1     -50.243  13.071  23.557  0.00  0.00    -0.328 OA
ATOM     18  C   UNL d   1     -51.056  13.163  23.681  0.00  0.00     0.181 C 
ENDBRANCH  12  17
ENDBRANCH  10  11
ENDBRANCH   1  10
BRANCH   3  19
ATOM     19  C   UNL d   1     -47.535  14.512  22.677  0.00  0.00     0.037 C 
ATOM     20  C   UNL d   1     -46.958  15.092  22.580  0.00  0.00     0.003 C 
ENDBRANCH   3  19
TORSDOF 4
ENDMDL
MODEL 2
REMARK VINA RESULT:      -6.6      1.355      1.596
REMARK  4 active torsions:
REMARK  status: ('A' for Active; 'I' for Inactive)
REMARK    1  A    between atoms: C_5  and  N_1 
REMARK    2  A    between atoms: C_9  and  C_3 
REMARK    3  A    between atoms: C_7  and  C_5 
REMARK    4  A    between atoms: O_10  and  C_8 
ROOT
ATOM      1  N   UNL d   1     -48.066  13.404  23.137  0.00  0.00    -0.289 N 
ATOM      2  N   UNL d   1     -47.010  12.578  22.968  0.00  0.00    -0.227 NA
ATOM      3  C   UNL d   1     -47.260  13.377  22.923  0.00  0.00     0.148 A 
ATOM      4  C   UNL d   1     -48.317  12.626  23.314  0.00  0.00     0.083 A 
ATOM      5  C   UNL d   1     -47.664  12.115  23.210  0.00  0.00     0.099 A 
ATOM      6  C   UNL d   1     -49.046  12.305  23.556  0.00  0.00     0.019 A 
ATOM      7  C   UNL d   1     -47.741  11.305  23.345  0.00  0.00     0.021 A 
ATOM      8  C   UNL d   1     -49.125  11.492  23.692  0.00  0.00     0.002 A 
ATOM      9  C   UNL d   1     -48.474  10.993  23.587  0.00  0.00     0.002 A 
ENDROOT
BRANCH   1  10
ATOM     10  C   UNL d   1     -48.543  14.077  23.171  0.00  0.00     0.083 C 
BRANCH  10  11
ATOM     11  C   UNL d   1     -49.087  14.232  22.583  0.00  0.00     0.040 A 
ATOM     12  C   UNL d   1     -49.691  14.763  22.719  0.00  0.00     0.096 A 
ATOM     13  C   UNL d   1     -50.241  14.921  22.125  0.00  0.00     0.024 A 
ATOM     14  C   UNL d   1     -50.180  14.543  21.394  0.00  0.00     0.002 A 
ATOM     15  C   UNL d   1     -49.569  14.007  21.259  0.00  0.00     0.000 A 
ATOM     16  C   UNL d   1     -49.022  13.852  21.855  0.00  0.00     0.004 A 
BRANCH  12  17
ATOM     17  O   UNL d   1     -49.753  15.139  23.443  0.00  0.00    -0.328 OA
ATOM     18  C   UNL d   1     -50.435  15.563  23.639  0.00  0.00     0.181 C 
ENDBRANCH  12  17
ENDBRANCH  10  11
ENDBRANCH   1  10
BRANCH   3  19
ATOM     19  C   UNL d   1     -46.793  14.019  22.707  0.00  0.00     0.037 C 
ATOM     20  C   UNL d   1     -45.985  13.915  22.589  0.00  0.00     0.003 C 
ENDBRANCH   3  19
TORSDOF 4
ENDMDL
MODEL 3
REMARK VINA RESULT:      -6.2      1.635      3.721
REMARK  4 active torsions:
REMARK  status: ('A' for Active; 'I' for Inactive)
REMARK    1  A    between atoms: C_5  and  N_1 
REMARK    2  A    between atoms: C_9  and  C_3 
REMARK    3  A    between atoms: C_7  and  C_5 
REMARK    4  A    between atoms: O_10  and  C_8 
ROOT
ATOM      1  N   UNL d   1     -48.855  13.647  22.172  0.00  0.00    -0.289 N 
ATOM      2  N   UNL d   1     -50.204  13.643  22.099  0.00  0.00    -0.227 NA
ATOM      3  C   UNL d   1     -49.512  13.225  21.880  0.00  0.00     0.148 A 
ATOM      4  C   UNL d   1     -49.135  14.325  22.572  0.00  0.00     0.083 A 
ATOM      5  C   UNL d   1     -49.970  14.324  22.528  0.00  0.00     0.099 A 
ATOM      6  C   UNL d   1     -48.754  14.948  22.973  0.00  0.00     0.019 A 
ATOM      7  C   UNL d   1     -50.409  14.930  22.875  0.00  0.00     0.021 A 
ATOM      8  C   UNL d   1     -49.193  15.557  23.322  0.00  0.00     0.002 A 
ATOM      9  C   UNL d   1     -50.019  15.548  23.274  0.00  0.00     0.002 A 
ENDROOT
BRANCH   1  10
ATOM     10  C   UNL d   1     -48.060  13.440  22.087  0.00  0.00     0.083 C 
BRANCH  10  11
ATOM     11  C   UNL d   1     -47.701  12.938  22.621  0.00  0.00     0.040 A 
ATOM     12  C   UNL d   1     -46.887  12.895  22.653  0.00  0.00     0.096 A 
ATOM     13  C   UNL d   1     -46.523  12.388  23.192  0.00  0.00     0.024 A 
ATOM     14  C   UNL d   1     -46.982  11.923  23.698  0.00  0.00     0.002 A 
ATOM     15  C   UNL d   1     -47.804  11.968  23.663  0.00  0.00     0.000 A 
ATOM     16  C   UNL d   1     -48.163  12.476  23.123  0.00  0.00     0.004 A 
BRANCH  12  17
ATOM     17  O   UNL d   1     -46.431  13.354  22.153  0.00  0.00    -0.328 OA
ATOM     18  C   UNL d   1     -45.605  13.327  22.194  0.00  0.00     0.181 C 
ENDBRANCH  12  17
ENDBRANCH  10  11
ENDBRANCH   1  10
BRANCH   3  19
ATOM     19  C   UNL d   1     -49.487  12.523  21.451  0.00  0.00     0.037 C 
ATOM     20  C   UNL d   1     -50.166  12.250  21.073  0.00  0.00     0.003 C 
ENDBRANCH   3  19
TORSDOF 4
ENDMDL
MODEL 4
REMARK VINA RESULT:      -5.5      8.116      9.765
REMARK  4 active torsions:
REMARK  status: ('A' for Active; 'I' for Inactive)
REMARK    1  A    between atoms: C_5  and  N_1 
REMARK    2  A    between atoms: C_9  and  C_3 
REMARK    3  A    between atoms: C_7  and  C_5 
REMARK    4  A    between atoms: O_10  and  C_8 
ROOT
ATOM      1  N   UNL d   1     -40.051  14.497  18.308  0.00  0.00    -0.289 N 
ATOM      2  N   UNL d   1     -39.229  14.502  17.237  0.00  0.00    -0.227 NA
ATOM      3  C   UNL d   1     -39.339  14.186  18.005  0.00  0.00     0.148 A 
ATOM      4  C   UNL d   1     -40.383  15.004  17.732  0.00  0.00     0.083 A 
ATOM      5  C   UNL d   1     -39.875  15.008  17.069  0.00  0.00     0.099 A 
ATOM      6  C   UNL d   1     -41.076  15.465  17.712  0.00  0.00     0.019 A 
ATOM      7  C   UNL d   1     -40.057  15.462  16.405  0.00  0.00     0.021 A 
ATOM      8  C   UNL d   1     -41.260  15.922  17.046  0.00  0.00     0.002 A 
ATOM      9  C   UNL d   1     -40.752  15.920  16.394  0.00  0.00     0.002 A 
ENDROOT
BRANCH   1  10
ATOM     10  C   UNL d   1     -40.381  14.338  19.049  0.00  0.00     0.083 C 
BRANCH  10  11
ATOM     11  C   UNL d   1     -40.212  14.812  19.690  0.00  0.00     0.040 A 
ATOM     12  C   UNL d   1     -40.657  14.746  20.371  0.00  0.00     0.096 A 
ATOM     13  C   UNL d   1     -40.487  15.226  21.021  0.00  0.00     0.024 A 
ATOM     14  C   UNL d   1     -39.868  15.771  20.982  0.00  0.00     0.002 A 
ATOM     15  C   UNL d   1     -39.421  15.836  20.293  0.00  0.00     0.000 A 
ATOM     16  C   UNL d   1     -39.594  15.355  19.647  0.00  0.00     0.004 A 
BRANCH  12  17
ATOM     17  O   UNL d   1     -41.270  14.207  20.411  0.00  0.00    -0.328 OA
ATOM     18  C   UNL d   1     -41.578  13.974  21.143  0.00  0.00     0.181 C 
ENDBRANCH  12  17
ENDBRANCH  10  11
ENDBRANCH   1  10
BRANCH   3  19
ATOM     19  C   UNL d   1     -38.834  13.663  18.390  0.00  0.00     0.037 C 
ATOM     20  C   UNL d   1     -38.352  13.161  17.949  0.00  0.00     0.003 C 
ENDBRANCH   3  19
TORSDOF 4
ENDMDL
MODEL 5
REMARK VINA RESULT:      -5.5      8.180      9.681
REMARK  4 active torsions:
REMARK  status: ('A' for Active; 'I' for Inactive)
REMARK    1  A    between atoms: C_5  and  N_1 
REMARK    2  A    between atoms: C_9  and  C_3 
REMARK    3  A    between atoms: C_7  and  C_5 
REMARK    4  A    between atoms: O_10  and  C_8 
ROOT
ATOM      1  N   UNL d   1     -39.629  15.001  20.257  0.00  0.00    -0.289 N 
ATOM      2  N   UNL d   1     -40.274  14.711  21.408  0.00  0.00    -0.227 NA
ATOM      3  C   UNL d   1     -40.310  15.171  20.708  0.00  0.00     0.148 A 
ATOM      4  C   UNL d   1     -39.172  14.438  20.672  0.00  0.00     0.083 A 
ATOM      5  C   UNL d   1     -39.571  14.258  21.385  0.00  0.00     0.099 A 
ATOM      6  C   UNL d   1     -38.449  14.059  20.508  0.00  0.00     0.019 A 
ATOM      7  C   UNL d   1     -39.252  13.715  21.917  0.00  0.00     0.021 A 
ATOM      8  C   UNL d   1     -38.127  13.513  21.041  0.00  0.00     0.002 A 
ATOM      9  C   UNL d   1     -38.528  13.341  21.744  0.00  0.00     0.002 A 
ENDROOT
BRANCH   1  10
ATOM     10  C   UNL d   1     -39.432  15.326  19.524  0.00  0.00     0.083 C 
BRANCH  10  11
ATOM     11  C   UNL d   1     -39.653  14.957  18.831  0.00  0.00     0.040 A 
ATOM     12  C   UNL d   1     -39.254  15.122  18.138  0.00  0.00     0.096 A 
ATOM     13  C   UNL d   1     -39.477  14.749  17.437  0.00  0.00     0.024 A 
ATOM     14  C   UNL d   1     -40.104  14.211  17.436  0.00  0.00     0.002 A 
ATOM     15  C   UNL d   1     -40.505  14.047  18.136  0.00  0.00     0.000 A 
ATOM     16  C   UNL d   1     -40.279  14.421  18.834  0.00  0.00     0.004 A 
BRANCH  12  17
ATOM     17  O   UNL d   1     -38.634  15.655  18.138  0.00  0.00    -0.328 OA
ATOM     18  C   UNL d   1     -38.310  15.922  17.425  0.00  0.00     0.181 C 
ENDBRANCH  12  17
ENDBRANCH  10  11
ENDBRANCH   1  10
BRANCH   3  19
ATOM     19  C   UNL d   1     -40.909  15.697  20.505  0.00  0.00     0.037 C 
ATOM     20  C   UNL d   1     -41.465  15.922  21.069  0.00  0.00     0.003 C 
ENDBRANCH   3  19
TORSDOF 4
ENDMDL
MODEL 6
REMARK VINA RESULT:      -5.3      9.263     10.825
REMARK  4 active torsions:
REMARK  status: ('A' for Active; 'I' for Inactive)
REMARK    1  A    between atoms: C_5  and  N_1 
REMARK    2  A    between atoms: C_9  and  C_3 
REMARK    3  A    between atoms: C_7  and  C_5 
REMARK    4  A    between atoms: O_10  and  C_8 
ROOT
ATOM      1  N   UNL d   1     -39.843  15.688  17.908  0.00  0.00    -0.289 N 
ATOM      2  N   UNL d   1     -41.061  15.695  18.492  0.00  0.00    -0.227 NA
ATOM      3  C   UNL d   1     -40.663  15.645  17.757  0.00  0.00     0.148 A 
ATOM      4  C   UNL d   1     -39.731  15.764  18.733  0.00  0.00     0.083 A 
ATOM      5  C   UNL d   1     -40.485  15.769  19.095  0.00  0.00     0.099 A 
ATOM      6  C   UNL d   1     -39.053  15.831  19.211  0.00  0.00     0.019 A 
ATOM      7  C   UNL d   1     -40.555  15.838  19.914  0.00  0.00     0.021 A 
ATOM      8  C   UNL d   1     -39.122  15.900  20.033  0.00  0.00     0.002 A 
ATOM      9  C   UNL d   1     -39.871  15.903  20.384  0.00  0.00     0.002 A 
ENDROOT
BRANCH   1  10
ATOM     10  C   UNL d   1     -39.238  15.661  17.346  0.00  0.00     0.083 C 
BRANCH  10  11
ATOM     11  C   UNL d   1     -38.960  14.947  17.068  0.00  0.00     0.040 A 
ATOM     12  C   UNL d   1     -38.466  14.929  16.419  0.00  0.00     0.096 A 
ATOM     13  C   UNL d   1     -38.183  14.207  16.137  0.00  0.00     0.024 A 
ATOM     14  C   UNL d   1     -38.401  13.503  16.510  0.00  0.00     0.002 A 
ATOM     15  C   UNL d   1     -38.900  13.524  17.165  0.00  0.00     0.000 A 
ATOM     16  C   UNL d   1     -39.180  14.247  17.444  0.00  0.00     0.004 A 
BRANCH  12  17
ATOM     17  O   UNL d   1     -38.249  15.625  16.048  0.00  0.00    -0.328 OA
ATOM     18  C   UNL d   1     -37.943  15.614  15.280  0.00  0.00     0.181 C 
ENDBRANCH  12  17
ENDBRANCH  10  11
ENDBRANCH   1  10
BRANCH   3  19
ATOM     19  C   UNL d   1     -41.018  15.568  17.019  0.00  0.00     0.037 C 
ATOM     20  C   UNL d   1     -41.750  15.919  16.878  0.00  0.00     0.003 C 
ENDBRANCH   3  19
TORSDOF 4
ENDMDL
MODEL 7
REMARK VINA RESULT:      -4.9      8.581     10.251
REMARK  4 active torsions:
REMARK  status: ('A' for Active; 'I' for Inactive)
REMARK    1  A    between atoms: C_5  and  N_1 
REMARK    2  A    between atoms: C_9  and  C_3 
REMARK    3  A    between atoms: C_7  and  C_5 
REMARK    4  A    between atoms: O_10  and  C_8 
ROOT
ATOM      1  N   UNL d   1     -39.154  14.803  19.804  0.00  0.00    -0.289 N 
ATOM      2  N   UNL d   1     -39.533  14.304  21.001  0.00  0.00    -0.227 NA
ATOM      3  C   UNL d   1     -38.930  14.286  20.419  0.00  0.00     0.148 A 
ATOM      4  C   UNL d   1     -39.893  15.141  20.001  0.00  0.00     0.083 A 
ATOM      5  C   UNL d   1     -40.128  14.833  20.741  0.00  0.00     0.099 A 
ATOM      6  C   UNL d   1     -40.389  15.687  19.615  0.00  0.00     0.019 A 
ATOM      7  C   UNL d   1     -40.841  15.066  21.084  0.00  0.00     0.021 A 
ATOM      8  C   UNL d   1     -41.105  15.922  19.958  0.00  0.00     0.002 A 
ATOM      9  C   UNL d   1     -41.331  15.612  20.691  0.00  0.00     0.002 A 
ENDROOT
BRANCH   1  10
ATOM     10  C   UNL d   1     -38.727  14.961  19.115  0.00  0.00     0.083 C 
BRANCH  10  11
ATOM     11  C   UNL d   1     -38.857  14.527  18.437  0.00  0.00     0.040 A 
ATOM     12  C   UNL d   1     -38.681  14.851  17.708  0.00  0.00     0.096 A 
ATOM     13  C   UNL d   1     -38.812  14.414  17.021  0.00  0.00     0.024 A 
ATOM     14  C   UNL d   1     -39.120  13.649  17.070  0.00  0.00     0.002 A 
ATOM     15  C   UNL d   1     -39.297  13.324  17.806  0.00  0.00     0.000 A 
ATOM     16  C   UNL d   1     -39.165  13.765  18.490  0.00  0.00     0.004 A 
BRANCH  12  17
ATOM     17  O   UNL d   1     -38.375  15.608  17.658  0.00  0.00    -0.328 OA
ATOM     18  C   UNL d   1     -37.940  15.842  16.995  0.00  0.00     0.181 C 
ENDBRANCH  12  17
ENDBRANCH  10  11
ENDBRANCH   1  10
BRANCH   3  19
ATOM     19  C   UNL d   1     -38.241  13.838  20.451  0.00  0.00     0.037 C 
ATOM     20  C   UNL d   1     -37.995  13.516  21.168  0.00  0.00     0.003 C 
ENDBRANCH   3  19
TORSDOF 4
ENDMDL
