MODEL 1
REMARK VINA RESULT:      -2.7      0.000      0.000
REMARK  3 active torsions:
REMARK  status: ('A' for Active; 'I' for Inactive)
REMARK    1  A    between atoms: C_10  and  N_1 
REMARK    2  A    between atoms: C_11  and  C_14 
REMARK    3  A    between atoms: O_20  and  C_11 
ROOT
ATOM      1  N   UNL d   1      32.933  20.111 -22.432  0.00  0.00    -0.242 N 
ATOM      2  C   UNL d   1      33.089  20.815 -22.796  0.00  0.00     0.267 A 
ATOM      3  C   UNL d   1      32.808  20.222 -21.625  0.00  0.00     0.267 A 
ATOM      4  C   UNL d   1      33.064  21.401 -22.201  0.00  0.00     0.061 A 
ATOM      5  C   UNL d   1      32.893  21.041 -21.490  0.00  0.00     0.061 A 
ATOM      6  C   UNL d   1      32.832  21.487 -20.794  0.00  0.00     0.005 A 
ATOM      7  C   UNL d   1      33.179  22.219 -22.238  0.00  0.00     0.005 A 
ATOM      8  C   UNL d   1      32.948  22.299 -20.840  0.00  0.00     0.000 A 
ATOM      9  C   UNL d   1      33.118  22.659 -21.550  0.00  0.00     0.000 A 
ATOM     10  O   UNL d   1      33.240  20.900 -23.604  0.00  0.00    -0.267 OA
ATOM     11  O   UNL d   1      32.630  19.636 -21.046  0.00  0.00    -0.267 OA
ATOM     12  C   UNL d   1      32.883  22.753 -20.119  0.00  0.00     0.000 C 
ATOM     13  C   UNL d   1      33.239  23.502 -21.600  0.00  0.00     0.000 C 
ENDROOT
BRANCH   1  14
ATOM     14  C   UNL d   1      32.887  19.354 -22.747  0.00  0.00     0.070 A 
ATOM     15  C   UNL d   1      32.477  19.222 -23.457  0.00  0.00     0.018 A 
ATOM     16  C   UNL d   1      32.424  18.473 -23.782  0.00  0.00     0.007 A 
ATOM     17  C   UNL d   1      32.788  17.851 -23.387  0.00  0.00     0.063 A 
ATOM     18  C   UNL d   1      33.200  17.976 -22.675  0.00  0.00     0.007 A 
ATOM     19  C   UNL d   1      33.240  18.732 -22.369  0.00  0.00     0.018 A 
BRANCH  17  20
ATOM     20  C   UNL d   1      32.741  17.072 -23.710  0.00  0.00     0.296 C 
ATOM     21  O   UNL d   1      33.089  16.902 -24.422  0.00  0.00    -0.259 OA
BRANCH  20  22
ATOM     22  O   UNL d   1      32.339  16.495 -23.287  0.00  0.00    -0.296 OA
ATOM     23  C   UNL d   1      32.310  15.729 -23.573  0.00  0.00     0.185 C 
ENDBRANCH  20  22
ENDBRANCH  17  20
ENDBRANCH   1  14
TORSDOF 3
ENDMDL
MODEL 2
REMARK VINA RESULT:      -2.3      0.332      1.267
REMARK  3 active torsions:
REMARK  status: ('A' for Active; 'I' for Inactive)
REMARK    1  A    between atoms: C_10  and  N_1 
REMARK    2  A    between atoms: C_11  and  C_14 
REMARK    3  A    between atoms: O_20  and  C_11 
ROOT
ATOM      1  N   UNL d   1      33.008  20.238 -22.106  0.00  0.00    -0.242 N 
ATOM      2  C   UNL d   1      32.926  20.416 -21.322  0.00  0.00     0.267 A 
ATOM      3  C   UNL d   1      33.122  20.923 -22.550  0.00  0.00     0.267 A 
ATOM      4  C   UNL d   1      32.990  21.246 -21.260  0.00  0.00     0.061 A 
ATOM      5  C   UNL d   1      33.108  21.554 -22.005  0.00  0.00     0.061 A 
ATOM      6  C   UNL d   1      33.193  22.371 -22.117  0.00  0.00     0.005 A 
ATOM      7  C   UNL d   1      32.951  21.746 -20.603  0.00  0.00     0.005 A 
ATOM      8  C   UNL d   1      33.153  22.861 -21.459  0.00  0.00     0.000 A 
ATOM      9  C   UNL d   1      33.035  22.553 -20.713  0.00  0.00     0.000 A 
ATOM     10  O   UNL d   1      32.804  19.856 -20.726  0.00  0.00    -0.267 OA
ATOM     11  O   UNL d   1      33.230  20.983 -23.384  0.00  0.00    -0.267 OA
ATOM     12  C   UNL d   1      33.241  23.701 -21.580  0.00  0.00     0.000 C 
ATOM     13  C   UNL d   1      32.993  23.060 -20.028  0.00  0.00     0.000 C 
ENDROOT
BRANCH   1  14
ATOM     14  C   UNL d   1      32.992  19.509 -22.485  0.00  0.00     0.070 A 
ATOM     15  C   UNL d   1      32.720  19.451 -23.267  0.00  0.00     0.018 A 
ATOM     16  C   UNL d   1      32.699  18.732 -23.656  0.00  0.00     0.007 A 
ATOM     17  C   UNL d   1      32.955  18.064 -23.252  0.00  0.00     0.063 A 
ATOM     18  C   UNL d   1      33.229  18.114 -22.468  0.00  0.00     0.007 A 
ATOM     19  C   UNL d   1      33.241  18.843 -22.099  0.00  0.00     0.018 A 
BRANCH  17  20
ATOM     20  C   UNL d   1      32.939  17.313 -23.640  0.00  0.00     0.296 C 
ATOM     21  O   UNL d   1      33.004  17.268 -24.446  0.00  0.00    -0.259 OA
BRANCH  20  22
ATOM     22  O   UNL d   1      32.857  16.637 -23.183  0.00  0.00    -0.296 OA
ATOM     23  C   UNL d   1      32.615  15.938 -23.532  0.00  0.00     0.185 C 
ENDBRANCH  20  22
ENDBRANCH  17  20
ENDBRANCH   1  14
TORSDOF 3
ENDMDL
