MODEL 1
REMARK VINA RESULT:      -9.2      0.000      0.000
REMARK  4 active torsions:
REMARK  status: ('A' for Active; 'I' for Inactive)
REMARK    1  A    between atoms: C_6  and  C_1 
REMARK       I    between atoms: N_9  and  C_6 
REMARK       I    between atoms: C_8  and  N_10 
REMARK    2  A    between atoms: C_11  and  C_8 
REMARK    3  A    between atoms: N_10  and  N_9 
REMARK    4  A    between atoms: O_22  and  C_13 
ROOT
ATOM      1  C   UNL d   1      51.095  34.161  53.072  0.00  0.00     0.123 A 
ATOM      2  C   UNL d   1      51.237  33.393  53.339  0.00  0.00     0.305 A 
ATOM      3  O   UNL d   1      51.919  33.223  53.737  0.00  0.00    -0.271 OA
ATOM      4  C   UNL d   1      51.640  34.738  53.211  0.00  0.00     0.012 A 
ATOM      5  C   UNL d   1      52.498  33.817  53.889  0.00  0.00     0.125 A 
ATOM      6  C   UNL d   1      52.356  34.584  53.622  0.00  0.00     0.025 A 
ATOM      7  O   UNL d   1      50.694  32.811  53.202  0.00  0.00    -0.259 OA
ATOM      8  C   UNL d   1      53.200  33.653  54.295  0.00  0.00     0.117 A 
ATOM      9  C   UNL d   1      52.920  35.168  53.769  0.00  0.00     0.002 A 
ATOM     10  C   UNL d   1      53.625  35.010  54.176  0.00  0.00     0.002 A 
ATOM     11  C   UNL d   1      53.766  34.243  54.442  0.00  0.00     0.026 A 
ENDROOT
BRANCH   1  12
ATOM     12  C   UNL d   1      50.409  34.355  52.666  0.00  0.00     0.302 C 
ATOM     13  N   UNL d   1      49.848  34.823  53.056  0.00  0.00    -0.102 NA
ATOM     14  O   UNL d   1      50.280  34.085  51.873  0.00  0.00    -0.263 OA
BRANCH  13  15
ATOM     15  N   UNL d   1      49.162  35.028  52.675  0.00  0.00    -0.102 NA
ATOM     16  C   UNL d   1      48.641  35.566  53.036  0.00  0.00     0.297 C 
ATOM     17  O   UNL d   1      48.811  35.886  53.761  0.00  0.00    -0.264 OA
BRANCH  16  18
ATOM     18  C   UNL d   1      47.948  35.777  52.658  0.00  0.00     0.059 A 
ATOM     19  C   UNL d   1      47.728  35.429  51.955  0.00  0.00     0.005 A 
ATOM     20  C   UNL d   1      47.036  35.636  51.573  0.00  0.00     0.007 A 
ATOM     21  C   UNL d   1      46.540  36.204  51.887  0.00  0.00     0.035 A 
ATOM     22  C   UNL d   1      46.761  36.568  52.611  0.00  0.00     0.007 A 
ATOM     23 BR   UNL d   1      45.847  36.409  51.499  0.00  0.00    -0.049 Br
ATOM     24  C   UNL d   1      47.454  36.359  52.993  0.00  0.00     0.005 A 
ENDBRANCH  16  18
ENDBRANCH  13  15
ENDBRANCH   1  12
BRANCH   8  25
ATOM     25  O   UNL d   1      53.340  32.894  54.559  0.00  0.00    -0.326 OA
ATOM     26  C   UNL d   1      54.027  32.717  54.949  0.00  0.00     0.181 C 
ENDBRANCH   8  25
TORSDOF 4
ENDMDL
MODEL 2
REMARK VINA RESULT:      -8.7      2.280      5.669
REMARK  4 active torsions:
REMARK  status: ('A' for Active; 'I' for Inactive)
REMARK    1  A    between atoms: C_6  and  C_1 
REMARK       I    between atoms: N_9  and  C_6 
REMARK       I    between atoms: C_8  and  N_10 
REMARK    2  A    between atoms: C_11  and  C_8 
REMARK    3  A    between atoms: N_10  and  N_9 
REMARK    4  A    between atoms: O_22  and  C_13 
ROOT
ATOM      1  C   UNL d   1      49.040  34.803  51.737  0.00  0.00     0.123 A 
ATOM      2  C   UNL d   1      48.487  34.509  51.200  0.00  0.00     0.305 A 
ATOM      3  O   UNL d   1      47.731  34.794  51.202  0.00  0.00    -0.271 OA
ATOM      4  C   UNL d   1      48.822  35.374  52.262  0.00  0.00     0.012 A 
ATOM      5  C   UNL d   1      47.488  35.391  51.745  0.00  0.00     0.125 A 
ATOM      6  C   UNL d   1      48.041  35.685  52.282  0.00  0.00     0.025 A 
ATOM      7  O   UNL d   1      48.702  33.937  50.672  0.00  0.00    -0.259 OA
ATOM      8  C   UNL d   1      46.717  35.690  51.755  0.00  0.00     0.117 A 
ATOM      9  C   UNL d   1      47.807  36.270  52.815  0.00  0.00     0.002 A 
ATOM     10  C   UNL d   1      47.036  36.572  52.830  0.00  0.00     0.002 A 
ATOM     11  C   UNL d   1      46.483  36.278  52.293  0.00  0.00     0.026 A 
ENDROOT
BRANCH   1  12
ATOM     12  C   UNL d   1      49.813  34.528  51.753  0.00  0.00     0.302 C 
ATOM     13  N   UNL d   1      50.118  34.271  52.478  0.00  0.00    -0.102 NA
ATOM     14  O   UNL d   1      50.283  34.509  51.048  0.00  0.00    -0.263 OA
BRANCH  13  15
ATOM     15  N   UNL d   1      50.879  33.995  52.519  0.00  0.00    -0.102 NA
ATOM     16  C   UNL d   1      51.156  33.665  53.229  0.00  0.00     0.297 C 
ATOM     17  O   UNL d   1      50.674  33.616  53.880  0.00  0.00    -0.264 OA
BRANCH  16  18
ATOM     18  C   UNL d   1      51.922  33.385  53.277  0.00  0.00     0.059 A 
ATOM     19  C   UNL d   1      52.108  32.626  53.045  0.00  0.00     0.005 A 
ATOM     20  C   UNL d   1      52.873  32.340  53.091  0.00  0.00     0.007 A 
ATOM     21  C   UNL d   1      53.478  32.811  53.374  0.00  0.00     0.035 A 
ATOM     22  C   UNL d   1      53.293  33.594  53.615  0.00  0.00     0.007 A 
ATOM     23 BR   UNL d   1      54.243  32.519  53.418  0.00  0.00    -0.049 Br
ATOM     24  C   UNL d   1      52.527  33.879  53.569  0.00  0.00     0.005 A 
ENDBRANCH  16  18
ENDBRANCH  13  15
ENDBRANCH   1  12
BRANCH   8  25
ATOM     25  O   UNL d   1      46.170  35.399  51.224  0.00  0.00    -0.326 OA
ATOM     26  C   UNL d   1      45.404  35.661  51.242  0.00  0.00     0.181 C 
ENDBRANCH   8  25
TORSDOF 4
ENDMDL
MODEL 3
REMARK VINA RESULT:      -7.8      2.091      5.932
REMARK  4 active torsions:
REMARK  status: ('A' for Active; 'I' for Inactive)
REMARK    1  A    between atoms: C_6  and  C_1 
REMARK       I    between atoms: N_9  and  C_6 
REMARK       I    between atoms: C_8  and  N_10 
REMARK    2  A    between atoms: C_11  and  C_8 
REMARK    3  A    between atoms: N_10  and  N_9 
REMARK    4  A    between atoms: O_22  and  C_13 
ROOT
ATOM      1  C   UNL d   1      47.998  35.807  53.086  0.00  0.00     0.123 A 
ATOM      2  C   UNL d   1      47.419  35.986  53.645  0.00  0.00     0.305 A 
ATOM      3  O   UNL d   1      46.654  36.101  53.411  0.00  0.00    -0.271 OA
ATOM      4  C   UNL d   1      47.797  35.747  52.308  0.00  0.00     0.012 A 
ATOM      5  C   UNL d   1      46.429  36.042  52.601  0.00  0.00     0.125 A 
ATOM      6  C   UNL d   1      47.008  35.863  52.042  0.00  0.00     0.025 A 
ATOM      7  O   UNL d   1      47.616  36.047  54.426  0.00  0.00    -0.259 OA
ATOM      8  C   UNL d   1      45.648  36.157  52.351  0.00  0.00     0.117 A 
ATOM      9  C   UNL d   1      46.792  35.804  51.248  0.00  0.00     0.002 A 
ATOM     10  C   UNL d   1      46.012  35.918  50.992  0.00  0.00     0.002 A 
ATOM     11  C   UNL d   1      45.433  36.098  51.551  0.00  0.00     0.026 A 
ENDROOT
BRANCH   1  12
ATOM     12  C   UNL d   1      48.781  35.687  53.301  0.00  0.00     0.302 C 
ATOM     13  N   UNL d   1      49.180  35.043  52.966  0.00  0.00    -0.102 NA
ATOM     14  O   UNL d   1      49.168  36.205  53.848  0.00  0.00    -0.263 OA
BRANCH  13  15
ATOM     15  N   UNL d   1      49.954  34.903  53.164  0.00  0.00    -0.102 NA
ATOM     16  C   UNL d   1      50.356  34.269  52.810  0.00  0.00     0.297 C 
ATOM     17  O   UNL d   1      49.985  33.789  52.271  0.00  0.00    -0.264 OA
BRANCH  16  18
ATOM     18  C   UNL d   1      51.136  34.122  53.004  0.00  0.00     0.059 A 
ATOM     19  C   UNL d   1      51.334  33.554  53.553  0.00  0.00     0.005 A 
ATOM     20  C   UNL d   1      52.113  33.403  53.751  0.00  0.00     0.007 A 
ATOM     21  C   UNL d   1      52.721  33.821  53.401  0.00  0.00     0.035 A 
ATOM     22  C   UNL d   1      52.525  34.408  52.834  0.00  0.00     0.007 A 
ATOM     23 BR   UNL d   1      53.501  33.665  53.604  0.00  0.00    -0.049 Br
ATOM     24  C   UNL d   1      51.745  34.559  52.636  0.00  0.00     0.005 A 
ENDBRANCH  16  18
ENDBRANCH  13  15
ENDBRANCH   1  12
BRANCH   8  25
ATOM     25  O   UNL d   1      45.075  36.334  52.905  0.00  0.00    -0.326 OA
ATOM     26  C   UNL d   1      44.316  36.488  52.670  0.00  0.00     0.181 C 
ENDBRANCH   8  25
TORSDOF 4
ENDMDL
MODEL 4
REMARK VINA RESULT:      -6.7      2.241      5.728
REMARK  4 active torsions:
REMARK  status: ('A' for Active; 'I' for Inactive)
REMARK    1  A    between atoms: C_6  and  C_1 
REMARK       I    between atoms: N_9  and  C_6 
REMARK       I    between atoms: C_8  and  N_10 
REMARK    2  A    between atoms: C_11  and  C_8 
REMARK    3  A    between atoms: N_10  and  N_9 
REMARK    4  A    between atoms: O_22  and  C_13 
ROOT
ATOM      1  C   UNL d   1      49.169  35.217  52.647  0.00  0.00     0.123 A 
ATOM      2  C   UNL d   1      48.694  35.602  53.201  0.00  0.00     0.305 A 
ATOM      3  O   UNL d   1      47.924  35.775  53.023  0.00  0.00    -0.271 OA
ATOM      4  C   UNL d   1      48.862  35.016  51.929  0.00  0.00     0.012 A 
ATOM      5  C   UNL d   1      47.590  35.570  52.277  0.00  0.00     0.125 A 
ATOM      6  C   UNL d   1      48.065  35.186  51.723  0.00  0.00     0.025 A 
ATOM      7  O   UNL d   1      48.997  35.806  53.921  0.00  0.00    -0.259 OA
ATOM      8  C   UNL d   1      46.804  35.743  52.085  0.00  0.00     0.117 A 
ATOM      9  C   UNL d   1      47.741  34.984  50.991  0.00  0.00     0.002 A 
ATOM     10  C   UNL d   1      46.955  35.154  50.793  0.00  0.00     0.002 A 
ATOM     11  C   UNL d   1      46.480  35.538  51.348  0.00  0.00     0.026 A 
ENDROOT
BRANCH   1  12
ATOM     12  C   UNL d   1      49.952  35.032  52.806  0.00  0.00     0.302 C 
ATOM     13  N   UNL d   1      50.159  34.232  52.852  0.00  0.00    -0.102 NA
ATOM     14  O   UNL d   1      50.530  35.641  52.921  0.00  0.00    -0.263 OA
BRANCH  13  15
ATOM     15  N   UNL d   1      50.927  34.024  53.009  0.00  0.00    -0.102 NA
ATOM     16  C   UNL d   1      51.108  33.231  53.178  0.00  0.00     0.297 C 
ATOM     17  O   UNL d   1      50.527  32.665  53.189  0.00  0.00    -0.264 OA
BRANCH  16  18
ATOM     18  C   UNL d   1      51.880  33.015  53.337  0.00  0.00     0.059 A 
ATOM     19  C   UNL d   1      52.250  32.430  52.907  0.00  0.00     0.005 A 
ATOM     20  C   UNL d   1      53.022  32.209  53.061  0.00  0.00     0.007 A 
ATOM     21  C   UNL d   1      53.448  32.570  53.657  0.00  0.00     0.035 A 
ATOM     22  C   UNL d   1      53.073  33.173  54.105  0.00  0.00     0.007 A 
ATOM     23 BR   UNL d   1      54.222  32.344  53.807  0.00  0.00    -0.049 Br
ATOM     24  C   UNL d   1      52.300  33.394  53.949  0.00  0.00     0.005 A 
ENDBRANCH  16  18
ENDBRANCH  13  15
ENDBRANCH   1  12
BRANCH   8  25
ATOM     25  O   UNL d   1      46.334  36.123  52.633  0.00  0.00    -0.326 OA
ATOM     26  C   UNL d   1      45.572  36.325  52.448  0.00  0.00     0.181 C 
ENDBRANCH   8  25
TORSDOF 4
ENDMDL
