MODEL 1
REMARK VINA RESULT:      -7.8      0.000      0.000
REMARK  5 active torsions:
REMARK  status: ('A' for Active; 'I' for Inactive)
REMARK    1  A    between atoms: S_8  and  C_2 
REMARK    2  A    between atoms: C_4  and  C_3 
REMARK    3  A    between atoms: C_18  and  S_8 
REMARK    4  A    between atoms: C_9  and  C_18 
REMARK       I    between atoms: N_11  and  C_9 
REMARK    5  A    between atoms: C_13  and  N_11 
ROOT
ATOM      1  C   UNL d   1     -47.331  13.842  22.834  0.00  0.00     0.096 A 
ATOM      2  C   UNL d   1     -48.080  13.542  23.110  0.00  0.00     0.120 A 
ATOM      3  C   UNL d   1     -46.660  13.346  22.838  0.00  0.00     0.085 A 
ATOM      4  N   UNL d   1     -48.117  12.762  23.376  0.00  0.00    -0.238 NA
ATOM      5  C   UNL d   1     -47.259  14.607  22.565  0.00  0.00     0.103 C 
ATOM      6  N   UNL d   1     -47.187  15.374  22.295  0.00  0.00    -0.191 NA
ATOM      7  C   UNL d   1     -46.715  12.560  23.110  0.00  0.00     0.024 A 
ATOM      8  C   UNL d   1     -47.464  12.260  23.387  0.00  0.00     0.082 A 
ATOM      9  C   UNL d   1     -47.543  11.506  23.653  0.00  0.00     0.021 C 
ENDROOT
BRANCH   2  10
ATOM     10  S   UNL d   1     -48.734  14.045  23.099  0.00  0.00    -0.062 SA
BRANCH  10  11
ATOM     11  C   UNL d   1     -49.473  13.769  22.875  0.00  0.00     0.099 C 
BRANCH  11  12
ATOM     12  C   UNL d   1     -50.149  14.196  23.090  0.00  0.00     0.281 C 
ATOM     13  N   UNL d   1     -50.849  14.057  22.704  0.00  0.00    -0.238 NA
ATOM     14  O   UNL d   1     -50.105  14.764  23.698  0.00  0.00    -0.265 OA
BRANCH  13  15
ATOM     15  C   UNL d   1     -50.886  13.497  22.106  0.00  0.00     0.088 C 
ATOM     16  C   UNL d   1     -50.925  12.919  21.498  0.00  0.00     0.025 C 
ATOM     17  C   UNL d   1     -50.719  14.074  21.557  0.00  0.00     0.025 C 
ATOM     18  C   UNL d   1     -51.051  12.936  22.661  0.00  0.00     0.025 C 
ENDBRANCH  13  15
ENDBRANCH  11  12
ENDBRANCH  10  11
ENDBRANCH   2  10
BRANCH   3  19
ATOM     19  C   UNL d   1     -45.941  13.635  22.573  0.00  0.00     0.419 C 
ATOM     20  F   UNL d   1     -45.228  13.921  22.310  0.00  0.00    -0.166 F 
ATOM     21  F   UNL d   1     -45.800  13.965  23.316  0.00  0.00    -0.166 F 
ATOM     22  F   UNL d   1     -46.083  13.304  21.828  0.00  0.00    -0.166 F 
ENDBRANCH   3  19
TORSDOF 5
ENDMDL
MODEL 2
REMARK VINA RESULT:      -7.4      1.428      2.122
REMARK  5 active torsions:
REMARK  status: ('A' for Active; 'I' for Inactive)
REMARK    1  A    between atoms: S_8  and  C_2 
REMARK    2  A    between atoms: C_4  and  C_3 
REMARK    3  A    between atoms: C_18  and  S_8 
REMARK    4  A    between atoms: C_9  and  C_18 
REMARK       I    between atoms: N_11  and  C_9 
REMARK    5  A    between atoms: C_13  and  N_11 
ROOT
ATOM      1  C   UNL d   1     -46.970  13.187  22.961  0.00  0.00     0.096 A 
ATOM      2  C   UNL d   1     -47.814  13.212  23.085  0.00  0.00     0.120 A 
ATOM      3  C   UNL d   1     -46.571  13.871  22.699  0.00  0.00     0.085 A 
ATOM      4  N   UNL d   1     -48.212  13.919  22.940  0.00  0.00    -0.238 NA
ATOM      5  C   UNL d   1     -46.546  12.506  23.094  0.00  0.00     0.103 C 
ATOM      6  N   UNL d   1     -46.120  11.822  23.227  0.00  0.00    -0.191 NA
ATOM      7  C   UNL d   1     -46.989  14.579  22.557  0.00  0.00     0.024 A 
ATOM      8  C   UNL d   1     -47.832  14.603  22.681  0.00  0.00     0.082 A 
ATOM      9  C   UNL d   1     -48.258  15.272  22.552  0.00  0.00     0.021 C 
ENDROOT
BRANCH   2  10
ATOM     10  S   UNL d   1     -48.193  12.527  23.344  0.00  0.00    -0.062 SA
BRANCH  10  11
ATOM     11  C   UNL d   1     -48.994  12.413  23.208  0.00  0.00     0.099 C 
BRANCH  11  12
ATOM     12  C   UNL d   1     -49.336  11.681  23.388  0.00  0.00     0.281 C 
ATOM     13  N   UNL d   1     -50.129  11.568  23.259  0.00  0.00    -0.238 NA
ATOM     14  O   UNL d   1     -48.866  11.067  23.698  0.00  0.00    -0.265 OA
BRANCH  13  15
ATOM     15  C   UNL d   1     -50.588  12.176  22.953  0.00  0.00     0.088 C 
ATOM     16  C   UNL d   1     -51.059  12.799  22.646  0.00  0.00     0.025 C 
ATOM     17  C   UNL d   1     -50.313  12.006  22.206  0.00  0.00     0.025 C 
ATOM     18  C   UNL d   1     -50.851  12.334  23.698  0.00  0.00     0.025 C 
ENDBRANCH  13  15
ENDBRANCH  11  12
ENDBRANCH  10  11
ENDBRANCH   2  10
BRANCH   3  19
ATOM     19  C   UNL d   1     -45.761  13.848  22.580  0.00  0.00     0.419 C 
ATOM     20  F   UNL d   1     -44.957  13.824  22.461  0.00  0.00    -0.166 F 
ATOM     21  F   UNL d   1     -45.881  13.516  21.834  0.00  0.00    -0.166 F 
ATOM     22  F   UNL d   1     -45.641  14.181  23.327  0.00  0.00    -0.166 F 
ENDBRANCH   3  19
TORSDOF 5
ENDMDL
MODEL 3
REMARK VINA RESULT:      -6.6      2.257      4.144
REMARK  5 active torsions:
REMARK  status: ('A' for Active; 'I' for Inactive)
REMARK    1  A    between atoms: S_8  and  C_2 
REMARK    2  A    between atoms: C_4  and  C_3 
REMARK    3  A    between atoms: C_18  and  S_8 
REMARK    4  A    between atoms: C_9  and  C_18 
REMARK       I    between atoms: N_11  and  C_9 
REMARK    5  A    between atoms: C_13  and  N_11 
ROOT
ATOM      1  C   UNL d   1     -49.247  12.943  22.268  0.00  0.00     0.096 A 
ATOM      2  C   UNL d   1     -48.635  13.241  22.782  0.00  0.00     0.120 A 
ATOM      3  C   UNL d   1     -49.890  13.433  22.063  0.00  0.00     0.085 A 
ATOM      4  N   UNL d   1     -48.700  14.014  23.062  0.00  0.00    -0.238 NA
ATOM      5  C   UNL d   1     -49.215  12.185  21.973  0.00  0.00     0.103 C 
ATOM      6  N   UNL d   1     -49.182  11.425  21.678  0.00  0.00    -0.191 NA
ATOM      7  C   UNL d   1     -49.940  14.212  22.355  0.00  0.00     0.024 A 
ATOM      8  C   UNL d   1     -49.328  14.511  22.868  0.00  0.00     0.082 A 
ATOM      9  C   UNL d   1     -49.353  15.258  23.163  0.00  0.00     0.021 C 
ENDROOT
BRANCH   2  10
ATOM     10  S   UNL d   1     -48.006  12.744  22.975  0.00  0.00    -0.062 SA
BRANCH  10  11
ATOM     11  C   UNL d   1     -47.232  13.015  22.948  0.00  0.00     0.099 C 
BRANCH  11  12
ATOM     12  C   UNL d   1     -46.625  12.538  23.248  0.00  0.00     0.281 C 
ATOM     13  N   UNL d   1     -45.852  12.735  23.098  0.00  0.00    -0.238 NA
ATOM     14  O   UNL d   1     -46.810  11.862  23.698  0.00  0.00    -0.265 OA
BRANCH  13  15
ATOM     15  C   UNL d   1     -45.675  13.403  22.653  0.00  0.00     0.088 C 
ATOM     16  C   UNL d   1     -45.493  14.081  22.194  0.00  0.00     0.025 C 
ATOM     17  C   UNL d   1     -45.813  13.871  23.305  0.00  0.00     0.025 C 
ATOM     18  C   UNL d   1     -45.543  12.926  22.017  0.00  0.00     0.025 C 
ENDBRANCH  13  15
ENDBRANCH  11  12
ENDBRANCH  10  11
ENDBRANCH   2  10
BRANCH   3  19
ATOM     19  C   UNL d   1     -50.477  13.146  21.569  0.00  0.00     0.419 C 
ATOM     20  F   UNL d   1     -51.060  12.861  21.080  0.00  0.00    -0.166 F 
ATOM     21  F   UNL d   1     -50.896  12.875  22.226  0.00  0.00    -0.166 F 
ATOM     22  F   UNL d   1     -50.057  13.418  20.911  0.00  0.00    -0.166 F 
ENDBRANCH   3  19
TORSDOF 5
ENDMDL
MODEL 4
REMARK VINA RESULT:      -6.1      2.228      3.844
REMARK  5 active torsions:
REMARK  status: ('A' for Active; 'I' for Inactive)
REMARK    1  A    between atoms: S_8  and  C_2 
REMARK    2  A    between atoms: C_4  and  C_3 
REMARK    3  A    between atoms: C_18  and  S_8 
REMARK    4  A    between atoms: C_9  and  C_18 
REMARK       I    between atoms: N_11  and  C_9 
REMARK    5  A    between atoms: C_13  and  N_11 
ROOT
ATOM      1  C   UNL d   1     -49.239  13.128  22.193  0.00  0.00     0.096 A 
ATOM      2  C   UNL d   1     -48.605  13.020  22.753  0.00  0.00     0.120 A 
ATOM      3  C   UNL d   1     -49.852  12.563  22.148  0.00  0.00     0.085 A 
ATOM      4  N   UNL d   1     -48.619  12.354  23.238  0.00  0.00    -0.238 NA
ATOM      5  C   UNL d   1     -49.257  13.774  21.698  0.00  0.00     0.103 C 
ATOM      6  N   UNL d   1     -49.275  14.422  21.203  0.00  0.00    -0.191 NA
ATOM      7  C   UNL d   1     -49.850  11.895  22.647  0.00  0.00     0.024 A 
ATOM      8  C   UNL d   1     -49.216  11.787  23.207  0.00  0.00     0.082 A 
ATOM      9  C   UNL d   1     -49.192  11.152  23.698  0.00  0.00     0.021 C 
ENDROOT
BRANCH   2  10
ATOM     10  S   UNL d   1     -48.007  13.587  22.784  0.00  0.00    -0.062 SA
BRANCH  10  11
ATOM     11  C   UNL d   1     -47.218  13.365  22.795  0.00  0.00     0.099 C 
BRANCH  11  12
ATOM     12  C   UNL d   1     -46.643  13.920  23.014  0.00  0.00     0.281 C 
ATOM     13  N   UNL d   1     -45.858  13.731  22.940  0.00  0.00    -0.238 NA
ATOM     14  O   UNL d   1     -46.874  14.665  23.306  0.00  0.00    -0.265 OA
BRANCH  13  15
ATOM     15  C   UNL d   1     -45.635  12.996  22.651  0.00  0.00     0.088 C 
ATOM     16  C   UNL d   1     -45.407  12.246  22.350  0.00  0.00     0.025 C 
ATOM     17  C   UNL d   1     -45.744  12.674  23.391  0.00  0.00     0.025 C 
ATOM     18  C   UNL d   1     -45.532  13.328  21.924  0.00  0.00     0.025 C 
ENDBRANCH  13  15
ENDBRANCH  11  12
ENDBRANCH  10  11
ENDBRANCH   2  10
BRANCH   3  19
ATOM     19  C   UNL d   1     -50.460  12.667  21.610  0.00  0.00     0.419 C 
ATOM     20  F   UNL d   1     -51.064  12.770  21.076  0.00  0.00    -0.166 F 
ATOM     21  F   UNL d   1     -50.894  13.077  22.180  0.00  0.00    -0.166 F 
ATOM     22  F   UNL d   1     -50.025  12.257  21.039  0.00  0.00    -0.166 F 
ENDBRANCH   3  19
TORSDOF 5
ENDMDL
MODEL 5
REMARK VINA RESULT:      -5.8      2.185      3.796
REMARK  5 active torsions:
REMARK  status: ('A' for Active; 'I' for Inactive)
REMARK    1  A    between atoms: S_8  and  C_2 
REMARK    2  A    between atoms: C_4  and  C_3 
REMARK    3  A    between atoms: C_18  and  S_8 
REMARK    4  A    between atoms: C_9  and  C_18 
REMARK       I    between atoms: N_11  and  C_9 
REMARK    5  A    between atoms: C_13  and  N_11 
ROOT
ATOM      1  C   UNL d   1     -49.241  14.019  22.405  0.00  0.00     0.096 A 
ATOM      2  C   UNL d   1     -48.693  13.543  22.854  0.00  0.00     0.120 A 
ATOM      3  C   UNL d   1     -50.012  13.735  22.259  0.00  0.00     0.085 A 
ATOM      4  N   UNL d   1     -48.947  12.809  23.132  0.00  0.00    -0.238 NA
ATOM      5  C   UNL d   1     -49.024  14.748  22.115  0.00  0.00     0.103 C 
ATOM      6  N   UNL d   1     -48.807  15.479  21.825  0.00  0.00    -0.191 NA
ATOM      7  C   UNL d   1     -50.252  12.991  22.548  0.00  0.00     0.024 A 
ATOM      8  C   UNL d   1     -49.704  12.515  22.997  0.00  0.00     0.082 A 
ATOM      9  C   UNL d   1     -49.911  11.795  23.285  0.00  0.00     0.021 C 
ENDROOT
BRANCH   2  10
ATOM     10  S   UNL d   1     -47.935  13.838  22.989  0.00  0.00    -0.062 SA
BRANCH  10  11
ATOM     11  C   UNL d   1     -47.293  13.332  23.053  0.00  0.00     0.099 C 
BRANCH  11  12
ATOM     12  C   UNL d   1     -46.566  13.630  23.314  0.00  0.00     0.281 C 
ATOM     13  N   UNL d   1     -45.903  13.166  23.265  0.00  0.00    -0.238 NA
ATOM     14  O   UNL d   1     -46.520  14.402  23.624  0.00  0.00    -0.265 OA
BRANCH  13  15
ATOM     15  C   UNL d   1     -45.953  12.406  22.959  0.00  0.00     0.088 C 
ATOM     16  C   UNL d   1     -46.003  11.631  22.640  0.00  0.00     0.025 C 
ATOM     17  C   UNL d   1     -46.157  12.125  23.695  0.00  0.00     0.025 C 
ATOM     18  C   UNL d   1     -45.751  12.699  22.235  0.00  0.00     0.025 C 
ENDBRANCH  13  15
ENDBRANCH  11  12
ENDBRANCH  10  11
ENDBRANCH   2  10
BRANCH   3  19
ATOM     19  C   UNL d   1     -50.538  14.192  21.829  0.00  0.00     0.419 C 
ATOM     20  F   UNL d   1     -51.059  14.646  21.401  0.00  0.00    -0.166 F 
ATOM     21  F   UNL d   1     -50.808  14.539  22.527  0.00  0.00    -0.166 F 
ATOM     22  F   UNL d   1     -50.267  13.845  21.129  0.00  0.00    -0.166 F 
ENDBRANCH   3  19
TORSDOF 5
ENDMDL
MODEL 6
REMARK VINA RESULT:      -5.7      8.973     10.334
REMARK  5 active torsions:
REMARK  status: ('A' for Active; 'I' for Inactive)
REMARK    1  A    between atoms: S_8  and  C_2 
REMARK    2  A    between atoms: C_4  and  C_3 
REMARK    3  A    between atoms: C_18  and  S_8 
REMARK    4  A    between atoms: C_9  and  C_18 
REMARK       I    between atoms: N_11  and  C_9 
REMARK    5  A    between atoms: C_13  and  N_11 
ROOT
ATOM      1  C   UNL d   1     -39.290  14.305  17.140  0.00  0.00     0.096 A 
ATOM      2  C   UNL d   1     -39.520  13.904  17.856  0.00  0.00     0.120 A 
ATOM      3  C   UNL d   1     -38.676  13.992  16.670  0.00  0.00     0.085 A 
ATOM      4  N   UNL d   1     -39.123  13.211  18.063  0.00  0.00    -0.238 NA
ATOM      5  C   UNL d   1     -39.661  14.991  16.905  0.00  0.00     0.103 C 
ATOM      6  N   UNL d   1     -40.032  15.678  16.670  0.00  0.00    -0.191 NA
ATOM      7  C   UNL d   1     -38.285  13.291  16.893  0.00  0.00     0.024 A 
ATOM      8  C   UNL d   1     -38.515  12.889  17.610  0.00  0.00     0.082 A 
ATOM      9  C   UNL d   1     -38.154  12.212  17.848  0.00  0.00     0.021 C 
ENDROOT
BRANCH   2  10
ATOM     10  S   UNL d   1     -40.129  14.226  18.309  0.00  0.00    -0.062 SA
BRANCH  10  11
ATOM     11  C   UNL d   1     -40.045  14.320  19.120  0.00  0.00     0.099 C 
BRANCH  11  12
ATOM     12  C   UNL d   1     -40.717  14.296  19.604  0.00  0.00     0.281 C 
ATOM     13  N   UNL d   1     -40.692  14.637  20.339  0.00  0.00    -0.238 NA
ATOM     14  O   UNL d   1     -41.410  13.921  19.333  0.00  0.00    -0.265 OA
BRANCH  13  15
ATOM     15  C   UNL d   1     -40.006  15.005  20.600  0.00  0.00     0.088 C 
ATOM     16  C   UNL d   1     -39.303  15.375  20.870  0.00  0.00     0.025 C 
ATOM     17  C   UNL d   1     -40.275  15.714  20.304  0.00  0.00     0.025 C 
ATOM     18  C   UNL d   1     -39.753  14.296  20.888  0.00  0.00     0.025 C 
ENDBRANCH  13  15
ENDBRANCH  11  12
ENDBRANCH  10  11
ENDBRANCH   2  10
BRANCH   3  19
ATOM     19  C   UNL d   1     -38.455  14.378  15.982  0.00  0.00     0.419 C 
ATOM     20  F   UNL d   1     -38.236  14.761  15.299  0.00  0.00    -0.166 F 
ATOM     21  F   UNL d   1     -38.970  13.900  15.549  0.00  0.00    -0.166 F 
ATOM     22  F   UNL d   1     -37.940  14.857  16.416  0.00  0.00    -0.166 F 
ENDBRANCH   3  19
TORSDOF 5
ENDMDL
MODEL 7
REMARK VINA RESULT:      -5.3      8.328      9.787
REMARK  5 active torsions:
REMARK  status: ('A' for Active; 'I' for Inactive)
REMARK    1  A    between atoms: S_8  and  C_2 
REMARK    2  A    between atoms: C_4  and  C_3 
REMARK    3  A    between atoms: C_18  and  S_8 
REMARK    4  A    between atoms: C_9  and  C_18 
REMARK       I    between atoms: N_11  and  C_9 
REMARK    5  A    between atoms: C_13  and  N_11 
ROOT
ATOM      1  C   UNL d   1     -39.350  14.480  20.594  0.00  0.00     0.096 A 
ATOM      2  C   UNL d   1     -39.849  14.589  19.911  0.00  0.00     0.120 A 
ATOM      3  C   UNL d   1     -39.543  14.862  21.311  0.00  0.00     0.085 A 
ATOM      4  N   UNL d   1     -40.513  15.073  19.982  0.00  0.00    -0.238 NA
ATOM      5  C   UNL d   1     -38.687  14.010  20.560  0.00  0.00     0.103 C 
ATOM      6  N   UNL d   1     -38.023  13.538  20.525  0.00  0.00    -0.191 NA
ATOM      7  C   UNL d   1     -40.218  15.347  21.366  0.00  0.00     0.024 A 
ATOM      8  C   UNL d   1     -40.717  15.456  20.683  0.00  0.00     0.082 A 
ATOM      9  C   UNL d   1     -41.372  15.919  20.710  0.00  0.00     0.021 C 
ENDROOT
BRANCH   2  10
ATOM     10  S   UNL d   1     -39.645  14.205  19.210  0.00  0.00    -0.062 SA
BRANCH  10  11
ATOM     11  C   UNL d   1     -39.785  14.557  18.483  0.00  0.00     0.099 C 
BRANCH  11  12
ATOM     12  C   UNL d   1     -39.898  14.079  17.816  0.00  0.00     0.281 C 
ATOM     13  N   UNL d   1     -39.727  14.374  17.080  0.00  0.00    -0.238 NA
ATOM     14  O   UNL d   1     -40.184  13.302  17.905  0.00  0.00    -0.265 OA
BRANCH  13  15
ATOM     15  C   UNL d   1     -39.445  15.141  16.997  0.00  0.00     0.088 C 
ATOM     16  C   UNL d   1     -39.151  15.922  16.914  0.00  0.00     0.025 C 
ATOM     17  C   UNL d   1     -40.210  15.416  16.964  0.00  0.00     0.025 C 
ATOM     18  C   UNL d   1     -38.693  14.853  17.032  0.00  0.00     0.025 C 
ENDBRANCH  13  15
ENDBRANCH  11  12
ENDBRANCH  10  11
ENDBRANCH   2  10
BRANCH   3  19
ATOM     19  C   UNL d   1     -39.064  14.757  21.967  0.00  0.00     0.419 C 
ATOM     20  F   UNL d   1     -38.588  14.653  22.618  0.00  0.00    -0.166 F 
ATOM     21  F   UNL d   1     -39.503  14.093  22.183  0.00  0.00    -0.166 F 
ATOM     22  F   UNL d   1     -38.623  15.423  21.751  0.00  0.00    -0.166 F 
ENDBRANCH   3  19
TORSDOF 5
ENDMDL
MODEL 8
REMARK VINA RESULT:      -5.2      9.013     10.001
REMARK  5 active torsions:
REMARK  status: ('A' for Active; 'I' for Inactive)
REMARK    1  A    between atoms: S_8  and  C_2 
REMARK    2  A    between atoms: C_4  and  C_3 
REMARK    3  A    between atoms: C_18  and  S_8 
REMARK    4  A    between atoms: C_9  and  C_18 
REMARK       I    between atoms: N_11  and  C_9 
REMARK    5  A    between atoms: C_13  and  N_11 
ROOT
ATOM      1  C   UNL d   1     -40.075  14.753  18.383  0.00  0.00     0.096 A 
ATOM      2  C   UNL d   1     -39.746  14.324  19.043  0.00  0.00     0.120 A 
ATOM      3  C   UNL d   1     -39.823  14.574  17.608  0.00  0.00     0.085 A 
ATOM      4  N   UNL d   1     -39.184  13.739  18.891  0.00  0.00    -0.238 NA
ATOM      5  C   UNL d   1     -40.631  15.335  18.496  0.00  0.00     0.103 C 
ATOM      6  N   UNL d   1     -41.189  15.920  18.610  0.00  0.00    -0.191 NA
ATOM      7  C   UNL d   1     -39.254  13.980  17.472  0.00  0.00     0.024 A 
ATOM      8  C   UNL d   1     -38.925  13.551  18.132  0.00  0.00     0.082 A 
ATOM      9  C   UNL d   1     -38.376  12.975  18.028  0.00  0.00     0.021 C 
ENDROOT
BRANCH   2  10
ATOM     10  S   UNL d   1     -40.005  14.512  19.803  0.00  0.00    -0.062 SA
BRANCH  10  11
ATOM     11  C   UNL d   1     -39.471  14.602  20.418  0.00  0.00     0.099 C 
BRANCH  11  12
ATOM     12  C   UNL d   1     -39.726  14.485  21.198  0.00  0.00     0.281 C 
ATOM     13  N   UNL d   1     -39.306  14.813  21.809  0.00  0.00    -0.238 NA
ATOM     14  O   UNL d   1     -40.409  14.032  21.347  0.00  0.00    -0.265 OA
BRANCH  13  15
ATOM     15  C   UNL d   1     -38.633  15.258  21.655  0.00  0.00     0.088 C 
ATOM     16  C   UNL d   1     -37.950  15.719  21.499  0.00  0.00     0.025 C 
ATOM     17  C   UNL d   1     -38.184  14.580  21.664  0.00  0.00     0.025 C 
ATOM     18  C   UNL d   1     -39.091  15.922  21.650  0.00  0.00     0.025 C 
ENDBRANCH  13  15
ENDBRANCH  11  12
ENDBRANCH  10  11
ENDBRANCH   2  10
BRANCH   3  19
ATOM     19  C   UNL d   1     -40.139  14.986  16.974  0.00  0.00     0.419 C 
ATOM     20  F   UNL d   1     -40.452  15.394  16.345  0.00  0.00    -0.166 F 
ATOM     21  F   UNL d   1     -39.522  15.531  17.021  0.00  0.00    -0.166 F 
ATOM     22  F   UNL d   1     -40.757  14.439  16.926  0.00  0.00    -0.166 F 
ENDBRANCH   3  19
TORSDOF 5
ENDMDL
