MODEL 1
REMARK VINA RESULT:      78.3      0.000      0.000
REMARK  4 active torsions:
REMARK  status: ('A' for Active; 'I' for Inactive)
REMARK    1  A    between atoms: N_5  and  S_1 
REMARK    2  A    between atoms: C_8  and  S_1 
REMARK    3  A    between atoms: C_2  and  C_7 
REMARK    4  A    between atoms: C_11  and  N_5 
ROOT
ATOM      1  C   UNL d   1      59.393  49.489  51.171  0.00  0.00     0.025 A 
ATOM      2  C   UNL d   1      60.063  49.230  50.767  0.00  0.00     0.020 A 
ATOM      3  C   UNL d   1      60.788  49.183  51.147  0.00  0.00     0.094 A 
ATOM      4  C   UNL d   1      59.442  49.705  51.964  0.00  0.00     0.002 A 
ATOM      5  C   UNL d   1      60.836  49.402  51.950  0.00  0.00     0.020 A 
ATOM      6  C   UNL d   1      60.004  49.014  49.969  0.00  0.00     0.002 C 
ATOM      7  C   UNL d   1      60.160  49.663  52.354  0.00  0.00     0.002 A 
ENDROOT
BRANCH   3   8
ATOM      8  N   UNL d   1      61.453  48.927  50.750  0.00  0.00    -0.158 NA
BRANCH   8   9
ATOM      9  S   UNL d   1      61.500  48.149  50.481  0.00  0.00     0.285 S 
ATOM     10  O   UNL d   1      61.249  47.887  51.228  0.00  0.00    -0.198 OA
ATOM     11  O   UNL d   1      61.751  48.420  49.739  0.00  0.00    -0.198 OA
BRANCH   9  12
ATOM     12  C   UNL d   1      61.546  47.369  50.216  0.00  0.00     0.107 A 
ATOM     13  C   UNL d   1      61.235  46.760  50.685  0.00  0.00     0.040 A 
ATOM     14  C   UNL d   1      61.287  45.985  50.408  0.00  0.00     0.123 A 
ATOM     15  O   UNL d   1      60.984  45.376  50.861  0.00  0.00    -0.301 OA
ATOM     16  C   UNL d   1      61.639  45.815  49.681  0.00  0.00     0.123 A 
ATOM     17  C   UNL d   1      61.028  44.597  50.599  0.00  0.00     0.149 A 
ATOM     18  C   UNL d   1      61.382  44.435  49.872  0.00  0.00     0.149 A 
ATOM     19  O   UNL d   1      61.685  45.044  49.418  0.00  0.00    -0.301 OA
ATOM     20  C   UNL d   1      61.943  46.428  49.227  0.00  0.00     0.028 A 
ATOM     21  C   UNL d   1      61.898  47.208  49.492  0.00  0.00     0.015 A 
ENDBRANCH   9  12
ENDBRANCH   8   9
ENDBRANCH   3   8
BRANCH   1  22
ATOM     22  C   UNL d   1      58.659  49.532  50.772  0.00  0.00     0.112 A 
ATOM     23  S   UNL d   1      58.557  49.616  49.960  0.00  0.00    -0.047 SA
ATOM     24  C   UNL d   1      57.741  49.635  49.799  0.00  0.00     0.130 A 
ATOM     25  N   UNL d   1      57.305  49.707  49.112  0.00  0.00    -0.236 NA
ATOM     26  C   UNL d   1      57.346  49.560  50.534  0.00  0.00     0.106 A 
ATOM     27  C   UNL d   1      56.486  49.706  49.138  0.00  0.00     0.100 A 
ATOM     28  C   UNL d   1      56.093  49.633  49.858  0.00  0.00     0.022 A 
ATOM     29  C   UNL d   1      56.521  49.561  50.555  0.00  0.00     0.023 A 
ATOM     30  N   UNL d   1      57.916  49.497  51.136  0.00  0.00    -0.237 NA
ENDBRANCH   1  22
TORSDOF 4
ENDMDL
