MODEL 1
REMARK VINA RESULT:      -5.0      0.000      0.000
REMARK  4 active torsions:
REMARK  status: ('A' for Active; 'I' for Inactive)
REMARK    1  A    between atoms: C_2  and  C_1 
REMARK    2  A    between atoms: C_3  and  C_2 
REMARK    3  A    between atoms: C_5  and  C_3 
REMARK    4  A    between atoms: O_12  and  C_7 
ROOT
ATOM      1  C   UNL d   1     -41.298-122.721 -53.408  0.00  0.00     0.000 A 
ATOM      2  C   UNL d   1     -41.181-123.254 -51.850  0.00  0.00     0.094 A 
ATOM      3  C   UNL d   1     -41.349-122.184 -52.780  0.00  0.00     0.002 A 
ATOM      4  C   UNL d   1     -41.188-123.526 -53.253  0.00  0.00     0.002 A 
ATOM      5  C   UNL d   1     -41.291-122.449 -52.005  0.00  0.00     0.024 A 
ATOM      6  C   UNL d   1     -41.130-123.789 -52.471  0.00  0.00     0.024 A 
ENDROOT
BRANCH   1   7
ATOM      7  C   UNL d   1     -41.357-122.447 -54.185  0.00  0.00     0.006 C 
BRANCH   7   8
ATOM      8  C   UNL d   1     -42.095-122.225 -54.482  0.00  0.00     0.070 C 
BRANCH   8   9
ATOM      9  C   UNL d   1     -42.156-121.930 -55.246  0.00  0.00     0.211 C 
ATOM     10  O   UNL d   1     -42.881-121.948 -55.633  0.00  0.00    -0.644 OA
ATOM     11  O   UNL d   1     -41.498-121.620 -55.621  0.00  0.00    -0.644 OA
ENDBRANCH   8   9
ENDBRANCH   7   8
ENDBRANCH   1   7
BRANCH   2  12
ATOM     12  O   UNL d   1     -41.123-123.519 -51.076  0.00  0.00    -0.328 OA
ATOM     13  C   UNL d   1     -41.705-123.324 -50.528  0.00  0.00     0.181 C 
ENDBRANCH   2  12
TORSDOF 4
ENDMDL
MODEL 2
REMARK VINA RESULT:      -4.8      0.487      1.062
REMARK  4 active torsions:
REMARK  status: ('A' for Active; 'I' for Inactive)
REMARK    1  A    between atoms: C_2  and  C_1 
REMARK    2  A    between atoms: C_3  and  C_2 
REMARK    3  A    between atoms: C_5  and  C_3 
REMARK    4  A    between atoms: O_12  and  C_7 
ROOT
ATOM      1  C   UNL d   1     -41.185-122.709 -52.946  0.00  0.00     0.000 A 
ATOM      2  C   UNL d   1     -41.148-123.283 -51.398  0.00  0.00     0.094 A 
ATOM      3  C   UNL d   1     -41.151-123.524 -52.806  0.00  0.00     0.002 A 
ATOM      4  C   UNL d   1     -41.200-122.183 -52.308  0.00  0.00     0.002 A 
ATOM      5  C   UNL d   1     -41.133-123.810 -52.036  0.00  0.00     0.024 A 
ATOM      6  C   UNL d   1     -41.181-122.474 -51.534  0.00  0.00     0.024 A 
ENDROOT
BRANCH   1   7
ATOM      7  C   UNL d   1     -41.203-122.429 -53.722  0.00  0.00     0.006 C 
BRANCH   7   8
ATOM      8  C   UNL d   1     -41.923-122.392 -54.124  0.00  0.00     0.070 C 
BRANCH   8   9
ATOM      9  C   UNL d   1     -41.972-121.995 -54.841  0.00  0.00     0.211 C 
ATOM     10  O   UNL d   1     -41.338-122.016 -55.364  0.00  0.00    -0.644 OA
ATOM     11  O   UNL d   1     -42.650-121.579 -55.034  0.00  0.00    -0.644 OA
ENDBRANCH   8   9
ENDBRANCH   7   8
ENDBRANCH   1   7
BRANCH   2  12
ATOM     12  O   UNL d   1     -41.130-123.569 -50.629  0.00  0.00    -0.328 OA
ATOM     13  C   UNL d   1     -41.833-123.724 -50.231  0.00  0.00     0.181 C 
ENDBRANCH   2  12
TORSDOF 4
ENDMDL
MODEL 3
REMARK VINA RESULT:      -4.1      0.748      3.588
REMARK  4 active torsions:
REMARK  status: ('A' for Active; 'I' for Inactive)
REMARK    1  A    between atoms: C_2  and  C_1 
REMARK    2  A    between atoms: C_3  and  C_2 
REMARK    3  A    between atoms: C_5  and  C_3 
REMARK    4  A    between atoms: O_12  and  C_7 
ROOT
ATOM      1  C   UNL d   1     -41.249-123.022 -52.770  0.00  0.00     0.000 A 
ATOM      2  C   UNL d   1     -41.494-122.732 -54.377  0.00  0.00     0.094 A 
ATOM      3  C   UNL d   1     -41.168-123.635 -53.319  0.00  0.00     0.002 A 
ATOM      4  C   UNL d   1     -41.453-122.263 -53.027  0.00  0.00     0.002 A 
ATOM      5  C   UNL d   1     -41.289-123.491 -54.119  0.00  0.00     0.024 A 
ATOM      6  C   UNL d   1     -41.575-122.122 -53.833  0.00  0.00     0.024 A 
ENDROOT
BRANCH   1   7
ATOM      7  C   UNL d   1     -41.125-123.174 -51.967  0.00  0.00     0.006 C 
BRANCH   7   8
ATOM      8  C   UNL d   1     -41.623-122.828 -51.407  0.00  0.00     0.070 C 
BRANCH   8   9
ATOM      9  C   UNL d   1     -41.586-123.069 -50.623  0.00  0.00     0.211 C 
ATOM     10  O   UNL d   1     -42.008-123.730 -50.378  0.00  0.00    -0.644 OA
ATOM     11  O   UNL d   1     -41.130-122.650 -50.086  0.00  0.00    -0.644 OA
ENDBRANCH   8   9
ENDBRANCH   7   8
ENDBRANCH   1   7
BRANCH   2  12
ATOM     12  O   UNL d   1     -41.615-122.589 -55.175  0.00  0.00    -0.328 OA
ATOM     13  C   UNL d   1     -42.198-122.059 -55.414  0.00  0.00     0.181 C 
ENDBRANCH   2  12
TORSDOF 4
ENDMDL
MODEL 4
REMARK VINA RESULT:      -3.8      1.318      3.980
REMARK  4 active torsions:
REMARK  status: ('A' for Active; 'I' for Inactive)
REMARK    1  A    between atoms: C_2  and  C_1 
REMARK    2  A    between atoms: C_3  and  C_2 
REMARK    3  A    between atoms: C_5  and  C_3 
REMARK    4  A    between atoms: O_12  and  C_7 
ROOT
ATOM      1  C   UNL d   1     -41.470-122.957 -51.306  0.00  0.00     0.000 A 
ATOM      2  C   UNL d   1     -41.238-122.509 -52.878  0.00  0.00     0.094 A 
ATOM      3  C   UNL d   1     -41.244-123.519 -51.869  0.00  0.00     0.002 A 
ATOM      4  C   UNL d   1     -41.581-122.169 -51.533  0.00  0.00     0.002 A 
ATOM      5  C   UNL d   1     -41.128-123.297 -52.651  0.00  0.00     0.024 A 
ATOM      6  C   UNL d   1     -41.464-121.949 -52.322  0.00  0.00     0.024 A 
ENDROOT
BRANCH   1   7
ATOM      7  C   UNL d   1     -41.585-123.187 -50.521  0.00  0.00     0.006 C 
BRANCH   7   8
ATOM      8  C   UNL d   1     -42.115-122.768 -50.048  0.00  0.00     0.070 C 
BRANCH   8   9
ATOM      9  C   UNL d   1     -42.284-123.032 -49.289  0.00  0.00     0.211 C 
ATOM     10  O   UNL d   1     -42.953-123.490 -49.155  0.00  0.00    -0.644 OA
ATOM     11  O   UNL d   1     -41.786-122.840 -48.667  0.00  0.00    -0.644 OA
ENDBRANCH   8   9
ENDBRANCH   7   8
ENDBRANCH   1   7
BRANCH   2  12
ATOM     12  O   UNL d   1     -41.123-122.287 -53.660  0.00  0.00    -0.328 OA
ATOM     13  C   UNL d   1     -41.612-122.587 -54.250  0.00  0.00     0.181 C 
ENDBRANCH   2  12
TORSDOF 4
ENDMDL
MODEL 5
REMARK VINA RESULT:      -3.7      1.914      3.172
REMARK  4 active torsions:
REMARK  status: ('A' for Active; 'I' for Inactive)
REMARK    1  A    between atoms: C_2  and  C_1 
REMARK    2  A    between atoms: C_3  and  C_2 
REMARK    3  A    between atoms: C_5  and  C_3 
REMARK    4  A    between atoms: O_12  and  C_7 
ROOT
ATOM      1  C   UNL d   1     -41.993-122.593 -50.343  0.00  0.00     0.000 A 
ATOM      2  C   UNL d   1     -42.369-123.253 -48.877  0.00  0.00     0.094 A 
ATOM      3  C   UNL d   1     -42.719-122.423 -49.984  0.00  0.00     0.002 A 
ATOM      4  C   UNL d   1     -41.455-123.095 -49.964  0.00  0.00     0.002 A 
ATOM      5  C   UNL d   1     -42.906-122.751 -49.255  0.00  0.00     0.024 A 
ATOM      6  C   UNL d   1     -41.647-123.424 -49.230  0.00  0.00     0.024 A 
ENDROOT
BRANCH   1   7
ATOM      7  C   UNL d   1     -41.811-122.259 -51.076  0.00  0.00     0.006 C 
BRANCH   7   8
ATOM      8  C   UNL d   1     -41.302-122.658 -51.589  0.00  0.00     0.070 C 
BRANCH   8   9
ATOM      9  C   UNL d   1     -41.240-122.419 -52.372  0.00  0.00     0.211 C 
ATOM     10  O   UNL d   1     -41.297-122.976 -52.974  0.00  0.00    -0.644 OA
ATOM     11  O   UNL d   1     -41.123-121.629 -52.552  0.00  0.00    -0.644 OA
ENDBRANCH   8   9
ENDBRANCH   7   8
ENDBRANCH   1   7
BRANCH   2  12
ATOM     12  O   UNL d   1     -42.556-123.581 -48.149  0.00  0.00    -0.328 OA
ATOM     13  C   UNL d   1     -42.087-123.421 -47.492  0.00  0.00     0.181 C 
ENDBRANCH   2  12
TORSDOF 4
ENDMDL
MODEL 6
REMARK VINA RESULT:      -3.5      0.794      1.007
REMARK  4 active torsions:
REMARK  status: ('A' for Active; 'I' for Inactive)
REMARK    1  A    between atoms: C_2  and  C_1 
REMARK    2  A    between atoms: C_3  and  C_2 
REMARK    3  A    between atoms: C_5  and  C_3 
REMARK    4  A    between atoms: O_12  and  C_7 
ROOT
ATOM      1  C   UNL d   1     -41.425-122.428 -52.620  0.00  0.00     0.000 A 
ATOM      2  C   UNL d   1     -41.229-122.817 -51.027  0.00  0.00     0.094 A 
ATOM      3  C   UNL d   1     -41.376-121.831 -52.049  0.00  0.00     0.002 A 
ATOM      4  C   UNL d   1     -41.375-123.221 -52.390  0.00  0.00     0.002 A 
ATOM      5  C   UNL d   1     -41.279-122.024 -51.257  0.00  0.00     0.024 A 
ATOM      6  C   UNL d   1     -41.277-123.412 -51.591  0.00  0.00     0.024 A 
ENDROOT
BRANCH   1   7
ATOM      7  C   UNL d   1     -41.523-122.227 -53.414  0.00  0.00     0.006 C 
BRANCH   7   8
ATOM      8  C   UNL d   1     -41.528-122.821 -53.987  0.00  0.00     0.070 C 
BRANCH   8   9
ATOM      9  C   UNL d   1     -41.623-122.627 -54.778  0.00  0.00     0.211 C 
ATOM     10  O   UNL d   1     -41.841-121.862 -54.989  0.00  0.00    -0.644 OA
ATOM     11  O   UNL d   1     -41.502-123.193 -55.358  0.00  0.00    -0.644 OA
ENDBRANCH   8   9
ENDBRANCH   7   8
ENDBRANCH   1   7
BRANCH   2  12
ATOM     12  O   UNL d   1     -41.132-123.011 -50.236  0.00  0.00    -0.328 OA
ATOM     13  C   UNL d   1     -41.188-123.795 -49.993  0.00  0.00     0.181 C 
ENDBRANCH   2  12
TORSDOF 4
ENDMDL
