MODEL 1
REMARK VINA RESULT:      66.5      0.000      0.000
REMARK  5 active torsions:
REMARK  status: ('A' for Active; 'I' for Inactive)
REMARK    1  A    between atoms: N_2  and  C_14 
REMARK    2  A    between atoms: C_17  and  N_4 
REMARK    3  A    between atoms: C_15  and  C_9 
REMARK    4  A    between atoms: C_14  and  O_16 
REMARK    5  A    between atoms: O_16  and  C_15 
ROOT
ATOM      1  C   UNL d   1     -47.860  29.998  35.073  0.00  0.00     0.114 A 
ATOM      2  C   UNL d   1     -47.719  29.538  35.743  0.00  0.00     0.044 A 
ATOM      3  N   UNL d   1     -47.656  30.772  35.253  0.00  0.00    -0.224 N 
ATOM      4  N   UNL d   1     -47.390  30.796  36.026  0.00  0.00    -0.165 NA
ATOM      5  S   UNL d   1     -48.147  29.510  34.493  0.00  0.00    -0.062 SA
ATOM      6  C   UNL d   1     -48.189  28.744  34.788  0.00  0.00     0.094 A 
ATOM      7  C   UNL d   1     -47.920  28.771  35.571  0.00  0.00     0.015 A 
ATOM      8  C   UNL d   1     -47.426  30.041  36.335  0.00  0.00     0.103 A 
ATOM      9  C   UNL d   1     -47.212  29.812  37.092  0.00  0.00     0.022 C 
ENDROOT
BRANCH   6  10
ATOM     10  C   UNL d   1     -48.450  28.078  34.384  0.00  0.00     0.307 C 
ATOM     11  O   UNL d   1     -47.964  27.408  34.336  0.00  0.00    -0.258 OA
BRANCH  10  12
ATOM     12  O   UNL d   1     -49.195  28.074  34.026  0.00  0.00    -0.252 OA
BRANCH  12  13
ATOM     13  C   UNL d   1     -49.332  27.596  33.363  0.00  0.00     0.216 C 
BRANCH  13  14
ATOM     14  N   UNL d   1     -49.983  27.086  33.349  0.00  0.00    -0.218 N 
ATOM     15  C   UNL d   1     -50.770  27.313  33.342  0.00  0.00     0.269 A 
ATOM     16  C   UNL d   1     -51.237  26.630  33.329  0.00  0.00     0.061 A 
ATOM     17  O   UNL d   1     -51.056  28.092  33.346  0.00  0.00    -0.267 OA
ATOM     18  C   UNL d   1     -52.051  26.512  33.317  0.00  0.00     0.005 A 
ATOM     19  C   UNL d   1     -50.727  25.979  33.329  0.00  0.00     0.061 A 
ATOM     20  C   UNL d   1     -52.358  25.752  33.306  0.00  0.00     0.000 A 
ATOM     21  C   UNL d   1     -51.848  25.101  33.306  0.00  0.00     0.000 A 
ATOM     22  C   UNL d   1     -51.031  25.210  33.317  0.00  0.00     0.005 A 
ATOM     23  C   UNL d   1     -49.944  26.258  33.342  0.00  0.00     0.269 A 
ATOM     24  O   UNL d   1     -49.262  25.801  33.346  0.00  0.00    -0.267 OA
ENDBRANCH  13  14
ENDBRANCH  12  13
ENDBRANCH  10  12
ENDBRANCH   6  10
BRANCH   3  25
ATOM     25  C   UNL d   1     -47.709  31.416  34.740  0.00  0.00     0.083 A 
ATOM     26  C   UNL d   1     -47.036  31.855  34.570  0.00  0.00     0.019 A 
ATOM     27  C   UNL d   1     -47.089  32.499  34.058  0.00  0.00     0.002 A 
ATOM     28  C   UNL d   1     -47.815  32.705  33.716  0.00  0.00     0.000 A 
ATOM     29  C   UNL d   1     -48.493  32.257  33.894  0.00  0.00     0.002 A 
ATOM     30  C   UNL d   1     -48.443  31.615  34.403  0.00  0.00     0.019 A 
ENDBRANCH   3  25
TORSDOF 5
ENDMDL
MODEL 2
REMARK VINA RESULT:      68.3      1.409      6.055
REMARK  5 active torsions:
REMARK  status: ('A' for Active; 'I' for Inactive)
REMARK    1  A    between atoms: N_2  and  C_14 
REMARK    2  A    between atoms: C_17  and  N_4 
REMARK    3  A    between atoms: C_15  and  C_9 
REMARK    4  A    between atoms: C_14  and  O_16 
REMARK    5  A    between atoms: O_16  and  C_15 
ROOT
ATOM      1  C   UNL d   1     -51.068  26.132  33.536  0.00  0.00     0.114 A 
ATOM      2  C   UNL d   1     -51.303  26.922  33.506  0.00  0.00     0.044 A 
ATOM      3  N   UNL d   1     -51.736  25.667  33.429  0.00  0.00    -0.224 N 
ATOM      4  N   UNL d   1     -52.381  26.162  33.332  0.00  0.00    -0.165 NA
ATOM      5  S   UNL d   1     -50.267  26.116  33.661  0.00  0.00    -0.062 SA
ATOM      6  C   UNL d   1     -49.991  26.888  33.709  0.00  0.00     0.094 A 
ATOM      7  C   UNL d   1     -50.646  27.386  33.611  0.00  0.00     0.015 A 
ATOM      8  C   UNL d   1     -52.123  26.935  33.378  0.00  0.00     0.103 A 
ATOM      9  C   UNL d   1     -52.585  27.608  33.312  0.00  0.00     0.022 C 
ENDROOT
BRANCH   6  10
ATOM     10  C   UNL d   1     -49.214  27.123  33.832  0.00  0.00     0.307 C 
ATOM     11  O   UNL d   1     -48.592  26.626  33.604  0.00  0.00    -0.258 OA
BRANCH  10  12
ATOM     12  O   UNL d   1     -49.050  27.854  34.183  0.00  0.00    -0.252 OA
BRANCH  12  13
ATOM     13  C   UNL d   1     -48.311  27.988  34.532  0.00  0.00     0.216 C 
BRANCH  13  14
ATOM     14  N   UNL d   1     -48.117  28.742  34.810  0.00  0.00    -0.218 N 
ATOM     15  C   UNL d   1     -48.363  29.452  34.482  0.00  0.00     0.269 A 
ATOM     16  C   UNL d   1     -48.043  30.070  34.931  0.00  0.00     0.061 A 
ATOM     17  O   UNL d   1     -48.849  29.542  33.816  0.00  0.00    -0.267 OA
ATOM     18  C   UNL d   1     -48.096  30.888  34.869  0.00  0.00     0.005 A 
ATOM     19  C   UNL d   1     -47.596  29.731  35.539  0.00  0.00     0.061 A 
ATOM     20  C   UNL d   1     -47.709  31.369  35.408  0.00  0.00     0.000 A 
ATOM     21  C   UNL d   1     -47.262  31.030  36.017  0.00  0.00     0.000 A 
ATOM     22  C   UNL d   1     -47.203  30.212  36.086  0.00  0.00     0.005 A 
ATOM     23  C   UNL d   1     -47.639  28.904  35.468  0.00  0.00     0.269 A 
ATOM     24  O   UNL d   1     -47.278  28.351  35.957  0.00  0.00    -0.267 OA
ENDBRANCH  13  14
ENDBRANCH  12  13
ENDBRANCH  10  12
ENDBRANCH   6  10
BRANCH   3  25
ATOM     25  C   UNL d   1     -51.754  24.843  33.420  0.00  0.00     0.083 A 
ATOM     26  C   UNL d   1     -51.055  24.424  33.315  0.00  0.00     0.019 A 
ATOM     27  C   UNL d   1     -51.073  23.599  33.306  0.00  0.00     0.002 A 
ATOM     28  C   UNL d   1     -51.789  23.194  33.402  0.00  0.00     0.000 A 
ATOM     29  C   UNL d   1     -52.493  23.625  33.507  0.00  0.00     0.002 A 
ATOM     30  C   UNL d   1     -52.478  24.446  33.517  0.00  0.00     0.019 A 
ENDBRANCH   3  25
TORSDOF 5
ENDMDL
