MODEL 1
REMARK VINA RESULT:      12.4      0.000      0.000
REMARK  3 active torsions:
REMARK  status: ('A' for Active; 'I' for Inactive)
REMARK    1  A    between atoms: C_2  and  C_1 
REMARK    2  A    between atoms: C_6  and  C_2 
REMARK    3  A    between atoms: C_9  and  C_6 
ROOT
ATOM      1  C   UNL d   1      45.984 -17.091  44.138  0.00  0.00     0.199 C 
ATOM      2  O   UNL d   1      45.949 -16.722  43.399  0.00  0.00    -0.286 OA
ENDROOT
BRANCH   1   3
ATOM      3  C   UNL d   1      46.149 -17.899  44.180  0.00  0.00     0.078 A 
ATOM      4  C   UNL d   1      46.347 -18.324  43.485  0.00  0.00     0.202 A 
ATOM      5  C   UNL d   1      46.511 -19.134  43.538  0.00  0.00     0.084 A 
ATOM      6  O   UNL d   1      46.375 -17.928  42.762  0.00  0.00    -0.286 OA
ATOM      7  C   UNL d   1      46.483 -19.527  44.259  0.00  0.00     0.199 A 
ATOM      8  C   UNL d   1      46.284 -19.102  44.954  0.00  0.00     0.042 A 
ATOM      9  O   UNL d   1      46.646 -20.330  44.307  0.00  0.00    -0.286 OA
ATOM     10  C   UNL d   1      46.120 -18.295  44.912  0.00  0.00     0.010 A 
ENDBRANCH   1   3
BRANCH   1  11
ATOM     11  C   UNL d   1      45.855 -16.654  44.825  0.00  0.00     0.042 C 
BRANCH  11  12
ATOM     12  C   UNL d   1      45.709 -15.843  44.783  0.00  0.00     0.003 A 
ATOM     13  C   UNL d   1      46.339 -15.327  44.707  0.00  0.00     0.001 A 
ATOM     14  C   UNL d   1      46.192 -14.516  44.665  0.00  0.00     0.007 A 
ATOM     15  C   UNL d   1      45.417 -14.219  44.699  0.00  0.00     0.035 A 
ATOM     16  C   UNL d   1      44.789 -14.750  44.776  0.00  0.00     0.007 A 
ATOM     17 BR   UNL d   1      45.274 -13.412  44.657  0.00  0.00    -0.049 Br
ATOM     18  C   UNL d   1      44.933 -15.564  44.819  0.00  0.00     0.001 A 
ENDBRANCH  11  12
ENDBRANCH   1  11
TORSDOF 3
ENDMDL
MODEL 2
REMARK VINA RESULT:      14.6      2.021      4.216
REMARK  3 active torsions:
REMARK  status: ('A' for Active; 'I' for Inactive)
REMARK    1  A    between atoms: C_2  and  C_1 
REMARK    2  A    between atoms: C_6  and  C_2 
REMARK    3  A    between atoms: C_9  and  C_6 
ROOT
ATOM      1  C   UNL d   1      45.683 -16.305  44.520  0.00  0.00     0.199 C 
ATOM      2  O   UNL d   1      45.165 -16.781  44.955  0.00  0.00    -0.286 OA
ENDROOT
BRANCH   1   3
ATOM      3  C   UNL d   1      45.648 -15.485  44.605  0.00  0.00     0.078 A 
ATOM      4  C   UNL d   1      44.928 -15.116  44.825  0.00  0.00     0.202 A 
ATOM      5  C   UNL d   1      44.904 -14.292  44.908  0.00  0.00     0.084 A 
ATOM      6  O   UNL d   1      44.259 -15.579  44.955  0.00  0.00    -0.286 OA
ATOM      7  C   UNL d   1      45.571 -13.832  44.778  0.00  0.00     0.199 A 
ATOM      8  C   UNL d   1      46.292 -14.201  44.558  0.00  0.00     0.042 A 
ATOM      9  O   UNL d   1      45.543 -13.016  44.860  0.00  0.00    -0.286 OA
ATOM     10  C   UNL d   1      46.327 -15.021  44.473  0.00  0.00     0.010 A 
ENDBRANCH   1   3
BRANCH   1  11
ATOM     11  C   UNL d   1      46.229 -16.650  44.007  0.00  0.00     0.042 C 
BRANCH  11  12
ATOM     12  C   UNL d   1      46.255 -17.470  43.914  0.00  0.00     0.003 A 
ATOM     13  C   UNL d   1      46.282 -17.947  44.578  0.00  0.00     0.001 A 
ATOM     14  C   UNL d   1      46.308 -18.766  44.484  0.00  0.00     0.007 A 
ATOM     15  C   UNL d   1      46.307 -19.110  43.728  0.00  0.00     0.035 A 
ATOM     16  C   UNL d   1      46.279 -18.618  43.066  0.00  0.00     0.007 A 
ATOM     17 BR   UNL d   1      46.333 -19.926  43.638  0.00  0.00    -0.049 Br
ATOM     18  C   UNL d   1      46.253 -17.796  43.156  0.00  0.00     0.001 A 
ENDBRANCH  11  12
ENDBRANCH   1  11
TORSDOF 3
ENDMDL
