MODEL 1
REMARK VINA RESULT:      27.2      0.000      0.000
REMARK  5 active torsions:
REMARK  status: ('A' for Active; 'I' for Inactive)
REMARK    1  A    between atoms: C_2  and  N_1 
REMARK    2  A    between atoms: C_5  and  N_1 
REMARK    3  A    between atoms: C_7  and  C_2 
REMARK    4  A    between atoms: C_4  and  O_6 
REMARK    5  A    between atoms: O_6  and  C_8 
ROOT
ATOM      1  C   UNL d   1      15.026  15.172  -0.489  0.00  0.00     0.020 A 
ATOM      2  C   UNL d   1      15.386  16.512  -1.384  0.00  0.00     0.105 A 
ATOM      3  C   UNL d   1      15.439  15.798  -0.141  0.00  0.00     0.004 A 
ATOM      4  C   UNL d   1      14.790  15.204  -1.273  0.00  0.00     0.004 A 
ATOM      5  C   UNL d   1      15.615  16.460  -0.590  0.00  0.00     0.025 A 
ATOM      6  C   UNL d   1      14.966  15.866  -1.721  0.00  0.00     0.025 A 
ENDROOT
BRANCH   1   7
ATOM      7  C   UNL d   1      14.845  14.492  -0.028  0.00  0.00     0.108 C 
BRANCH   7   8
ATOM      8  N   UNL d   1      15.204  13.769  -0.221  0.00  0.00    -0.184 N 
ATOM      9  O   UNL d   1      16.023  13.710  -0.295  0.00  0.00    -0.080 OA
BRANCH   8  10
ATOM     10  C   UNL d   1      14.730  13.108  -0.338  0.00  0.00     0.090 A 
ATOM     11  C   UNL d   1      13.966  13.100  -0.014  0.00  0.00     0.020 A 
ATOM     12  C   UNL d   1      13.490  12.437  -0.132  0.00  0.00     0.002 A 
ATOM     13  C   UNL d   1      13.776  11.779  -0.575  0.00  0.00     0.000 A 
ATOM     14  C   UNL d   1      14.544  11.814  -0.888  0.00  0.00     0.002 A 
ATOM     15  C   UNL d   1      15.020  12.477  -0.770  0.00  0.00     0.020 A 
ENDBRANCH   8  10
ENDBRANCH   7   8
ENDBRANCH   1   7
BRANCH   2  16
ATOM     16  O   UNL d   1      15.566  17.177  -1.826  0.00  0.00    -0.260 OA
BRANCH  16  17
ATOM     17  C   UNL d   1      15.185  17.311  -2.536  0.00  0.00     0.391 C 
ATOM     18  F   UNL d   1      14.543  17.828  -2.556  0.00  0.00    -0.145 F 
ATOM     19  F   UNL d   1      15.439  16.934  -3.218  0.00  0.00    -0.145 F 
ENDBRANCH  16  17
ENDBRANCH   2  16
TORSDOF 5
ENDMDL
MODEL 2
REMARK VINA RESULT:      30.2      3.607      5.010
REMARK  5 active torsions:
REMARK  status: ('A' for Active; 'I' for Inactive)
REMARK    1  A    between atoms: C_2  and  N_1 
REMARK    2  A    between atoms: C_5  and  N_1 
REMARK    3  A    between atoms: C_7  and  C_2 
REMARK    4  A    between atoms: C_4  and  O_6 
REMARK    5  A    between atoms: O_6  and  C_8 
ROOT
ATOM      1  C   UNL d   1      13.312  12.848  -3.159  0.00  0.00     0.020 A 
ATOM      2  C   UNL d   1      14.170  12.194  -1.909  0.00  0.00     0.105 A 
ATOM      3  C   UNL d   1      13.104  12.104  -2.865  0.00  0.00     0.004 A 
ATOM      4  C   UNL d   1      13.938  13.269  -2.842  0.00  0.00     0.004 A 
ATOM      5  C   UNL d   1      13.533  11.784  -2.245  0.00  0.00     0.025 A 
ATOM      6  C   UNL d   1      14.367  12.950  -2.221  0.00  0.00     0.025 A 
ENDROOT
BRANCH   1   7
ATOM      7  C   UNL d   1      12.871  13.176  -3.797  0.00  0.00     0.108 C 
BRANCH   7   8
ATOM      8  N   UNL d   1      13.265  13.359  -4.505  0.00  0.00    -0.184 N 
ATOM      9  O   UNL d   1      13.618  12.768  -4.958  0.00  0.00    -0.080 OA
BRANCH   8  10
ATOM     10  C   UNL d   1      13.298  14.143  -4.749  0.00  0.00     0.090 A 
ATOM     11  C   UNL d   1      12.769  14.690  -4.416  0.00  0.00     0.020 A 
ATOM     12  C   UNL d   1      12.803  15.477  -4.661  0.00  0.00     0.002 A 
ATOM     13  C   UNL d   1      13.366  15.720  -5.240  0.00  0.00     0.000 A 
ATOM     14  C   UNL d   1      13.882  15.152  -5.556  0.00  0.00     0.002 A 
ATOM     15  C   UNL d   1      13.848  14.365  -5.311  0.00  0.00     0.020 A 
ENDBRANCH   8  10
ENDBRANCH   7   8
ENDBRANCH   1   7
BRANCH   2  16
ATOM     16  O   UNL d   1      14.593  11.868  -1.290  0.00  0.00    -0.260 OA
BRANCH  16  17
ATOM     17  C   UNL d   1      14.540  12.195  -0.542  0.00  0.00     0.391 C 
ATOM     18  F   UNL d   1      13.801  12.424  -0.256  0.00  0.00    -0.145 F 
ATOM     19  F   UNL d   1      15.213  12.291  -0.086  0.00  0.00    -0.145 F 
ENDBRANCH  16  17
ENDBRANCH   2  16
TORSDOF 5
ENDMDL
