MODEL 1
REMARK VINA RESULT:       9.9      0.000      0.000
REMARK  2 active torsions:
REMARK  status: ('A' for Active; 'I' for Inactive)
REMARK    1  A    between atoms: C_7  and  C_1 
REMARK    2  A    between atoms: C_8  and  C_7 
ROOT
ATOM      1  C   UNL d   1      45.274 -14.415  44.906  0.00  0.00     0.116 A 
ATOM      2  N   UNL d   1      44.862 -15.792  44.816  0.00  0.00    -0.152 NA
ATOM      3  N   UNL d   1      46.264 -15.440  44.866  0.00  0.00    -0.152 NA
ATOM      4  C   UNL d   1      44.664 -15.003  44.858  0.00  0.00     0.288 A 
ATOM      5  C   UNL d   1      46.063 -14.636  44.909  0.00  0.00     0.288 A 
ATOM      6  C   UNL d   1      45.654 -16.027  44.818  0.00  0.00     0.374 A 
ATOM      7  O   UNL d   1      43.876 -14.772  44.856  0.00  0.00    -0.265 OA
ATOM      8  O   UNL d   1      46.647 -14.073  44.955  0.00  0.00    -0.265 OA
ATOM      9  O   UNL d   1      45.856 -16.846  44.774  0.00  0.00    -0.242 OA
ENDROOT
BRANCH   1  10
ATOM     10  C   UNL d   1      45.078 -13.615  44.949  0.00  0.00     0.016 C 
BRANCH  10  11
ATOM     11  C   UNL d   1      45.135 -12.945  43.997  0.00  0.00     0.030 A 
ATOM     12  S   UNL d   1      44.554 -12.868  43.411  0.00  0.00    -0.080 SA
ATOM     13  C   UNL d   1      44.837 -12.332  42.843  0.00  0.00     0.064 A 
ATOM     14 BR   UNL d   1      44.420 -12.100  42.158  0.00  0.00    -0.042 Br
ATOM     15  C   UNL d   1      45.574 -12.080  43.065  0.00  0.00     0.014 A 
ATOM     16  C   UNL d   1      45.767 -12.462  43.791  0.00  0.00     0.007 A 
ENDBRANCH  10  11
ENDBRANCH   1  10
TORSDOF 2
ENDMDL
MODEL 2
REMARK VINA RESULT:      12.4      2.321      3.336
REMARK  2 active torsions:
REMARK  status: ('A' for Active; 'I' for Inactive)
REMARK    1  A    between atoms: C_7  and  C_1 
REMARK    2  A    between atoms: C_8  and  C_7 
ROOT
ATOM      1  C   UNL d   1      45.084 -13.328  44.242  0.00  0.00     0.116 A 
ATOM      2  N   UNL d   1      44.268 -13.020  43.096  0.00  0.00    -0.152 NA
ATOM      3  N   UNL d   1      45.580 -12.431  43.252  0.00  0.00    -0.152 NA
ATOM      4  C   UNL d   1      44.367 -13.420  43.799  0.00  0.00     0.288 A 
ATOM      5  C   UNL d   1      45.681 -12.838  43.969  0.00  0.00     0.288 A 
ATOM      6  C   UNL d   1      44.863 -12.523  42.809  0.00  0.00     0.374 A 
ATOM      7  O   UNL d   1      43.775 -13.914  44.082  0.00  0.00    -0.265 OA
ATOM      8  O   UNL d   1      46.367 -12.749  44.393  0.00  0.00    -0.265 OA
ATOM      9  O   UNL d   1      44.758 -12.110  42.081  0.00  0.00    -0.242 OA
ENDROOT
BRANCH   1  10
ATOM     10  C   UNL d   1      45.187 -13.731  44.954  0.00  0.00     0.016 C 
BRANCH  10  11
ATOM     11  C   UNL d   1      45.515 -14.850  44.952  0.00  0.00     0.030 A 
ATOM     12  S   UNL d   1      45.015 -15.511  44.948  0.00  0.00    -0.080 SA
ATOM     13  C   UNL d   1      45.494 -16.190  44.948  0.00  0.00     0.064 A 
ATOM     14 BR   UNL d   1      45.207 -16.974  44.944  0.00  0.00    -0.042 Br
ATOM     15  C   UNL d   1      46.271 -15.963  44.952  0.00  0.00     0.014 A 
ATOM     16  C   UNL d   1      46.291 -15.120  44.955  0.00  0.00     0.007 A 
ENDBRANCH  10  11
ENDBRANCH   1  10
TORSDOF 2
ENDMDL
