MODEL 1
REMARK VINA RESULT:      -0.9      0.000      0.000
REMARK  3 active torsions:
REMARK  status: ('A' for Active; 'I' for Inactive)
REMARK    1  A    between atoms: N_10  and  C_3 
REMARK    2  A    between atoms: C_11  and  C_5 
REMARK    3  A    between atoms: C_12  and  C_9 
ROOT
ATOM      1  N   UNL d   1      31.243  18.167 -24.215  0.00  0.00    -0.196 N 
ATOM      2  C   UNL d   1      30.778  17.472 -24.229  0.00  0.00     0.167 A 
ATOM      3  C   UNL d   1      32.052  18.105 -24.077  0.00  0.00     0.152 A 
ATOM      4  N   UNL d   1      30.075  18.954 -24.479  0.00  0.00    -0.163 NA
ATOM      5  C   UNL d   1      29.977  17.523 -24.365  0.00  0.00     0.055 A 
ATOM      6  N   UNL d   1      31.138  16.741 -24.103  0.00  0.00    -0.227 NA
ATOM      7  C   UNL d   1      32.414  17.346 -23.949  0.00  0.00     0.057 A 
ATOM      8  C   UNL d   1      29.610  18.259 -24.492  0.00  0.00     0.104 A 
ATOM      9  C   UNL d   1      31.942  16.688 -23.966  0.00  0.00     0.086 A 
ATOM     10  C   UNL d   1      28.812  18.308 -24.627  0.00  0.00     0.023 C 
ENDROOT
BRANCH   5  11
ATOM     11  C   UNL d   1      29.507  16.821 -24.378  0.00  0.00     0.004 A 
ATOM     12  C   UNL d   1      29.134  16.565 -23.691  0.00  0.00     0.000 A 
ATOM     13  C   UNL d   1      28.671  15.873 -23.704  0.00  0.00     0.000 A 
ATOM     14  C   UNL d   1      28.591  15.453 -24.404  0.00  0.00     0.000 A 
ATOM     15  C   UNL d   1      28.969  15.716 -25.097  0.00  0.00     0.000 A 
ATOM     16  C   UNL d   1      29.423  16.397 -25.075  0.00  0.00     0.000 A 
ENDBRANCH   5  11
BRANCH   3  17
ATOM     17  N   UNL d   1      32.533  18.815 -24.063  0.00  0.00    -0.289 N 
ATOM     18  C   UNL d   1      32.775  19.107 -24.711  0.00  0.00     0.082 A 
ATOM     19  C   UNL d   1      33.200  19.734 -24.690  0.00  0.00     0.021 A 
ATOM     20  C   UNL d   1      33.124  19.753 -23.398  0.00  0.00     0.021 A 
ATOM     21  C   UNL d   1      32.699  19.125 -23.420  0.00  0.00     0.082 A 
ENDBRANCH   3  17
BRANCH   9  22
ATOM     22  C   UNL d   1      32.316  15.915 -23.835  0.00  0.00     0.018 C 
ATOM     23  C   UNL d   1      32.241  15.533 -23.055  0.00  0.00     0.002 C 
ATOM     24  C   UNL d   1      32.758  15.531 -24.471  0.00  0.00     0.002 C 
ENDBRANCH   9  22
TORSDOF 3
ENDMDL
MODEL 2
REMARK VINA RESULT:       1.6      0.935      3.623
REMARK  3 active torsions:
REMARK  status: ('A' for Active; 'I' for Inactive)
REMARK    1  A    between atoms: N_10  and  C_3 
REMARK    2  A    between atoms: C_11  and  C_5 
REMARK    3  A    between atoms: C_12  and  C_9 
ROOT
ATOM      1  N   UNL d   1      29.930  17.123 -24.227  0.00  0.00    -0.196 N 
ATOM      2  C   UNL d   1      30.714  17.407 -24.166  0.00  0.00     0.167 A 
ATOM      3  C   UNL d   1      29.749  16.376 -23.933  0.00  0.00     0.152 A 
ATOM      4  N   UNL d   1      29.539  18.341 -24.872  0.00  0.00    -0.163 NA
ATOM      5  C   UNL d   1      30.901  18.144 -24.454  0.00  0.00     0.055 A 
ATOM      6  N   UNL d   1      31.289  16.934 -23.813  0.00  0.00    -0.227 NA
ATOM      7  C   UNL d   1      30.351  15.895 -23.571  0.00  0.00     0.057 A 
ATOM      8  C   UNL d   1      30.323  18.625 -24.811  0.00  0.00     0.104 A 
ATOM      9  C   UNL d   1      31.103  16.192 -23.523  0.00  0.00     0.086 A 
ATOM     10  C   UNL d   1      30.511  19.360 -25.097  0.00  0.00     0.023 C 
ENDROOT
BRANCH   5  11
ATOM     11  C   UNL d   1      31.693  18.431 -24.392  0.00  0.00     0.004 A 
ATOM     12  C   UNL d   1      31.934  18.826 -23.711  0.00  0.00     0.000 A 
ATOM     13  C   UNL d   1      32.714  19.109 -23.649  0.00  0.00     0.000 A 
ATOM     14  C   UNL d   1      33.238  18.991 -24.271  0.00  0.00     0.000 A 
ATOM     15  C   UNL d   1      32.990  18.591 -24.957  0.00  0.00     0.000 A 
ATOM     16  C   UNL d   1      32.220  18.317 -25.009  0.00  0.00     0.000 A 
ENDBRANCH   5  11
BRANCH   3  17
ATOM     17  N   UNL d   1      28.946  16.080 -23.994  0.00  0.00    -0.289 N 
ATOM     18  C   UNL d   1      28.477  16.174 -23.415  0.00  0.00     0.082 A 
ATOM     19  C   UNL d   1      27.769  15.910 -23.476  0.00  0.00     0.021 A 
ATOM     20  C   UNL d   1      28.024  15.478 -24.669  0.00  0.00     0.021 A 
ATOM     21  C   UNL d   1      28.732  15.742 -24.608  0.00  0.00     0.082 A 
ENDBRANCH   3  17
BRANCH   9  22
ATOM     22  C   UNL d   1      31.714  15.698 -23.152  0.00  0.00     0.018 C 
ATOM     23  C   UNL d   1      31.616  15.453 -22.322  0.00  0.00     0.002 C 
ATOM     24  C   UNL d   1      32.409  15.453 -23.603  0.00  0.00     0.002 C 
ENDBRANCH   9  22
TORSDOF 3
ENDMDL
