MODEL 1
REMARK VINA RESULT:      33.0      0.000      0.000
REMARK  3 active torsions:
REMARK  status: ('A' for Active; 'I' for Inactive)
REMARK    1  A    between atoms: N_10  and  C_3 
REMARK    2  A    between atoms: C_11  and  C_4 
REMARK    3  A    between atoms: C_12  and  N_10 
ROOT
ATOM      1  C   UNL d   1      13.909  13.033  -2.574  0.00  0.00     0.167 A 
ATOM      2  N   UNL d   1      13.497  12.577  -3.130  0.00  0.00    -0.195 N 
ATOM      3  C   UNL d   1      13.205  12.931  -3.812  0.00  0.00     0.167 A 
ATOM      4  C   UNL d   1      14.128  12.537  -1.963  0.00  0.00     0.057 A 
ATOM      5  N   UNL d   1      13.472  11.811  -2.850  0.00  0.00    -0.161 NA
ATOM      6  N   UNL d   1      14.022  13.835  -2.708  0.00  0.00    -0.227 NA
ATOM      7  C   UNL d   1      13.323  13.741  -3.942  0.00  0.00     0.058 A 
ATOM      8  C   UNL d   1      13.854  11.779  -2.140  0.00  0.00     0.124 A 
ATOM      9  C   UNL d   1      13.726  14.187  -3.397  0.00  0.00     0.086 A 
ATOM     10  C   UNL d   1      13.836  14.997  -3.542  0.00  0.00     0.021 C 
ENDROOT
BRANCH   3  11
ATOM     11  N   UNL d   1      12.794  12.476  -4.368  0.00  0.00    -0.227 NA
BRANCH  11  12
ATOM     12  C   UNL d   1      13.171  12.233  -5.056  0.00  0.00     0.083 A 
ATOM     13  C   UNL d   1      13.925  11.929  -5.194  0.00  0.00     0.019 A 
ATOM     14  C   UNL d   1      13.995  11.785  -6.002  0.00  0.00     0.002 A 
ATOM     15  C   UNL d   1      13.296  11.996  -6.367  0.00  0.00     0.002 A 
ATOM     16  C   UNL d   1      12.776  12.277  -5.788  0.00  0.00     0.019 A 
ENDBRANCH  11  12
ENDBRANCH   3  11
BRANCH   4  17
ATOM     17  C   UNL d   1      14.552  12.831  -1.317  0.00  0.00     0.004 A 
ATOM     18  C   UNL d   1      14.163  13.230  -0.720  0.00  0.00     0.000 A 
ATOM     19  C   UNL d   1      14.585  13.526  -0.071  0.00  0.00     0.000 A 
ATOM     20  C   UNL d   1      15.406  13.413  -0.034  0.00  0.00     0.000 A 
ATOM     21  C   UNL d   1      15.792  13.010  -0.639  0.00  0.00     0.000 A 
ATOM     22  C   UNL d   1      15.368  12.721  -1.275  0.00  0.00     0.000 A 
ENDBRANCH   4  17
TORSDOF 3
ENDMDL
