MODEL 1
REMARK VINA RESULT:      85.8      0.000      0.000
REMARK  5 active torsions:
REMARK  status: ('A' for Active; 'I' for Inactive)
REMARK    1  A    between atoms: C_10  and  N_6 
REMARK    2  A    between atoms: N_13  and  C_9 
REMARK    3  A    between atoms: C_14  and  C_10 
REMARK    4  A    between atoms: C_21  and  N_13 
REMARK    5  A    between atoms: C_24  and  C_21 
ROOT
ATOM      1  C   UNL d   1     -57.302 -99.279 -43.696  0.00  0.00     0.176 A 
ATOM      2  C   UNL d   1     -57.208 -99.566 -44.436  0.00  0.00     0.159 A 
ATOM      3  N   UNL d   1     -56.681 -99.217 -43.194  0.00  0.00    -0.181 NA
ATOM      4  N   UNL d   1     -58.035 -99.045 -43.440  0.00  0.00    -0.240 N 
ATOM      5  N   UNL d   1     -58.571 -99.390 -44.676  0.00  0.00    -0.223 N 
ATOM      6  N   UNL d   1     -55.858 -99.740 -44.198  0.00  0.00    -0.258 N 
ATOM      7  C   UNL d   1     -58.666 -99.099 -43.924  0.00  0.00     0.343 A 
ATOM      8  C   UNL d   1     -57.848 -99.620 -44.925  0.00  0.00     0.287 A 
ATOM      9  C   UNL d   1     -55.966 -99.443 -43.436  0.00  0.00     0.292 A 
ATOM     10  O   UNL d   1     -59.399 -98.867 -43.673  0.00  0.00    -0.245 OA
ATOM     11  O   UNL d   1     -57.752 -99.914 -45.684  0.00  0.00    -0.265 OA
ATOM     12  C   UNL d   1     -58.130 -98.756 -42.693  0.00  0.00     0.105 C 
ATOM     13  C   UNL d   1     -59.228 -99.449 -45.188  0.00  0.00     0.107 C 
ENDROOT
BRANCH   6  14
ATOM     14  C   UNL d   1     -55.366-100.047 -44.783  0.00  0.00     0.084 C 
BRANCH  14  15
ATOM     15  C   UNL d   1     -55.269-100.870 -44.865  0.00  0.00     0.018 A 
ATOM     16  C   UNL d   1     -55.637-101.252 -45.497  0.00  0.00     0.002 A 
ATOM     17  C   UNL d   1     -55.540-102.075 -45.580  0.00  0.00     0.000 A 
ATOM     18  C   UNL d   1     -55.813-102.648 -46.126  0.00  0.00     0.000 C 
ATOM     19  C   UNL d   1     -55.076-102.504 -45.029  0.00  0.00     0.000 A 
ATOM     20  C   UNL d   1     -54.719-102.096 -44.405  0.00  0.00     0.000 A 
ATOM     21  C   UNL d   1     -54.815-101.282 -44.324  0.00  0.00     0.002 A 
ENDBRANCH  14  15
ENDBRANCH   6  14
BRANCH   9  22
ATOM     22  N   UNL d   1     -55.335 -99.389 -42.953  0.00  0.00    -0.365 NA
BRANCH  22  23
ATOM     23  C   UNL d   1     -54.836 -99.319 -42.288  0.00  0.00     0.164 C 
BRANCH  23  24
ATOM     24  C   UNL d   1     -54.714 -99.979 -41.785  0.00  0.00     0.035 C 
ATOM     25  C   UNL d   1     -55.027 -99.984 -41.012  0.00  0.00     0.003 C 
ENDBRANCH  23  24
ENDBRANCH  22  23
ENDBRANCH   9  22
TORSDOF 5
ENDMDL
MODEL 2
REMARK VINA RESULT:      88.3      1.748      4.435
REMARK  5 active torsions:
REMARK  status: ('A' for Active; 'I' for Inactive)
REMARK    1  A    between atoms: C_10  and  N_6 
REMARK    2  A    between atoms: N_13  and  C_9 
REMARK    3  A    between atoms: C_14  and  C_10 
REMARK    4  A    between atoms: C_21  and  N_13 
REMARK    5  A    between atoms: C_24  and  C_21 
ROOT
ATOM      1  C   UNL d   1     -55.864-100.604 -44.030  0.00  0.00     0.176 A 
ATOM      2  C   UNL d   1     -56.083-100.383 -43.295  0.00  0.00     0.159 A 
ATOM      3  N   UNL d   1     -56.090-100.185 -44.673  0.00  0.00    -0.181 NA
ATOM      4  N   UNL d   1     -55.406-101.264 -44.136  0.00  0.00    -0.240 N 
ATOM      5  N   UNL d   1     -55.392-101.471 -42.762  0.00  0.00    -0.223 N 
ATOM      6  N   UNL d   1     -56.768 -99.304 -43.823  0.00  0.00    -0.258 N 
ATOM      7  C   UNL d   1     -55.170-101.696 -43.509  0.00  0.00     0.343 A 
ATOM      8  C   UNL d   1     -55.844-100.820 -42.660  0.00  0.00     0.287 A 
ATOM      9  C   UNL d   1     -56.536 -99.542 -44.577  0.00  0.00     0.292 A 
ATOM     10  O   UNL d   1     -54.712-102.355 -43.610  0.00  0.00    -0.245 OA
ATOM     11  O   UNL d   1     -56.069-100.593 -41.905  0.00  0.00    -0.265 OA
ATOM     12  C   UNL d   1     -55.185-101.488 -44.879  0.00  0.00     0.105 C 
ATOM     13  C   UNL d   1     -55.149-101.919 -42.099  0.00  0.00     0.107 C 
ENDROOT
BRANCH   6  14
ATOM     14  C   UNL d   1     -57.170 -98.781 -43.329  0.00  0.00     0.084 C 
BRANCH  14  15
ATOM     15  C   UNL d   1     -58.001 -98.802 -43.276  0.00  0.00     0.018 A 
ATOM     16  C   UNL d   1     -58.349 -98.868 -42.531  0.00  0.00     0.002 A 
ATOM     17  C   UNL d   1     -59.180 -98.890 -42.478  0.00  0.00     0.000 A 
ATOM     18  C   UNL d   1     -59.728 -98.951 -41.848  0.00  0.00     0.000 C 
ATOM     19  C   UNL d   1     -59.650 -98.845 -43.170  0.00  0.00     0.000 A 
ATOM     20  C   UNL d   1     -59.274 -98.779 -43.904  0.00  0.00     0.000 A 
ATOM     21  C   UNL d   1     -58.452 -98.758 -43.956  0.00  0.00     0.002 A 
ENDBRANCH  14  15
ENDBRANCH   6  14
BRANCH   9  22
ATOM     22  N   UNL d   1     -56.772 -99.111 -45.204  0.00  0.00    -0.365 NA
BRANCH  22  23
ATOM     23  C   UNL d   1     -56.837 -98.755 -45.956  0.00  0.00     0.164 C 
BRANCH  23  24
ATOM     24  C   UNL d   1     -57.122 -99.201 -46.607  0.00  0.00     0.035 C 
ATOM     25  C   UNL d   1     -57.705 -98.884 -47.112  0.00  0.00     0.003 C 
ENDBRANCH  23  24
ENDBRANCH  22  23
ENDBRANCH   9  22
TORSDOF 5
ENDMDL
