MODEL 1
REMARK VINA RESULT:      12.8      0.000      0.000
REMARK  6 active torsions:
REMARK  status: ('A' for Active; 'I' for Inactive)
REMARK    1  A    between atoms: C_3  and  C_1 
REMARK    2  A    between atoms: C_2  and  C_3 
REMARK    3  A    between atoms: C_4  and  C_2 
REMARK    4  A    between atoms: C_7  and  C_4 
REMARK    5  A    between atoms: O_17  and  C_5 
REMARK    6  A    between atoms: O_20  and  C_13 
ROOT
ATOM      1  C   UNL d   1      45.987 -16.855  43.984  0.00  0.00     0.042 C 
ENDROOT
BRANCH   1   2
ATOM      2  C   UNL d   1      46.234 -17.620  44.171  0.00  0.00     0.199 C 
ATOM      3  O   UNL d   1      46.388 -17.829  44.953  0.00  0.00    -0.286 OA
BRANCH   2   4
ATOM      4  C   UNL d   1      46.327 -18.179  43.568  0.00  0.00     0.079 A 
ATOM      5  C   UNL d   1      46.315 -18.987  43.749  0.00  0.00     0.199 A 
ATOM      6  C   UNL d   1      46.409 -19.547  43.144  0.00  0.00     0.043 A 
ATOM      7  O   UNL d   1      46.212 -19.243  44.529  0.00  0.00    -0.286 OA
ATOM      8  C   UNL d   1      46.512 -19.300  42.366  0.00  0.00     0.015 A 
ATOM      9  C   UNL d   1      46.523 -18.492  42.185  0.00  0.00     0.058 A 
ATOM     10  C   UNL d   1      46.431 -17.934  42.782  0.00  0.00     0.018 A 
ATOM     11 CL   UNL d   1      46.627 -18.244  41.406  0.00  0.00    -0.082 Cl
ENDBRANCH   2   4
ENDBRANCH   1   2
BRANCH   1  12
ATOM     12  C   UNL d   1      45.762 -16.343  44.587  0.00  0.00     0.005 C 
BRANCH  12  13
ATOM     13  C   UNL d   1      45.777 -15.530  44.461  0.00  0.00     0.022 A 
ATOM     14  C   UNL d   1      45.115 -15.066  44.646  0.00  0.00     0.096 A 
ATOM     15  C   UNL d   1      45.130 -14.253  44.521  0.00  0.00     0.048 A 
ATOM     16  C   UNL d   1      45.805 -13.896  44.210  0.00  0.00     0.096 A 
ATOM     17  C   UNL d   1      46.469 -14.360  44.024  0.00  0.00     0.024 A 
ATOM     18  C   UNL d   1      46.449 -15.175  44.151  0.00  0.00     0.004 A 
BRANCH  14  19
ATOM     19  O   UNL d   1      44.446 -15.420  44.955  0.00  0.00    -0.328 OA
ATOM     20  C   UNL d   1      43.727 -15.017  44.948  0.00  0.00     0.181 C 
ENDBRANCH  14  19
BRANCH  16  21
ATOM     21  O   UNL d   1      45.832 -13.087  44.080  0.00  0.00    -0.328 OA
ATOM     22  C   UNL d   1      45.959 -12.562  44.704  0.00  0.00     0.181 C 
ENDBRANCH  16  21
ENDBRANCH  12  13
ENDBRANCH   1  12
TORSDOF 6
ENDMDL
MODEL 2
REMARK VINA RESULT:      15.8      1.573      4.589
REMARK  6 active torsions:
REMARK  status: ('A' for Active; 'I' for Inactive)
REMARK    1  A    between atoms: C_3  and  C_1 
REMARK    2  A    between atoms: C_2  and  C_3 
REMARK    3  A    between atoms: C_4  and  C_2 
REMARK    4  A    between atoms: C_7  and  C_4 
REMARK    5  A    between atoms: O_17  and  C_5 
REMARK    6  A    between atoms: O_20  and  C_13 
ROOT
ATOM      1  C   UNL d   1      45.708 -16.288  44.105  0.00  0.00     0.042 C 
ENDROOT
BRANCH   1   2
ATOM      2  C   UNL d   1      45.935 -15.584  44.472  0.00  0.00     0.199 C 
ATOM      3  O   UNL d   1      46.603 -15.563  44.954  0.00  0.00    -0.286 OA
BRANCH   2   4
ATOM      4  C   UNL d   1      45.488 -14.898  44.355  0.00  0.00     0.079 A 
ATOM      5  C   UNL d   1      44.696 -14.874  44.595  0.00  0.00     0.199 A 
ATOM      6  C   UNL d   1      44.249 -14.185  44.477  0.00  0.00     0.043 A 
ATOM      7  O   UNL d   1      44.345 -15.532  44.953  0.00  0.00    -0.286 OA
ATOM      8  C   UNL d   1      44.593 -13.527  44.122  0.00  0.00     0.015 A 
ATOM      9  C   UNL d   1      45.385 -13.550  43.882  0.00  0.00     0.058 A 
ATOM     10  C   UNL d   1      45.831 -14.232  43.997  0.00  0.00     0.018 A 
ATOM     11 CL   UNL d   1      45.729 -12.891  43.526  0.00  0.00    -0.082 Cl
ENDBRANCH   2   4
ENDBRANCH   1   2
BRANCH   1  12
ATOM     12  C   UNL d   1      46.277 -16.757  43.741  0.00  0.00     0.005 C 
BRANCH  12  13
ATOM     13  C   UNL d   1      46.323 -17.559  43.921  0.00  0.00     0.022 A 
ATOM     14  C   UNL d   1      46.392 -18.119  43.313  0.00  0.00     0.096 A 
ATOM     15  C   UNL d   1      46.438 -18.921  43.492  0.00  0.00     0.048 A 
ATOM     16  C   UNL d   1      46.415 -19.170  44.277  0.00  0.00     0.096 A 
ATOM     17  C   UNL d   1      46.345 -18.610  44.886  0.00  0.00     0.024 A 
ATOM     18  C   UNL d   1      46.299 -17.807  44.702  0.00  0.00     0.004 A 
BRANCH  14  19
ATOM     19  O   UNL d   1      46.415 -17.872  42.534  0.00  0.00    -0.328 OA
ATOM     20  C   UNL d   1      46.645 -18.397  41.942  0.00  0.00     0.181 C 
ENDBRANCH  14  19
BRANCH  16  21
ATOM     21  O   UNL d   1      46.460 -19.966  44.468  0.00  0.00    -0.328 OA
ATOM     22  C   UNL d   1      45.879 -20.324  44.932  0.00  0.00     0.181 C 
ENDBRANCH  16  21
ENDBRANCH  12  13
ENDBRANCH   1  12
TORSDOF 6
ENDMDL
