MODEL 1
REMARK VINA RESULT:       0.8      0.000      0.000
REMARK  5 active torsions:
REMARK  status: ('A' for Active; 'I' for Inactive)
REMARK    1  A    between atoms: O_8  and  C_2 
REMARK    2  A    between atoms: C_10  and  C_3 
REMARK    3  A    between atoms: C_14  and  O_8 
REMARK    4  A    between atoms: N_9  and  C_10 
REMARK    5  A    between atoms: O_23  and  C_17 
ROOT
ATOM      1  C   UNL d   1      33.076  19.921 -22.895  0.00  0.00     0.108 A 
ATOM      2  C   UNL d   1      32.945  18.492 -23.740  0.00  0.00     0.164 A 
ATOM      3  C   UNL d   1      33.141  20.635 -22.484  0.00  0.00     0.079 A 
ATOM      4  C   UNL d   1      33.022  19.927 -23.731  0.00  0.00     0.064 A 
ATOM      5  C   UNL d   1      32.957  19.221 -24.149  0.00  0.00     0.222 A 
ATOM      6  O   UNL d   1      33.065  19.204 -22.486  0.00  0.00    -0.303 OA
ATOM      7  C   UNL d   1      32.999  18.485 -22.909  0.00  0.00     0.150 A 
ATOM      8  C   UNL d   1      33.034  20.656 -24.136  0.00  0.00     0.009 A 
ATOM      9  C   UNL d   1      33.153  21.352 -22.882  0.00  0.00     0.199 A 
ATOM     10  O   UNL d   1      32.903  19.223 -24.973  0.00  0.00    -0.284 OA
ATOM     11  C   UNL d   1      33.099  21.363 -23.717  0.00  0.00     0.042 A 
ATOM     12  O   UNL d   1      33.217  22.058 -22.476  0.00  0.00    -0.286 OA
ENDROOT
BRANCH   2  13
ATOM     13  O   UNL d   1      32.880  17.785 -24.158  0.00  0.00    -0.300 OA
BRANCH  13  14
ATOM     14  C   UNL d   1      32.261  17.277 -23.999  0.00  0.00     0.122 A 
ATOM     15  C   UNL d   1      32.386  16.470 -23.989  0.00  0.00     0.117 A 
ATOM     16  C   UNL d   1      31.764  15.958 -23.830  0.00  0.00     0.026 A 
ATOM     17  C   UNL d   1      31.012  16.266 -23.680  0.00  0.00     0.002 A 
ATOM     18  C   UNL d   1      30.886  17.073 -23.690  0.00  0.00     0.002 A 
ATOM     19  C   UNL d   1      31.512  17.586 -23.851  0.00  0.00     0.027 A 
BRANCH  15  20
ATOM     20  O   UNL d   1      33.140  16.175 -24.140  0.00  0.00    -0.326 OA
ATOM     21  C   UNL d   1      33.232  15.458 -24.537  0.00  0.00     0.181 C 
ENDBRANCH  15  20
ENDBRANCH  13  14
ENDBRANCH   2  13
BRANCH   3  22
ATOM     22  C   UNL d   1      33.193  20.624 -21.666  0.00  0.00     0.086 C 
BRANCH  22  23
ATOM     23  N   UNL d   1      32.797  21.197 -21.219  0.00  0.00    -0.300 N 
ATOM     24  C   UNL d   1      33.229  21.779 -20.825  0.00  0.00     0.100 A 
ATOM     25  C   UNL d   1      32.836  22.348 -20.381  0.00  0.00     0.100 A 
ATOM     26  N   UNL d   1      32.011  22.337 -20.329  0.00  0.00    -0.299 N 
ATOM     27  C   UNL d   1      31.582  21.753 -20.724  0.00  0.00     0.100 A 
ATOM     28  C   UNL d   1      31.617  22.907 -19.884  0.00  0.00     0.100 C 
ATOM     29  C   UNL d   1      31.975  21.175 -21.175  0.00  0.00     0.100 A 
ENDBRANCH  22  23
ENDBRANCH   3  22
TORSDOF 5
ENDMDL
