MODEL 1
REMARK VINA RESULT:      18.7      0.000      0.000
REMARK  0 active torsions:
REMARK  status: ('A' for Active; 'I' for Inactive)
ROOT
ATOM      1  N   UNL d   1      14.235  13.856  -2.721  0.00  0.00    -0.208 NA
ATOM      2  C   UNL d   1      13.861  13.845  -3.456  0.00  0.00     0.279 A 
ATOM      3  C   UNL d   1      13.511  12.471  -3.264  0.00  0.00     0.006 A 
ATOM      4  C   UNL d   1      13.500  13.154  -3.727  0.00  0.00     0.058 A 
ATOM      5  C   UNL d   1      14.247  13.171  -2.254  0.00  0.00     0.085 A 
ATOM      6  C   UNL d   1      13.882  12.479  -2.531  0.00  0.00     0.018 A 
ATOM      7  O   UNL d   1      13.850  14.529  -3.919  0.00  0.00    -0.265 OA
ATOM      8  C   UNL d   1      13.153  11.788  -3.533  0.00  0.00     0.000 A 
ATOM      9  C   UNL d   1      13.129  13.139  -4.455  0.00  0.00     0.005 A 
ATOM     10  C   UNL d   1      13.892  11.797  -2.071  0.00  0.00     0.002 A 
ATOM     11  C   UNL d   1      14.619  13.176  -1.518  0.00  0.00     0.019 A 
ATOM     12  C   UNL d   1      12.786  11.779  -4.258  0.00  0.00     0.000 A 
ATOM     13  C   UNL d   1      12.769  12.452  -4.726  0.00  0.00     0.000 A 
ATOM     14  C   UNL d   1      14.268  11.805  -1.330  0.00  0.00     0.000 A 
ATOM     15  C   UNL d   1      14.630  12.493  -1.055  0.00  0.00     0.002 A 
ENDROOT
TORSDOF 0
ENDMDL
