MODEL 1
REMARK VINA RESULT:      -3.3      0.000      0.000
REMARK  7 active torsions:
REMARK  status: ('A' for Active; 'I' for Inactive)
REMARK    1  A    between atoms: N_3  and  S_1 
REMARK    2  A    between atoms: C_6  and  S_1 
REMARK    3  A    between atoms: N_2  and  C_5 
REMARK    4  A    between atoms: C_4  and  N_3 
REMARK    5  A    between atoms: C_5  and  C_4 
REMARK    6  A    between atoms: C_10  and  C_5 
REMARK    7  A    between atoms: O_26  and  C_20 
ROOT
ATOM      1  C   UNL d   1     -40.058  14.897  20.847  0.00  0.00     0.084 C 
ENDROOT
BRANCH   1   2
ATOM      2  N   UNL d   1     -40.782  14.508  20.925  0.00  0.00    -0.300 N 
ATOM      3  C   UNL d   1     -41.476  14.937  20.913  0.00  0.00     0.100 A 
ATOM      4  C   UNL d   1     -42.200  14.548  20.991  0.00  0.00     0.100 A 
ATOM      5  N   UNL d   1     -42.219  13.728  21.080  0.00  0.00    -0.299 N 
ATOM      6  C   UNL d   1     -41.514  13.299  21.091  0.00  0.00     0.100 A 
ATOM      7  C   UNL d   1     -42.946  13.339  21.157  0.00  0.00     0.100 C 
ATOM      8  C   UNL d   1     -40.801  13.688  21.014  0.00  0.00     0.100 A 
ENDBRANCH   1   2
BRANCH   1   9
ATOM      9  C   UNL d   1     -39.863  15.268  20.138  0.00  0.00     0.130 C 
BRANCH   9  10
ATOM     10  N   UNL d   1     -39.487  14.843  19.539  0.00  0.00    -0.155 NA
BRANCH  10  11
ATOM     11  S   UNL d   1     -39.313  15.207  18.819  0.00  0.00     0.285 S 
ATOM     12  O   UNL d   1     -39.608  15.922  19.114  0.00  0.00    -0.198 OA
ATOM     13  O   UNL d   1     -39.139  15.573  18.100  0.00  0.00    -0.198 OA
BRANCH  11  14
ATOM     14  C   UNL d   1     -39.016  14.481  18.530  0.00  0.00     0.105 A 
ATOM     15  C   UNL d   1     -38.234  14.286  18.642  0.00  0.00     0.015 A 
ATOM     16  C   UNL d   1     -37.941  13.562  18.354  0.00  0.00     0.025 A 
ATOM     17  C   UNL d   1     -38.446  13.047  17.957  0.00  0.00     0.094 A 
ATOM     18  C   UNL d   1     -39.246  13.255  17.847  0.00  0.00     0.025 A 
ATOM     19  C   UNL d   1     -39.522  13.965  18.133  0.00  0.00     0.015 A 
BRANCH  17  20
ATOM     20  O   UNL d   1     -38.163  12.319  17.664  0.00  0.00    -0.328 OA
ATOM     21  C   UNL d   1     -37.940  12.246  16.874  0.00  0.00     0.181 C 
ENDBRANCH  17  20
ENDBRANCH  11  14
ENDBRANCH  10  11
ENDBRANCH   9  10
ENDBRANCH   1   9
BRANCH   1  22
ATOM     22  C   UNL d   1     -39.525  14.916  21.488  0.00  0.00     0.018 A 
ATOM     23  C   UNL d   1     -39.109  14.235  21.697  0.00  0.00     0.004 A 
ATOM     24  C   UNL d   1     -38.582  14.253  22.330  0.00  0.00     0.030 A 
ATOM     25  C   UNL d   1     -38.469  14.951  22.754  0.00  0.00     0.140 A 
ATOM     26  C   UNL d   1     -38.885  15.633  22.544  0.00  0.00     0.030 A 
ATOM     27  F   UNL d   1     -37.942  14.969  23.387  0.00  0.00    -0.204 F 
ATOM     28  C   UNL d   1     -39.413  15.615  21.911  0.00  0.00     0.004 A 
ENDBRANCH   1  22
TORSDOF 7
ENDMDL
MODEL 2
REMARK VINA RESULT:      -2.8      6.940      9.003
REMARK  7 active torsions:
REMARK  status: ('A' for Active; 'I' for Inactive)
REMARK    1  A    between atoms: N_3  and  S_1 
REMARK    2  A    between atoms: C_6  and  S_1 
REMARK    3  A    between atoms: N_2  and  C_5 
REMARK    4  A    between atoms: C_4  and  N_3 
REMARK    5  A    between atoms: C_5  and  C_4 
REMARK    6  A    between atoms: C_10  and  C_5 
REMARK    7  A    between atoms: O_26  and  C_20 
ROOT
ATOM      1  C   UNL d   1     -48.465  13.887  22.287  0.00  0.00     0.084 C 
ENDROOT
BRANCH   1   2
ATOM      2  N   UNL d   1     -49.013  14.393  22.640  0.00  0.00    -0.300 N 
ATOM      3  C   UNL d   1     -49.370  14.177  23.341  0.00  0.00     0.100 A 
ATOM      4  C   UNL d   1     -49.918  14.683  23.695  0.00  0.00     0.100 A 
ATOM      5  N   UNL d   1     -50.102  15.404  23.339  0.00  0.00    -0.299 N 
ATOM      6  C   UNL d   1     -49.738  15.618  22.630  0.00  0.00     0.100 A 
ATOM      7  C   UNL d   1     -50.653  15.911  23.695  0.00  0.00     0.100 C 
ATOM      8  C   UNL d   1     -49.197  15.114  22.284  0.00  0.00     0.100 A 
ENDBRANCH   1   2
BRANCH   1   9
ATOM      9  C   UNL d   1     -47.679  14.123  22.202  0.00  0.00     0.130 C 
BRANCH   9  10
ATOM     10  N   UNL d   1     -47.089  13.762  22.651  0.00  0.00    -0.155 NA
BRANCH  10  11
ATOM     11  S   UNL d   1     -46.378  14.157  22.795  0.00  0.00     0.285 S 
ATOM     12  O   UNL d   1     -46.781  14.880  22.774  0.00  0.00    -0.198 OA
ATOM     13  O   UNL d   1     -45.669  14.553  22.938  0.00  0.00    -0.198 OA
BRANCH  11  14
ATOM     14  C   UNL d   1     -45.981  13.421  22.814  0.00  0.00     0.105 A 
ATOM     15  C   UNL d   1     -45.513  13.195  22.189  0.00  0.00     0.015 A 
ATOM     16  C   UNL d   1     -45.118  12.462  22.209  0.00  0.00     0.025 A 
ATOM     17  C   UNL d   1     -45.204  11.971  22.865  0.00  0.00     0.094 A 
ATOM     18  C   UNL d   1     -45.686  12.212  23.501  0.00  0.00     0.025 A 
ATOM     19  C   UNL d   1     -46.068  12.930  23.470  0.00  0.00     0.015 A 
BRANCH  17  20
ATOM     20  O   UNL d   1     -44.813  11.235  22.896  0.00  0.00    -0.328 OA
ATOM     21  C   UNL d   1     -43.993  11.195  22.825  0.00  0.00     0.181 C 
ENDBRANCH  17  20
ENDBRANCH  11  14
ENDBRANCH  10  11
ENDBRANCH   9  10
ENDBRANCH   1   9
BRANCH   1  22
ATOM     22  C   UNL d   1     -48.706  13.137  22.015  0.00  0.00     0.018 A 
ATOM     23  C   UNL d   1     -48.970  12.569  22.552  0.00  0.00     0.004 A 
ATOM     24  C   UNL d   1     -49.208  11.828  22.283  0.00  0.00     0.030 A 
ATOM     25  C   UNL d   1     -49.183  11.652  21.478  0.00  0.00     0.140 A 
ATOM     26  C   UNL d   1     -48.919  12.221  20.940  0.00  0.00     0.030 A 
ATOM     27  F   UNL d   1     -49.422  10.911  21.209  0.00  0.00    -0.204 F 
ATOM     28  C   UNL d   1     -48.680  12.962  21.209  0.00  0.00     0.004 A 
ENDBRANCH   1  22
TORSDOF 7
ENDMDL
MODEL 3
REMARK VINA RESULT:      -2.4      6.268      9.138
REMARK  7 active torsions:
REMARK  status: ('A' for Active; 'I' for Inactive)
REMARK    1  A    between atoms: N_3  and  S_1 
REMARK    2  A    between atoms: C_6  and  S_1 
REMARK    3  A    between atoms: N_2  and  C_5 
REMARK    4  A    between atoms: C_4  and  N_3 
REMARK    5  A    between atoms: C_5  and  C_4 
REMARK    6  A    between atoms: C_10  and  C_5 
REMARK    7  A    between atoms: O_26  and  C_20 
ROOT
ATOM      1  C   UNL d   1     -46.597  13.102  22.785  0.00  0.00     0.084 C 
ENDROOT
BRANCH   1   2
ATOM      2  N   UNL d   1     -45.839  12.926  22.510  0.00  0.00    -0.300 N 
ATOM      3  C   UNL d   1     -45.314  12.528  22.993  0.00  0.00     0.100 A 
ATOM      4  C   UNL d   1     -44.557  12.352  22.717  0.00  0.00     0.100 A 
ATOM      5  N   UNL d   1     -44.333  12.577  21.956  0.00  0.00    -0.299 N 
ATOM      6  C   UNL d   1     -44.867  12.978  21.471  0.00  0.00     0.100 A 
ATOM      7  C   UNL d   1     -43.572  12.399  21.681  0.00  0.00     0.100 C 
ATOM      8  C   UNL d   1     -45.615  13.151  21.748  0.00  0.00     0.100 A 
ENDBRANCH   1   2
BRANCH   1   9
ATOM      9  C   UNL d   1     -46.795  13.878  22.980  0.00  0.00     0.130 C 
BRANCH   9  10
ATOM     10  N   UNL d   1     -47.418  14.255  22.593  0.00  0.00    -0.155 NA
BRANCH  10  11
ATOM     11  S   UNL d   1     -47.466  15.079  22.590  0.00  0.00     0.285 S 
ATOM     12  O   UNL d   1     -46.646  15.123  22.699  0.00  0.00    -0.198 OA
ATOM     13  O   UNL d   1     -47.512  15.903  22.588  0.00  0.00    -0.198 OA
BRANCH  11  14
ATOM     14  C   UNL d   1     -48.293  15.025  22.481  0.00  0.00     0.105 A 
ATOM     15  C   UNL d   1     -48.794  15.105  23.116  0.00  0.00     0.015 A 
ATOM     16  C   UNL d   1     -49.618  15.050  23.005  0.00  0.00     0.025 A 
ATOM     17  C   UNL d   1     -49.919  14.915  22.250  0.00  0.00     0.094 A 
ATOM     18  C   UNL d   1     -49.397  14.834  21.606  0.00  0.00     0.025 A 
ATOM     19  C   UNL d   1     -48.595  14.889  21.726  0.00  0.00     0.015 A 
BRANCH  17  20
ATOM     20  O   UNL d   1     -50.742  14.858  22.128  0.00  0.00    -0.328 OA
ATOM     21  C   UNL d   1     -51.054  14.252  21.666  0.00  0.00     0.181 C 
ENDBRANCH  17  20
ENDBRANCH  11  14
ENDBRANCH  10  11
ENDBRANCH   9  10
ENDBRANCH   1   9
BRANCH   1  22
ATOM     22  C   UNL d   1     -47.162  12.494  22.867  0.00  0.00     0.018 A 
ATOM     23  C   UNL d   1     -47.390  12.241  23.617  0.00  0.00     0.004 A 
ATOM     24  C   UNL d   1     -47.949  11.641  23.698  0.00  0.00     0.030 A 
ATOM     25  C   UNL d   1     -48.280  11.293  23.028  0.00  0.00     0.140 A 
ATOM     26  C   UNL d   1     -48.052  11.546  22.276  0.00  0.00     0.030 A 
ATOM     27  F   UNL d   1     -48.839  10.693  23.108  0.00  0.00    -0.204 F 
ATOM     28  C   UNL d   1     -47.493  12.147  22.195  0.00  0.00     0.004 A 
ENDBRANCH   1  22
TORSDOF 7
ENDMDL
MODEL 4
REMARK VINA RESULT:      -1.1      6.744      9.033
REMARK  7 active torsions:
REMARK  status: ('A' for Active; 'I' for Inactive)
REMARK    1  A    between atoms: N_3  and  S_1 
REMARK    2  A    between atoms: C_6  and  S_1 
REMARK    3  A    between atoms: N_2  and  C_5 
REMARK    4  A    between atoms: C_4  and  N_3 
REMARK    5  A    between atoms: C_5  and  C_4 
REMARK    6  A    between atoms: C_10  and  C_5 
REMARK    7  A    between atoms: O_26  and  C_20 
ROOT
ATOM      1  C   UNL d   1     -48.660  13.752  22.627  0.00  0.00     0.084 C 
ENDROOT
BRANCH   1   2
ATOM      2  N   UNL d   1     -48.778  12.948  22.773  0.00  0.00    -0.300 N 
ATOM      3  C   UNL d   1     -48.883  12.434  22.147  0.00  0.00     0.100 A 
ATOM      4  C   UNL d   1     -49.001  11.631  22.293  0.00  0.00     0.100 A 
ATOM      5  N   UNL d   1     -49.013  11.350  23.069  0.00  0.00    -0.299 N 
ATOM      6  C   UNL d   1     -48.907  11.874  23.698  0.00  0.00     0.100 A 
ATOM      7  C   UNL d   1     -49.131  10.543  23.213  0.00  0.00     0.100 C 
ATOM      8  C   UNL d   1     -48.790  12.668  23.548  0.00  0.00     0.100 A 
ENDBRANCH   1   2
BRANCH   1   9
ATOM      9  C   UNL d   1     -47.944  14.014  22.314  0.00  0.00     0.130 C 
BRANCH   9  10
ATOM     10  N   UNL d   1     -47.234  13.809  22.681  0.00  0.00    -0.155 NA
BRANCH  10  11
ATOM     11  S   UNL d   1     -46.581  14.312  22.628  0.00  0.00     0.285 S 
ATOM     12  O   UNL d   1     -47.088  14.966  22.652  0.00  0.00    -0.198 OA
ATOM     13  O   UNL d   1     -45.930  14.815  22.576  0.00  0.00    -0.198 OA
BRANCH  11  14
ATOM     14  C   UNL d   1     -46.077  13.645  22.606  0.00  0.00     0.105 A 
ATOM     15  C   UNL d   1     -45.900  13.245  23.291  0.00  0.00     0.015 A 
ATOM     16  C   UNL d   1     -45.398  12.580  23.266  0.00  0.00     0.025 A 
ATOM     17  C   UNL d   1     -45.084  12.333  22.546  0.00  0.00     0.094 A 
ATOM     18  C   UNL d   1     -45.272  12.750  21.849  0.00  0.00     0.025 A 
ATOM     19  C   UNL d   1     -45.763  13.398  21.885  0.00  0.00     0.015 A 
BRANCH  17  20
ATOM     20  O   UNL d   1     -44.581  11.670  22.510  0.00  0.00    -0.328 OA
ATOM     21  C   UNL d   1     -43.793  11.731  22.745  0.00  0.00     0.181 C 
ENDBRANCH  17  20
ENDBRANCH  11  14
ENDBRANCH  10  11
ENDBRANCH   9  10
ENDBRANCH   1   9
BRANCH   1  22
ATOM     22  C   UNL d   1     -49.267  14.299  22.796  0.00  0.00     0.018 A 
ATOM     23  C   UNL d   1     -49.866  14.433  22.246  0.00  0.00     0.004 A 
ATOM     24  C   UNL d   1     -50.465  14.974  22.412  0.00  0.00     0.030 A 
ATOM     25  C   UNL d   1     -50.465  15.381  23.130  0.00  0.00     0.140 A 
ATOM     26  C   UNL d   1     -49.865  15.247  23.680  0.00  0.00     0.030 A 
ATOM     27  F   UNL d   1     -51.064  15.922  23.296  0.00  0.00    -0.204 F 
ATOM     28  C   UNL d   1     -49.266  14.706  23.513  0.00  0.00     0.004 A 
ENDBRANCH   1  22
TORSDOF 7
ENDMDL
