MODEL 1
REMARK VINA RESULT:       2.0      0.000      0.000
REMARK  9 active torsions:
REMARK  status: ('A' for Active; 'I' for Inactive)
REMARK    1  A    between atoms: N_2  and  S_1 
REMARK    2  A    between atoms: C_9  and  S_1 
REMARK    3  A    between atoms: C_4  and  N_2 
REMARK    4  A    between atoms: O_22  and  C_6 
REMARK    5  A    between atoms: O_23  and  C_7 
REMARK       I    between atoms: C_12  and  N_13 
REMARK    6  A    between atoms: C_20  and  C_12 
REMARK    7  A    between atoms: N_13  and  C_21 
REMARK    8  A    between atoms: O_14  and  C_20 
REMARK    9  A    between atoms: C_15  and  O_14 
ROOT
ATOM      1  C   UNL d   1      32.606  19.885 -22.849  0.00  0.00     0.105 A 
ATOM      2  C   UNL d   1      31.897  19.949 -23.253  0.00  0.00     0.015 A 
ATOM      3  C   UNL d   1      33.014  19.179 -22.836  0.00  0.00     0.015 A 
ATOM      4  C   UNL d   1      32.004  18.579 -23.640  0.00  0.00     0.085 A 
ATOM      5  C   UNL d   1      31.577  19.313 -23.654  0.00  0.00     0.020 A 
ATOM      6  C   UNL d   1      32.703  18.537 -23.234  0.00  0.00     0.020 A 
ENDROOT
BRANCH   1   7
ATOM      7  S   UNL d   1      32.922  20.543 -22.443  0.00  0.00     0.287 S 
ATOM      8  O   UNL d   1      32.615  20.247 -21.721  0.00  0.00    -0.198 OA
ATOM      9  O   UNL d   1      33.230  20.845 -23.158  0.00  0.00    -0.198 OA
BRANCH   7  10
ATOM     10  N   UNL d   1      33.238  21.203 -22.033  0.00  0.00    -0.139 NA
BRANCH  10  11
ATOM     11  C   UNL d   1      32.741  21.798 -21.753  0.00  0.00     0.182 A 
ATOM     12  N   UNL d   1      32.459  21.764 -20.990  0.00  0.00    -0.185 NA
ATOM     13  C   UNL d   1      31.947  22.374 -20.696  0.00  0.00     0.274 A 
ATOM     14  N   UNL d   1      31.738  22.990 -21.172  0.00  0.00    -0.181 NA
ATOM     15  C   UNL d   1      32.006  23.047 -21.936  0.00  0.00     0.185 A 
ATOM     16  C   UNL d   1      32.531  22.429 -22.249  0.00  0.00     0.084 A 
BRANCH  13  17
ATOM     17  O   UNL d   1      31.661  22.333 -19.913  0.00  0.00    -0.297 OA
ATOM     18  C   UNL d   1      31.702  22.988 -19.394  0.00  0.00     0.185 C 
ENDBRANCH  13  17
BRANCH  15  19
ATOM     19  O   UNL d   1      31.776  23.694 -22.409  0.00  0.00    -0.312 OA
ATOM     20  C   UNL d   1      31.991  23.679 -23.222  0.00  0.00     0.183 C 
ENDBRANCH  15  19
ENDBRANCH  10  11
ENDBRANCH   7  10
ENDBRANCH   1   7
BRANCH   4  21
ATOM     21  N   UNL d   1      31.706  17.914 -24.037  0.00  0.00    -0.206 NA
ATOM     22  C   UNL d   1      31.516  17.237 -23.613  0.00  0.00     0.304 C 
ATOM     23  O   UNL d   1      31.621  17.222 -22.794  0.00  0.00    -0.263 OA
BRANCH  22  24
ATOM     24  C   UNL d   1      31.217  16.569 -24.011  0.00  0.00     0.185 C 
BRANCH  24  25
ATOM     25  O   UNL d   1      30.723  16.047 -23.617  0.00  0.00    -0.299 OA
BRANCH  25  26
ATOM     26  C   UNL d   1      29.951  15.851 -23.931  0.00  0.00     0.111 A 
ATOM     27  C   UNL d   1      29.333  15.637 -23.433  0.00  0.00     0.081 A 
ATOM     28 CL   UNL d   1      29.451  15.607 -22.591  0.00  0.00    -0.080 Cl
ATOM     29  C   UNL d   1      28.598  15.452 -23.749  0.00  0.00     0.013 A 
ATOM     30  C   UNL d   1      28.483  15.483 -24.579  0.00  0.00     0.001 A 
ATOM     31  C   UNL d   1      29.105  15.698 -25.075  0.00  0.00     0.002 A 
ATOM     32  C   UNL d   1      29.840  15.883 -24.759  0.00  0.00     0.026 A 
ENDBRANCH  25  26
ENDBRANCH  24  25
ENDBRANCH  22  24
ENDBRANCH   4  21
TORSDOF 9
ENDMDL
MODEL 2
REMARK VINA RESULT:       2.0      2.353      4.107
REMARK  9 active torsions:
REMARK  status: ('A' for Active; 'I' for Inactive)
REMARK    1  A    between atoms: N_2  and  S_1 
REMARK    2  A    between atoms: C_9  and  S_1 
REMARK    3  A    between atoms: C_4  and  N_2 
REMARK    4  A    between atoms: O_22  and  C_6 
REMARK    5  A    between atoms: O_23  and  C_7 
REMARK       I    between atoms: C_12  and  N_13 
REMARK    6  A    between atoms: C_20  and  C_12 
REMARK    7  A    between atoms: N_13  and  C_21 
REMARK    8  A    between atoms: O_14  and  C_20 
REMARK    9  A    between atoms: C_15  and  O_14 
ROOT
ATOM      1  C   UNL d   1      32.710  22.555 -20.347  0.00  0.00     0.105 A 
ATOM      2  C   UNL d   1      33.109  21.860 -20.182  0.00  0.00     0.015 A 
ATOM      3  C   UNL d   1      32.431  22.705 -21.099  0.00  0.00     0.015 A 
ATOM      4  C   UNL d   1      32.948  21.456 -21.542  0.00  0.00     0.085 A 
ATOM      5  C   UNL d   1      33.240  21.297 -20.761  0.00  0.00     0.020 A 
ATOM      6  C   UNL d   1      32.556  22.150 -21.684  0.00  0.00     0.020 A 
ENDROOT
BRANCH   1   7
ATOM      7  S   UNL d   1      32.583  23.122 -19.746  0.00  0.00     0.287 S 
ATOM      8  O   UNL d   1      31.937  23.436 -20.178  0.00  0.00    -0.198 OA
ATOM      9  O   UNL d   1      33.226  22.814 -19.311  0.00  0.00    -0.198 OA
BRANCH   7  10
ATOM     10  N   UNL d   1      32.454  23.691 -19.146  0.00  0.00    -0.139 NA
BRANCH  10  11
ATOM     11  C   UNL d   1      32.293  23.455 -18.373  0.00  0.00     0.182 A 
ATOM     12  N   UNL d   1      31.588  23.085 -18.201  0.00  0.00    -0.185 NA
ATOM     13  C   UNL d   1      31.417  22.839 -17.407  0.00  0.00     0.274 A 
ATOM     14  N   UNL d   1      31.952  22.969 -16.818  0.00  0.00    -0.181 NA
ATOM     15  C   UNL d   1      32.662  23.336 -16.964  0.00  0.00     0.185 A 
ATOM     16  C   UNL d   1      32.849  23.593 -17.773  0.00  0.00     0.084 A 
BRANCH  13  17
ATOM     17  O   UNL d   1      30.692  22.460 -17.238  0.00  0.00    -0.297 OA
ATOM     18  C   UNL d   1      30.066  22.859 -16.851  0.00  0.00     0.185 C 
ENDBRANCH  13  17
BRANCH  15  19
ATOM     19  O   UNL d   1      33.200  23.460 -16.339  0.00  0.00    -0.312 OA
ATOM     20  C   UNL d   1      33.193  22.913 -15.702  0.00  0.00     0.183 C 
ENDBRANCH  15  19
ENDBRANCH  10  11
ENDBRANCH   7  10
ENDBRANCH   1   7
BRANCH   4  21
ATOM     21  N   UNL d   1      33.064  20.905 -22.152  0.00  0.00    -0.206 NA
ATOM     22  C   UNL d   1      32.796  20.134 -22.062  0.00  0.00     0.304 C 
ATOM     23  O   UNL d   1      32.412  19.911 -21.366  0.00  0.00    -0.263 OA
BRANCH  22  24
ATOM     24  C   UNL d   1      32.912  19.581 -22.675  0.00  0.00     0.185 C 
BRANCH  24  25
ATOM     25  O   UNL d   1      32.439  18.913 -22.715  0.00  0.00    -0.299 OA
BRANCH  25  26
ATOM     26  C   UNL d   1      32.485  18.382 -23.385  0.00  0.00     0.111 A 
ATOM     27  C   UNL d   1      32.579  17.572 -23.279  0.00  0.00     0.081 A 
ATOM     28 CL   UNL d   1      32.632  17.246 -22.495  0.00  0.00    -0.080 Cl
ATOM     29  C   UNL d   1      32.622  17.076 -23.931  0.00  0.00     0.013 A 
ATOM     30  C   UNL d   1      32.569  17.400 -24.703  0.00  0.00     0.001 A 
ATOM     31  C   UNL d   1      32.475  18.212 -24.805  0.00  0.00     0.002 A 
ATOM     32  C   UNL d   1      32.433  18.708 -24.153  0.00  0.00     0.026 A 
ENDBRANCH  25  26
ENDBRANCH  24  25
ENDBRANCH  22  24
ENDBRANCH   4  21
TORSDOF 9
ENDMDL
