MODEL 1
REMARK VINA RESULT:       6.4      0.000      0.000
REMARK  6 active torsions:
REMARK  status: ('A' for Active; 'I' for Inactive)
REMARK    1  A    between atoms: C_7  and  C_1 
REMARK    2  A    between atoms: C_9  and  N_2 
REMARK    3  A    between atoms: C_15  and  C_7 
REMARK    4  A    between atoms: C_8  and  C_9 
REMARK       I    between atoms: N_14  and  C_8 
REMARK    5  A    between atoms: C_20  and  N_14 
REMARK    6  A    between atoms: C_34  and  C_33 
ROOT
ATOM      1  C   UNL d   1      57.256   0.102  31.743  0.00  0.00     0.095 A 
ATOM      2  N   UNL d   1      58.025   0.109  30.533  0.00  0.00    -0.300 N 
ATOM      3  C   UNL d   1      57.973   0.249  32.181  0.00  0.00     0.202 A 
ATOM      4  C   UNL d   1      57.282   0.033  30.927  0.00  0.00     0.087 A 
ATOM      5  C   UNL d   1      58.696   0.320  31.770  0.00  0.00     0.056 A 
ATOM      6  C   UNL d   1      58.734   0.253  30.955  0.00  0.00     0.067 A 
ATOM      7  C   UNL d   1      59.460   0.328  30.570  0.00  0.00     0.018 A 
ATOM      8  C   UNL d   1      59.409   0.465  32.191  0.00  0.00     0.016 A 
ATOM      9  O   UNL d   1      57.947   0.317  32.987  0.00  0.00    -0.286 OA
ATOM     10  C   UNL d   1      60.132   0.538  31.797  0.00  0.00     0.058 A 
ATOM     11  C   UNL d   1      60.158   0.469  30.986  0.00  0.00     0.013 A 
ATOM     12 CL   UNL d   1      60.833   0.681  32.222  0.00  0.00    -0.082 Cl
ENDROOT
BRANCH   2  13
ATOM     13  C   UNL d   1      58.051   0.041  29.723  0.00  0.00     0.144 C 
BRANCH  13  14
ATOM     14  C   UNL d   1      58.264  -0.677  29.376  0.00  0.00     0.297 C 
ATOM     15  N   UNL d   1      58.666  -1.241  29.813  0.00  0.00    -0.207 NA
ATOM     16  O   UNL d   1      58.071  -0.824  28.592  0.00  0.00    -0.264 OA
BRANCH  15  17
ATOM     17  C   UNL d   1      58.879  -1.958  29.467  0.00  0.00     0.087 A 
ATOM     18  C   UNL d   1      58.318  -2.540  29.376  0.00  0.00     0.045 A 
ATOM     19  C   UNL d   1      58.527  -3.257  29.030  0.00  0.00     0.121 A 
ATOM     20  O   UNL d   1      58.073  -3.941  28.870  0.00  0.00    -0.299 OA
ATOM     21  C   UNL d   1      59.305  -3.381  28.779  0.00  0.00     0.119 A 
ATOM     22  C   UNL d   1      58.578  -4.501  28.512  0.00  0.00     0.304 A 
ATOM     23  O   UNL d   1      59.343  -4.156  28.455  0.00  0.00    -0.300 OA
ATOM     24  C   UNL d   1      59.868  -2.795  28.873  0.00  0.00     0.028 A 
ATOM     25  C   UNL d   1      59.655  -2.077  29.219  0.00  0.00     0.021 A 
ENDBRANCH  15  17
ENDBRANCH  13  14
ENDBRANCH   2  13
BRANCH   1  26
ATOM     26  C   UNL d   1      56.537   0.030  32.137  0.00  0.00     0.200 C 
ATOM     27  O   UNL d   1      56.047   0.680  32.211  0.00  0.00    -0.286 OA
BRANCH  26  28
ATOM     28  C   UNL d   1      56.309  -0.693  32.456  0.00  0.00     0.039 A 
ATOM     29  C   UNL d   1      55.924  -0.731  33.195  0.00  0.00     0.003 A 
ATOM     30  C   UNL d   1      55.690  -1.461  33.525  0.00  0.00     0.000 A 
ATOM     31  C   UNL d   1      55.841  -2.154  33.114  0.00  0.00     0.000 A 
ATOM     32  C   UNL d   1      56.229  -2.101  32.370  0.00  0.00     0.000 A 
ATOM     33  C   UNL d   1      56.464  -1.376  32.039  0.00  0.00     0.003 A 
BRANCH  31  34
ATOM     34  C   UNL d   1      55.609  -2.881  33.440  0.00  0.00     0.000 C 
ATOM     35  C   UNL d   1      55.048  -2.883  34.030  0.00  0.00     0.000 C 
ENDBRANCH  31  34
ENDBRANCH  26  28
ENDBRANCH   1  26
TORSDOF 6
ENDMDL
