MODEL 1
REMARK VINA RESULT:      -0.7      0.000      0.000
REMARK  6 active torsions:
REMARK  status: ('A' for Active; 'I' for Inactive)
REMARK    1  A    between atoms: C_8  and  C_1 
REMARK    2  A    between atoms: S_10  and  C_2 
REMARK    3  A    between atoms: C_7  and  C_4 
REMARK    4  A    between atoms: C_23  and  S_10 
REMARK    5  A    between atoms: C_16  and  C_23 
REMARK    6  A    between atoms: O_25  and  C_16 
ROOT
ATOM      1  C   UNL d   1      58.936  -1.684  29.249  0.00  0.00     0.045 A 
ATOM      2  C   UNL d   1      59.516  -2.099  28.768  0.00  0.00     0.112 A 
ATOM      3  C   UNL d   1      59.758  -0.508  29.194  0.00  0.00     0.057 A 
ATOM      4  C   UNL d   1      59.072  -0.896  29.451  0.00  0.00     0.008 A 
ATOM      5  C   UNL d   1      60.315  -0.908  28.732  0.00  0.00     0.085 A 
ATOM      6  N   UNL d   1      60.193  -1.699  28.520  0.00  0.00    -0.239 NA
ATOM      7  C   UNL d   1      59.876   0.279  29.406  0.00  0.00     0.197 A 
ATOM      8  O   UNL d   1      59.315   0.680  29.872  0.00  0.00    -0.286 OA
ATOM      9  C   UNL d   1      60.997  -0.525  28.475  0.00  0.00     0.019 A 
ATOM     10  C   UNL d   1      60.554   0.679  29.159  0.00  0.00     0.042 A 
ATOM     11  C   UNL d   1      61.133   0.264  28.677  0.00  0.00     0.005 A 
ENDROOT
BRANCH   4  12
ATOM     12  C   UNL d   1      58.511  -0.494  29.917  0.00  0.00     0.002 A 
ATOM     13  C   UNL d   1      58.343  -0.748  30.682  0.00  0.00     0.026 A 
ATOM     14  C   UNL d   1      57.787  -0.349  31.144  0.00  0.00     0.119 A 
ATOM     15  O   UNL d   1      57.506  -0.472  31.920  0.00  0.00    -0.300 OA
ATOM     16  C   UNL d   1      57.394   0.306  30.844  0.00  0.00     0.119 A 
ATOM     17  C   UNL d   1      56.955   0.099  32.081  0.00  0.00     0.304 A 
ATOM     18  O   UNL d   1      56.882   0.576  31.432  0.00  0.00    -0.300 OA
ATOM     19  C   UNL d   1      57.566   0.581  30.036  0.00  0.00     0.026 A 
ATOM     20  C   UNL d   1      58.122   0.170  29.593  0.00  0.00     0.002 A 
ENDBRANCH   4  12
BRANCH   1  21
ATOM     21  C   UNL d   1      58.222  -2.064  29.525  0.00  0.00     0.124 C 
ATOM     22  N   UNL d   1      57.763  -2.496  29.005  0.00  0.00    -0.146 N 
ENDBRANCH   1  21
BRANCH   2  23
ATOM     23  S   UNL d   1      59.411  -2.916  28.537  0.00  0.00    -0.062 SA
BRANCH  23  24
ATOM     24  C   UNL d   1      60.041  -3.435  28.582  0.00  0.00     0.105 C 
BRANCH  24  25
ATOM     25  C   UNL d   1      59.905  -4.233  28.734  0.00  0.00     0.303 C 
ATOM     26  O   UNL d   1      59.220  -4.594  28.459  0.00  0.00    -0.259 OA
BRANCH  25  27
ATOM     27  O   UNL d   1      60.454  -4.670  29.161  0.00  0.00    -0.295 OA
ATOM     28  C   UNL d   1      61.125  -4.985  28.797  0.00  0.00     0.185 C 
ENDBRANCH  25  27
ENDBRANCH  24  25
ENDBRANCH  23  24
ENDBRANCH   2  23
TORSDOF 6
ENDMDL
MODEL 2
REMARK VINA RESULT:       1.9      2.689      5.112
REMARK  6 active torsions:
REMARK  status: ('A' for Active; 'I' for Inactive)
REMARK    1  A    between atoms: C_8  and  C_1 
REMARK    2  A    between atoms: S_10  and  C_2 
REMARK    3  A    between atoms: C_7  and  C_4 
REMARK    4  A    between atoms: C_23  and  S_10 
REMARK    5  A    between atoms: C_16  and  C_23 
REMARK    6  A    between atoms: O_25  and  C_16 
ROOT
ATOM      1  C   UNL d   1      56.942  -0.047  32.153  0.00  0.00     0.045 A 
ATOM      2  C   UNL d   1      56.801   0.029  32.998  0.00  0.00     0.112 A 
ATOM      3  C   UNL d   1      58.322   0.282  32.372  0.00  0.00     0.057 A 
ATOM      4  C   UNL d   1      57.702   0.082  31.859  0.00  0.00     0.008 A 
ATOM      5  C   UNL d   1      58.186   0.355  33.184  0.00  0.00     0.085 A 
ATOM      6  N   UNL d   1      57.428   0.229  33.494  0.00  0.00    -0.239 NA
ATOM      7  C   UNL d   1      59.074   0.406  32.060  0.00  0.00     0.197 A 
ATOM      8  O   UNL d   1      59.211   0.333  31.243  0.00  0.00    -0.286 OA
ATOM      9  C   UNL d   1      58.800   0.553  33.695  0.00  0.00     0.019 A 
ATOM     10  C   UNL d   1      59.703   0.606  32.557  0.00  0.00     0.042 A 
ATOM     11  C   UNL d   1      59.561   0.682  33.401  0.00  0.00     0.005 A 
ENDROOT
BRANCH   4  12
ATOM     12  C   UNL d   1      57.839   0.009  31.042  0.00  0.00     0.002 A 
ATOM     13  C   UNL d   1      58.068  -0.714  30.719  0.00  0.00     0.026 A 
ATOM     14  C   UNL d   1      58.204  -0.787  29.907  0.00  0.00     0.119 A 
ATOM     15  O   UNL d   1      58.435  -1.430  29.430  0.00  0.00    -0.300 OA
ATOM     16  C   UNL d   1      58.112  -0.138  29.413  0.00  0.00     0.119 A 
ATOM     17  C   UNL d   1      58.481  -1.171  28.664  0.00  0.00     0.304 A 
ATOM     18  O   UNL d   1      58.286  -0.387  28.646  0.00  0.00    -0.300 OA
ATOM     19  C   UNL d   1      57.871   0.629  29.746  0.00  0.00     0.026 A 
ATOM     20  C   UNL d   1      57.741   0.680  30.556  0.00  0.00     0.002 A 
ENDBRANCH   4  12
BRANCH   1  21
ATOM     21  C   UNL d   1      56.317  -0.252  31.606  0.00  0.00     0.124 C 
ATOM     22  N   UNL d   1      55.851  -0.907  31.747  0.00  0.00    -0.146 N 
ENDBRANCH   1  21
BRANCH   2  23
ATOM     23  S   UNL d   1      56.027  -0.096  33.340  0.00  0.00    -0.062 SA
BRANCH  23  24
ATOM     24  C   UNL d   1      55.716   0.456  33.856  0.00  0.00     0.105 C 
BRANCH  24  25
ATOM     25  C   UNL d   1      55.080   0.254  34.339  0.00  0.00     0.303 C 
ATOM     26  O   UNL d   1      54.320   0.224  34.027  0.00  0.00    -0.259 OA
BRANCH  25  27
ATOM     27  O   UNL d   1      55.204   0.082  35.132  0.00  0.00    -0.295 OA
ATOM     28  C   UNL d   1      55.355   0.681  35.680  0.00  0.00     0.185 C 
ENDBRANCH  25  27
ENDBRANCH  24  25
ENDBRANCH  23  24
ENDBRANCH   2  23
TORSDOF 6
ENDMDL
