MODEL 1
REMARK VINA RESULT:      94.3      0.000      0.000
REMARK  3 active torsions:
REMARK  status: ('A' for Active; 'I' for Inactive)
REMARK    1  A    between atoms: S_3  and  N_1 
REMARK    2  A    between atoms: C_5  and  C_4 
REMARK    3  A    between atoms: C_11  and  C_6 
ROOT
ATOM      1  N   UNL d   1     -54.923-101.418 -41.381  0.00  0.00    -0.155 N 
ATOM      2  N   UNL d   1     -54.921-101.643 -40.598  0.00  0.00    -0.153 NA
ATOM      3  C   UNL d   1     -54.829-100.613 -41.415  0.00  0.00     0.098 A 
ATOM      4  C   UNL d   1     -54.824-100.969 -40.148  0.00  0.00     0.126 A 
ATOM      5  C   UNL d   1     -54.767-100.329 -40.644  0.00  0.00     0.043 A 
ENDROOT
BRANCH   3   6
ATOM      6  C   UNL d   1     -54.800-100.155 -42.100  0.00  0.00     0.047 A 
ATOM      7  C   UNL d   1     -54.762 -99.331 -42.044  0.00  0.00     0.140 A 
ATOM      8  N   UNL d   1     -54.733 -98.873 -42.732  0.00  0.00    -0.234 NA
ATOM      9 CL   UNL d   1     -54.753 -98.969 -41.304  0.00  0.00    -0.061 Cl
ATOM     10  C   UNL d   1     -54.742 -99.236 -43.473  0.00  0.00     0.082 A 
ATOM     11  C   UNL d   1     -54.780-100.059 -43.529  0.00  0.00     0.018 A 
ATOM     12  C   UNL d   1     -54.713 -98.778 -44.157  0.00  0.00     0.019 A 
ATOM     13  C   UNL d   1     -54.809-100.517 -42.843  0.00  0.00     0.005 A 
ATOM     14  C   UNL d   1     -54.789-100.422 -44.269  0.00  0.00     0.002 A 
ATOM     15  C   UNL d   1     -54.761 -99.966 -44.924  0.00  0.00     0.000 A 
ATOM     16  C   UNL d   1     -54.723 -99.142 -44.869  0.00  0.00     0.002 A 
ATOM     17  C   UNL d   1     -54.770-100.329 -45.665  0.00  0.00     0.000 C 
ENDBRANCH   3   6
BRANCH   1  18
ATOM     18  S   UNL d   1     -55.024-102.185 -41.645  0.00  0.00     0.266 S 
ATOM     19  O   UNL d   1     -54.763-102.824 -41.207  0.00  0.00    -0.203 OA
ATOM     20  O   UNL d   1     -55.408-102.113 -42.373  0.00  0.00    -0.203 OA
ATOM     21  C   UNL d   1     -55.217-102.860 -42.079  0.00  0.00     0.165 C 
ENDBRANCH   1  18
BRANCH   4  22
ATOM     22  C   UNL d   1     -54.791-100.941 -39.335  0.00  0.00     0.119 A 
ATOM     23  O   UNL d   1     -54.778-101.566 -38.816  0.00  0.00    -0.304 OA
ATOM     24  C   UNL d   1     -54.743-101.285 -38.052  0.00  0.00     0.123 A 
ATOM     25  C   UNL d   1     -54.733-100.471 -38.081  0.00  0.00     0.029 A 
ATOM     26  C   UNL d   1     -54.762-100.240 -38.869  0.00  0.00     0.028 A 
ENDBRANCH   4  22
TORSDOF 3
ENDMDL
