MODEL 1
REMARK VINA RESULT:      -8.8      0.000      0.000
REMARK  0 active torsions:
REMARK  status: ('A' for Active; 'I' for Inactive)
ROOT
ATOM      1  C   UNL d   1     -47.521  12.067  23.482  0.00  0.00     0.134 A 
ATOM      2  N   UNL d   1     -48.328  11.916  23.552  0.00  0.00    -0.234 NA
ATOM      3  C   UNL d   1     -47.269  12.801  23.195  0.00  0.00     0.045 A 
ATOM      4  C   UNL d   1     -48.876  12.493  23.335  0.00  0.00     0.207 A 
ATOM      5  N   UNL d   1     -48.626  13.230  23.046  0.00  0.00    -0.244 NA
ATOM      6  C   UNL d   1     -47.820  13.381  22.977  0.00  0.00     0.081 A 
ATOM      7  S   UNL d   1     -46.969  11.493  23.698  0.00  0.00    -0.058 SA
ATOM      8  C   UNL d   1     -46.460  12.955  23.124  0.00  0.00     0.004 A 
ATOM      9  C   UNL d   1     -49.134  11.766  23.621  0.00  0.00     0.023 A 
ATOM     10  C   UNL d   1     -49.421  13.074  23.117  0.00  0.00     0.023 A 
ATOM     11  C   UNL d   1     -47.559  14.111  22.690  0.00  0.00     0.019 A 
ATOM     12  C   UNL d   1     -46.202  13.682  22.839  0.00  0.00     0.000 A 
ATOM     13  C   UNL d   1     -50.222  12.927  23.185  0.00  0.00    -0.001 A 
ATOM     14  C   UNL d   1     -49.941  11.615  23.690  0.00  0.00    -0.001 A 
ATOM     15  C   UNL d   1     -46.753  14.262  22.622  0.00  0.00     0.002 A 
ATOM     16  C   UNL d   1     -50.486  12.194  23.472  0.00  0.00    -0.000 A 
ENDROOT
TORSDOF 0
ENDMDL
MODEL 2
REMARK VINA RESULT:      -8.5      1.121      3.231
REMARK  0 active torsions:
REMARK  status: ('A' for Active; 'I' for Inactive)
ROOT
ATOM      1  C   UNL d   1     -49.090  13.959  22.931  0.00  0.00     0.134 A 
ATOM      2  N   UNL d   1     -48.272  14.051  22.890  0.00  0.00    -0.234 NA
ATOM      3  C   UNL d   1     -49.406  13.217  23.114  0.00  0.00     0.045 A 
ATOM      4  C   UNL d   1     -47.776  13.407  23.031  0.00  0.00     0.207 A 
ATOM      5  N   UNL d   1     -48.090  12.661  23.215  0.00  0.00    -0.244 NA
ATOM      6  C   UNL d   1     -48.907  12.570  23.255  0.00  0.00     0.081 A 
ATOM      7  S   UNL d   1     -49.589  14.601  22.790  0.00  0.00    -0.058 SA
ATOM      8  C   UNL d   1     -50.226  13.122  23.155  0.00  0.00     0.004 A 
ATOM      9  C   UNL d   1     -47.456  14.143  22.849  0.00  0.00     0.023 A 
ATOM     10  C   UNL d   1     -47.284  12.760  23.173  0.00  0.00     0.023 A 
ATOM     11  C   UNL d   1     -49.232  11.831  23.438  0.00  0.00     0.019 A 
ATOM     12  C   UNL d   1     -50.547  12.386  23.337  0.00  0.00     0.000 A 
ATOM     13  C   UNL d   1     -46.473  12.848  23.133  0.00  0.00    -0.001 A 
ATOM     14  C   UNL d   1     -46.638  14.235  22.808  0.00  0.00    -0.001 A 
ATOM     15  C   UNL d   1     -50.049  11.739  23.479  0.00  0.00     0.002 A 
ATOM     16  C   UNL d   1     -46.145  13.589  22.950  0.00  0.00    -0.000 A 
ENDROOT
TORSDOF 0
ENDMDL
MODEL 3
REMARK VINA RESULT:      -8.4      0.551      2.798
REMARK  0 active torsions:
REMARK  status: ('A' for Active; 'I' for Inactive)
ROOT
ATOM      1  C   UNL d   1     -48.187  11.990  23.409  0.00  0.00     0.134 A 
ATOM      2  N   UNL d   1     -47.524  12.464  23.288  0.00  0.00    -0.234 NA
ATOM      3  C   UNL d   1     -48.937  12.292  23.237  0.00  0.00     0.045 A 
ATOM      4  C   UNL d   1     -47.611  13.231  22.999  0.00  0.00     0.207 A 
ATOM      5  N   UNL d   1     -48.363  13.537  22.826  0.00  0.00    -0.244 NA
ATOM      6  C   UNL d   1     -49.025  13.064  22.947  0.00  0.00     0.081 A 
ATOM      7  S   UNL d   1     -48.103  11.221  23.698  0.00  0.00    -0.058 SA
ATOM      8  C   UNL d   1     -49.605  11.819  23.357  0.00  0.00     0.004 A 
ATOM      9  C   UNL d   1     -46.861  12.936  23.168  0.00  0.00     0.023 A 
ATOM     10  C   UNL d   1     -47.703  13.998  22.710  0.00  0.00     0.023 A 
ATOM     11  C   UNL d   1     -49.780  13.358  22.778  0.00  0.00     0.019 A 
ATOM     12  C   UNL d   1     -50.354  12.113  23.189  0.00  0.00     0.000 A 
ATOM     13  C   UNL d   1     -47.048  14.470  22.589  0.00  0.00    -0.001 A 
ATOM     14  C   UNL d   1     -46.198  13.410  23.047  0.00  0.00    -0.001 A 
ATOM     15  C   UNL d   1     -50.442  12.884  22.899  0.00  0.00     0.002 A 
ATOM     16  C   UNL d   1     -46.289  14.177  22.758  0.00  0.00    -0.000 A 
ENDROOT
TORSDOF 0
ENDMDL
MODEL 4
REMARK VINA RESULT:      -8.3      1.317      2.904
REMARK  0 active torsions:
REMARK  status: ('A' for Active; 'I' for Inactive)
ROOT
ATOM      1  C   UNL d   1     -49.024  13.124  23.110  0.00  0.00     0.134 A 
ATOM      2  N   UNL d   1     -48.214  12.982  23.061  0.00  0.00    -0.234 NA
ATOM      3  C   UNL d   1     -49.305  13.899  23.042  0.00  0.00     0.045 A 
ATOM      4  C   UNL d   1     -47.691  13.609  22.947  0.00  0.00     0.207 A 
ATOM      5  N   UNL d   1     -47.969  14.388  22.879  0.00  0.00    -0.244 NA
ATOM      6  C   UNL d   1     -48.779  14.529  22.927  0.00  0.00     0.081 A 
ATOM      7  S   UNL d   1     -49.551  12.499  23.224  0.00  0.00    -0.058 SA
ATOM      8  C   UNL d   1     -50.117  14.044  23.090  0.00  0.00     0.004 A 
ATOM      9  C   UNL d   1     -47.405  12.840  23.013  0.00  0.00     0.023 A 
ATOM     10  C   UNL d   1     -47.171  14.240  22.832  0.00  0.00     0.023 A 
ATOM     11  C   UNL d   1     -49.068  15.302  22.860  0.00  0.00     0.019 A 
ATOM     12  C   UNL d   1     -50.403  14.813  23.024  0.00  0.00     0.000 A 
ATOM     13  C   UNL d   1     -46.368  14.102  22.784  0.00  0.00    -0.001 A 
ATOM     14  C   UNL d   1     -46.595  12.698  22.965  0.00  0.00    -0.001 A 
ATOM     15  C   UNL d   1     -49.877  15.443  22.909  0.00  0.00     0.002 A 
ATOM     16  C   UNL d   1     -46.075  13.328  22.850  0.00  0.00    -0.000 A 
ENDROOT
TORSDOF 0
ENDMDL
MODEL 5
REMARK VINA RESULT:      -7.5      1.966      2.842
REMARK  0 active torsions:
REMARK  status: ('A' for Active; 'I' for Inactive)
ROOT
ATOM      1  C   UNL d   1     -48.448  14.207  22.691  0.00  0.00     0.134 A 
ATOM      2  N   UNL d   1     -48.937  14.778  23.027  0.00  0.00    -0.234 NA
ATOM      3  C   UNL d   1     -48.787  13.559  22.305  0.00  0.00     0.045 A 
ATOM      4  C   UNL d   1     -49.757  14.702  22.976  0.00  0.00     0.207 A 
ATOM      5  N   UNL d   1     -50.100  14.053  22.589  0.00  0.00    -0.244 NA
ATOM      6  C   UNL d   1     -49.611  13.482  22.254  0.00  0.00     0.081 A 
ATOM      7  S   UNL d   1     -47.627  14.280  22.740  0.00  0.00    -0.058 SA
ATOM      8  C   UNL d   1     -48.298  12.984  21.967  0.00  0.00     0.004 A 
ATOM      9  C   UNL d   1     -49.426  15.349  23.362  0.00  0.00     0.023 A 
ATOM     10  C   UNL d   1     -50.576  14.621  22.922  0.00  0.00     0.023 A 
ATOM     11  C   UNL d   1     -49.942  12.831  21.865  0.00  0.00     0.019 A 
ATOM     12  C   UNL d   1     -48.628  12.337  21.581  0.00  0.00     0.000 A 
ATOM     13  C   UNL d   1     -51.064  15.186  23.254  0.00  0.00    -0.001 A 
ATOM     14  C   UNL d   1     -49.915  15.921  23.697  0.00  0.00    -0.001 A 
ATOM     15  C   UNL d   1     -49.452  12.260  21.530  0.00  0.00     0.002 A 
ATOM     16  C   UNL d   1     -50.735  15.841  23.644  0.00  0.00    -0.000 A 
ENDROOT
TORSDOF 0
ENDMDL
MODEL 6
REMARK VINA RESULT:      -6.3      1.321      2.760
REMARK  0 active torsions:
REMARK  status: ('A' for Active; 'I' for Inactive)
ROOT
ATOM      1  C   UNL d   1     -46.904  13.242  23.121  0.00  0.00     0.134 A 
ATOM      2  N   UNL d   1     -46.492  12.540  23.250  0.00  0.00    -0.234 NA
ATOM      3  C   UNL d   1     -47.731  13.238  23.154  0.00  0.00     0.045 A 
ATOM      4  C   UNL d   1     -46.903  11.843  23.410  0.00  0.00     0.207 A 
ATOM      5  N   UNL d   1     -47.733  11.836  23.443  0.00  0.00    -0.244 NA
ATOM      6  C   UNL d   1     -48.144  12.538  23.315  0.00  0.00     0.081 A 
ATOM      7  S   UNL d   1     -46.497  13.941  22.961  0.00  0.00    -0.058 SA
ATOM      8  C   UNL d   1     -48.147  13.941  23.025  0.00  0.00     0.004 A 
ATOM      9  C   UNL d   1     -46.081  11.840  23.379  0.00  0.00     0.023 A 
ATOM     10  C   UNL d   1     -47.318  11.148  23.569  0.00  0.00     0.023 A 
ATOM     11  C   UNL d   1     -48.971  12.543  23.346  0.00  0.00     0.019 A 
ATOM     12  C   UNL d   1     -48.969  13.945  23.056  0.00  0.00     0.000 A 
ATOM     13  C   UNL d   1     -46.913  10.451  23.697  0.00  0.00    -0.001 A 
ATOM     14  C   UNL d   1     -45.669  11.138  23.507  0.00  0.00    -0.001 A 
ATOM     15  C   UNL d   1     -49.382  13.245  23.217  0.00  0.00     0.002 A 
ATOM     16  C   UNL d   1     -46.083  10.442  23.667  0.00  0.00    -0.000 A 
ENDROOT
TORSDOF 0
ENDMDL
MODEL 7
REMARK VINA RESULT:      -6.2      8.656      9.487
REMARK  0 active torsions:
REMARK  status: ('A' for Active; 'I' for Inactive)
ROOT
ATOM      1  C   UNL d   1     -39.717  14.314  18.516  0.00  0.00     0.134 A 
ATOM      2  N   UNL d   1     -39.819  14.418  19.327  0.00  0.00    -0.234 NA
ATOM      3  C   UNL d   1     -40.109  14.818  17.991  0.00  0.00     0.045 A 
ATOM      4  C   UNL d   1     -40.309  15.019  19.609  0.00  0.00     0.207 A 
ATOM      5  N   UNL d   1     -40.704  15.526  19.083  0.00  0.00    -0.244 NA
ATOM      6  C   UNL d   1     -40.601  15.422  18.273  0.00  0.00     0.081 A 
ATOM      7  S   UNL d   1     -39.228  13.714  18.231  0.00  0.00    -0.058 SA
ATOM      8  C   UNL d   1     -40.008  14.716  17.176  0.00  0.00     0.004 A 
ATOM      9  C   UNL d   1     -39.921  14.521  20.137  0.00  0.00     0.023 A 
ATOM     10  C   UNL d   1     -40.800  15.622  19.885  0.00  0.00     0.023 A 
ATOM     11  C   UNL d   1     -40.990  15.922  17.740  0.00  0.00     0.019 A 
ATOM     12  C   UNL d   1     -40.395  15.214  16.648  0.00  0.00     0.000 A 
ATOM     13  C   UNL d   1     -40.903  15.727  20.688  0.00  0.00    -0.001 A 
ATOM     14  C   UNL d   1     -40.024  14.625  20.948  0.00  0.00    -0.001 A 
ATOM     15  C   UNL d   1     -40.888  15.818  16.930  0.00  0.00     0.002 A 
ATOM     16  C   UNL d   1     -40.515  15.227  21.226  0.00  0.00    -0.000 A 
ENDROOT
TORSDOF 0
ENDMDL
MODEL 8
REMARK VINA RESULT:      -6.2      9.514     10.698
REMARK  0 active torsions:
REMARK  status: ('A' for Active; 'I' for Inactive)
ROOT
ATOM      1  C   UNL d   1     -40.050  14.306  18.486  0.00  0.00     0.134 A 
ATOM      2  N   UNL d   1     -39.456  13.768  18.295  0.00  0.00    -0.234 NA
ATOM      3  C   UNL d   1     -40.310  14.843  17.913  0.00  0.00     0.045 A 
ATOM      4  C   UNL d   1     -39.126  13.769  17.539  0.00  0.00     0.207 A 
ATOM      5  N   UNL d   1     -39.385  14.307  16.962  0.00  0.00    -0.244 NA
ATOM      6  C   UNL d   1     -39.978  14.844  17.153  0.00  0.00     0.081 A 
ATOM      7  S   UNL d   1     -40.383  14.309  19.241  0.00  0.00    -0.058 SA
ATOM      8  C   UNL d   1     -40.906  15.384  18.102  0.00  0.00     0.004 A 
ATOM      9  C   UNL d   1     -38.863  13.231  18.104  0.00  0.00     0.023 A 
ATOM     10  C   UNL d   1     -38.799  13.773  16.781  0.00  0.00     0.023 A 
ATOM     11  C   UNL d   1     -40.244  15.385  16.587  0.00  0.00     0.019 A 
ATOM     12  C   UNL d   1     -41.170  15.922  17.538  0.00  0.00     0.000 A 
ATOM     13  C   UNL d   1     -38.209  13.241  16.589  0.00  0.00    -0.001 A 
ATOM     14  C   UNL d   1     -38.269  12.694  17.913  0.00  0.00    -0.001 A 
ATOM     15  C   UNL d   1     -40.838  15.922  16.778  0.00  0.00     0.002 A 
ATOM     16  C   UNL d   1     -37.941  12.697  17.156  0.00  0.00    -0.000 A 
ENDROOT
TORSDOF 0
ENDMDL
MODEL 9
REMARK VINA RESULT:      -5.8      8.849      9.523
REMARK  0 active torsions:
REMARK  status: ('A' for Active; 'I' for Inactive)
ROOT
ATOM      1  C   UNL d   1     -40.496  15.359  20.235  0.00  0.00     0.134 A 
ATOM      2  N   UNL d   1     -40.548  15.210  19.426  0.00  0.00    -0.234 NA
ATOM      3  C   UNL d   1     -39.948  14.940  20.690  0.00  0.00     0.045 A 
ATOM      4  C   UNL d   1     -40.056  14.647  19.078  0.00  0.00     0.207 A 
ATOM      5  N   UNL d   1     -39.505  14.225  19.532  0.00  0.00    -0.244 NA
ATOM      6  C   UNL d   1     -39.453  14.374  20.340  0.00  0.00     0.081 A 
ATOM      7  S   UNL d   1     -40.987  15.922  20.587  0.00  0.00    -0.058 SA
ATOM      8  C   UNL d   1     -39.894  15.088  21.502  0.00  0.00     0.004 A 
ATOM      9  C   UNL d   1     -40.599  15.061  18.619  0.00  0.00     0.023 A 
ATOM     10  C   UNL d   1     -39.562  14.083  18.733  0.00  0.00     0.023 A 
ATOM     11  C   UNL d   1     -38.908  13.959  20.803  0.00  0.00     0.019 A 
ATOM     12  C   UNL d   1     -39.351  14.674  21.961  0.00  0.00     0.000 A 
ATOM     13  C   UNL d   1     -39.610  13.933  17.932  0.00  0.00    -0.001 A 
ATOM     14  C   UNL d   1     -40.651  14.912  17.810  0.00  0.00    -0.001 A 
ATOM     15  C   UNL d   1     -38.857  14.108  21.611  0.00  0.00     0.002 A 
ATOM     16  C   UNL d   1     -40.157  14.348  17.465  0.00  0.00    -0.000 A 
ENDROOT
TORSDOF 0
ENDMDL
