MODEL 1
REMARK VINA RESULT:      -8.0      0.000      0.000
REMARK  3 active torsions:
REMARK  status: ('A' for Active; 'I' for Inactive)
REMARK       I    between atoms: C_2  and  N_1 
REMARK    1  A    between atoms: C_3  and  C_2 
REMARK    2  A    between atoms: S_5  and  C_3 
REMARK    3  A    between atoms: C_7  and  S_5 
ROOT
ATOM      1  C   UNL d   1      52.948  32.751  53.553  0.00  0.00     0.125 C 
ENDROOT
BRANCH   1   2
ATOM      2  C   UNL d   1      52.734  33.523  53.354  0.00  0.00     0.259 C 
ATOM      3  N   UNL d   1      52.905  34.150  53.873  0.00  0.00    -0.268 N 
ATOM      4  C   UNL d   1      52.695  34.924  53.683  0.00  0.00     0.110 A 
ATOM      5  C   UNL d   1      53.289  33.990  54.586  0.00  0.00     0.110 A 
ATOM      6  C   UNL d   1      52.869  35.540  54.206  0.00  0.00     0.142 A 
ATOM      7  O   UNL d   1      53.253  35.379  54.918  0.00  0.00    -0.300 OA
ATOM      8  C   UNL d   1      53.463  34.605  55.108  0.00  0.00     0.142 A 
ATOM      9  O   UNL d   1      52.348  33.681  52.638  0.00  0.00    -0.267 OA
ENDBRANCH   1   2
BRANCH   1  10
ATOM     10  S   UNL d   1      52.864  32.158  52.995  0.00  0.00    -0.095 SA
BRANCH  10  11
ATOM     11  C   UNL d   1      52.977  31.371  53.214  0.00  0.00     0.029 A 
ATOM     12  C   UNL d   1      53.683  31.141  53.573  0.00  0.00     0.006 A 
ATOM     13  C   UNL d   1      53.797  30.353  53.792  0.00  0.00     0.001 A 
ATOM     14  C   UNL d   1      53.204  29.797  53.650  0.00  0.00     0.000 A 
ATOM     15  C   UNL d   1      52.499  30.027  53.291  0.00  0.00     0.001 A 
ATOM     16  C   UNL d   1      53.330  29.013  53.873  0.00  0.00     0.000 C 
ATOM     17  C   UNL d   1      52.385  30.815  53.072  0.00  0.00     0.006 A 
ENDBRANCH  10  11
ENDBRANCH   1  10
TORSDOF 3
ENDMDL
MODEL 2
REMARK VINA RESULT:      -7.5      1.991      4.188
REMARK  3 active torsions:
REMARK  status: ('A' for Active; 'I' for Inactive)
REMARK       I    between atoms: C_2  and  N_1 
REMARK    1  A    between atoms: C_3  and  C_2 
REMARK    2  A    between atoms: S_5  and  C_3 
REMARK    3  A    between atoms: C_7  and  S_5 
ROOT
ATOM      1  C   UNL d   1      53.604  31.615  53.658  0.00  0.00     0.125 C 
ENDROOT
BRANCH   1   2
ATOM      2  C   UNL d   1      53.098  31.158  53.194  0.00  0.00     0.259 C 
ATOM      3  N   UNL d   1      52.987  30.351  53.369  0.00  0.00    -0.268 N 
ATOM      4  C   UNL d   1      52.485  29.886  52.911  0.00  0.00     0.110 A 
ATOM      5  C   UNL d   1      53.388  30.019  54.009  0.00  0.00     0.110 A 
ATOM      6  C   UNL d   1      52.382  29.087  53.092  0.00  0.00     0.142 A 
ATOM      7  O   UNL d   1      52.782  28.756  53.732  0.00  0.00    -0.300 OA
ATOM      8  C   UNL d   1      53.285  29.221  54.190  0.00  0.00     0.142 A 
ATOM      9  O   UNL d   1      52.697  31.494  52.552  0.00  0.00    -0.267 OA
ENDBRANCH   1   2
BRANCH   1  10
ATOM     10  S   UNL d   1      53.605  32.428  53.563  0.00  0.00    -0.095 SA
BRANCH  10  11
ATOM     11  C   UNL d   1      54.075  32.898  54.053  0.00  0.00     0.029 A 
ATOM     12  C   UNL d   1      54.853  33.067  53.837  0.00  0.00     0.006 A 
ATOM     13  C   UNL d   1      55.323  33.537  54.326  0.00  0.00     0.001 A 
ATOM     14  C   UNL d   1      55.014  33.837  55.030  0.00  0.00     0.000 A 
ATOM     15  C   UNL d   1      54.237  33.667  55.245  0.00  0.00     0.001 A 
ATOM     16  C   UNL d   1      55.495  34.305  55.510  0.00  0.00     0.000 C 
ATOM     17  C   UNL d   1      53.767  33.198  54.756  0.00  0.00     0.006 A 
ENDBRANCH  10  11
ENDBRANCH   1  10
TORSDOF 3
ENDMDL
MODEL 3
REMARK VINA RESULT:      -7.4      2.045      4.212
REMARK  3 active torsions:
REMARK  status: ('A' for Active; 'I' for Inactive)
REMARK       I    between atoms: C_2  and  N_1 
REMARK    1  A    between atoms: C_3  and  C_2 
REMARK    2  A    between atoms: S_5  and  C_3 
REMARK    3  A    between atoms: C_7  and  S_5 
ROOT
ATOM      1  C   UNL d   1      52.550  32.433  53.035  0.00  0.00     0.125 C 
ENDROOT
BRANCH   1   2
ATOM      2  C   UNL d   1      53.190  32.042  53.378  0.00  0.00     0.259 C 
ATOM      3  N   UNL d   1      53.215  31.210  53.387  0.00  0.00    -0.268 N 
ATOM      4  C   UNL d   1      53.850  30.811  53.727  0.00  0.00     0.110 A 
ATOM      5  C   UNL d   1      52.593  30.785  53.049  0.00  0.00     0.110 A 
ATOM      6  C   UNL d   1      53.865  29.986  53.731  0.00  0.00     0.142 A 
ATOM      7  O   UNL d   1      53.244  29.561  53.393  0.00  0.00    -0.300 OA
ATOM      8  C   UNL d   1      52.608  29.960  53.053  0.00  0.00     0.142 A 
ATOM      9  O   UNL d   1      53.813  32.472  53.716  0.00  0.00    -0.267 OA
ENDBRANCH   1   2
BRANCH   1  10
ATOM     10  S   UNL d   1      52.441  33.230  53.188  0.00  0.00    -0.095 SA
BRANCH  10  11
ATOM     11  C   UNL d   1      51.750  33.605  52.938  0.00  0.00     0.029 A 
ATOM     12  C   UNL d   1      51.092  33.631  53.436  0.00  0.00     0.006 A 
ATOM     13  C   UNL d   1      50.401  34.006  53.186  0.00  0.00     0.001 A 
ATOM     14  C   UNL d   1      50.369  34.355  52.439  0.00  0.00     0.000 A 
ATOM     15  C   UNL d   1      51.026  34.329  51.942  0.00  0.00     0.001 A 
ATOM     16  C   UNL d   1      49.672  34.727  52.201  0.00  0.00     0.000 C 
ATOM     17  C   UNL d   1      51.717  33.954  52.192  0.00  0.00     0.006 A 
ENDBRANCH  10  11
ENDBRANCH   1  10
TORSDOF 3
ENDMDL
MODEL 4
REMARK VINA RESULT:      -7.3      1.622      4.206
REMARK  3 active torsions:
REMARK  status: ('A' for Active; 'I' for Inactive)
REMARK       I    between atoms: C_2  and  N_1 
REMARK    1  A    between atoms: C_3  and  C_2 
REMARK    2  A    between atoms: S_5  and  C_3 
REMARK    3  A    between atoms: C_7  and  S_5 
ROOT
ATOM      1  C   UNL d   1      53.065  32.178  53.407  0.00  0.00     0.125 C 
ENDROOT
BRANCH   1   2
ATOM      2  C   UNL d   1      52.885  31.495  52.981  0.00  0.00     0.259 C 
ATOM      3  N   UNL d   1      52.966  30.747  53.339  0.00  0.00    -0.268 N 
ATOM      4  C   UNL d   1      52.789  30.059  52.921  0.00  0.00     0.110 A 
ATOM      5  C   UNL d   1      53.228  30.700  54.120  0.00  0.00     0.110 A 
ATOM      6  C   UNL d   1      52.872  29.322  53.285  0.00  0.00     0.142 A 
ATOM      7  O   UNL d   1      53.134  29.276  54.066  0.00  0.00    -0.300 OA
ATOM      8  C   UNL d   1      53.311  29.964  54.483  0.00  0.00     0.142 A 
ATOM      9  O   UNL d   1      52.623  31.544  52.197  0.00  0.00    -0.267 OA
ENDBRANCH   1   2
BRANCH   1  10
ATOM     10  S   UNL d   1      53.098  32.895  53.014  0.00  0.00    -0.095 SA
BRANCH  10  11
ATOM     11  C   UNL d   1      53.083  33.599  53.443  0.00  0.00     0.029 A 
ATOM     12  C   UNL d   1      52.547  34.194  53.242  0.00  0.00     0.006 A 
ATOM     13  C   UNL d   1      52.533  34.898  53.672  0.00  0.00     0.001 A 
ATOM     14  C   UNL d   1      53.054  35.007  54.302  0.00  0.00     0.000 A 
ATOM     15  C   UNL d   1      53.590  34.413  54.502  0.00  0.00     0.001 A 
ATOM     16  C   UNL d   1      53.030  35.716  54.723  0.00  0.00     0.000 C 
ATOM     17  C   UNL d   1      53.604  33.709  54.073  0.00  0.00     0.006 A 
ENDBRANCH  10  11
ENDBRANCH   1  10
TORSDOF 3
ENDMDL
MODEL 5
REMARK VINA RESULT:      -7.2      2.151      3.399
REMARK  3 active torsions:
REMARK  status: ('A' for Active; 'I' for Inactive)
REMARK       I    between atoms: C_2  and  N_1 
REMARK    1  A    between atoms: C_3  and  C_2 
REMARK    2  A    between atoms: S_5  and  C_3 
REMARK    3  A    between atoms: C_7  and  S_5 
ROOT
ATOM      1  C   UNL d   1      52.694  33.504  53.663  0.00  0.00     0.125 C 
ENDROOT
BRANCH   1   2
ATOM      2  C   UNL d   1      53.370  33.106  53.919  0.00  0.00     0.259 C 
ATOM      3  N   UNL d   1      53.902  33.479  54.438  0.00  0.00    -0.268 N 
ATOM      4  C   UNL d   1      54.580  33.089  54.699  0.00  0.00     0.110 A 
ATOM      5  C   UNL d   1      53.745  34.249  54.692  0.00  0.00     0.110 A 
ATOM      6  C   UNL d   1      55.102  33.468  55.214  0.00  0.00     0.142 A 
ATOM      7  O   UNL d   1      54.945  34.237  55.467  0.00  0.00    -0.300 OA
ATOM      8  C   UNL d   1      54.267  34.627  55.206  0.00  0.00     0.142 A 
ATOM      9  O   UNL d   1      53.525  32.333  53.663  0.00  0.00    -0.267 OA
ENDBRANCH   1   2
BRANCH   1  10
ATOM     10  S   UNL d   1      52.188  33.133  53.137  0.00  0.00    -0.095 SA
BRANCH  10  11
ATOM     11  C   UNL d   1      51.520  33.531  52.861  0.00  0.00     0.029 A 
ATOM     12  C   UNL d   1      50.825  33.526  53.307  0.00  0.00     0.006 A 
ATOM     13  C   UNL d   1      50.156  33.924  53.031  0.00  0.00     0.001 A 
ATOM     14  C   UNL d   1      50.184  34.325  52.310  0.00  0.00     0.000 A 
ATOM     15  C   UNL d   1      50.878  34.329  51.866  0.00  0.00     0.001 A 
ATOM     16  C   UNL d   1      49.508  34.718  52.046  0.00  0.00     0.000 C 
ATOM     17  C   UNL d   1      51.546  33.932  52.142  0.00  0.00     0.006 A 
ENDBRANCH  10  11
ENDBRANCH   1  10
TORSDOF 3
ENDMDL
MODEL 6
REMARK VINA RESULT:      -6.7      2.152      3.197
REMARK  3 active torsions:
REMARK  status: ('A' for Active; 'I' for Inactive)
REMARK       I    between atoms: C_2  and  N_1 
REMARK    1  A    between atoms: C_3  and  C_2 
REMARK    2  A    between atoms: S_5  and  C_3 
REMARK    3  A    between atoms: C_7  and  S_5 
ROOT
ATOM      1  C   UNL d   1      52.010  33.800  53.194  0.00  0.00     0.125 C 
ENDROOT
BRANCH   1   2
ATOM      2  C   UNL d   1      51.514  33.833  52.536  0.00  0.00     0.259 C 
ATOM      3  N   UNL d   1      50.769  34.200  52.594  0.00  0.00    -0.268 N 
ATOM      4  C   UNL d   1      50.266  34.238  51.942  0.00  0.00     0.110 A 
ATOM      5  C   UNL d   1      50.535  34.527  53.315  0.00  0.00     0.110 A 
ATOM      6  C   UNL d   1      49.529  34.604  52.009  0.00  0.00     0.142 A 
ATOM      7  O   UNL d   1      49.296  34.931  52.730  0.00  0.00    -0.300 OA
ATOM      8  C   UNL d   1      49.799  34.892  53.382  0.00  0.00     0.142 A 
ATOM      9  O   UNL d   1      51.751  33.504  51.813  0.00  0.00    -0.267 OA
ENDBRANCH   1   2
BRANCH   1  10
ATOM     10  S   UNL d   1      52.726  33.408  53.134  0.00  0.00    -0.095 SA
BRANCH  10  11
ATOM     11  C   UNL d   1      53.251  33.411  53.771  0.00  0.00     0.029 A 
ATOM     12  C   UNL d   1      53.540  34.127  54.062  0.00  0.00     0.006 A 
ATOM     13  C   UNL d   1      54.065  34.130  54.699  0.00  0.00     0.001 A 
ATOM     14  C   UNL d   1      54.299  33.418  55.043  0.00  0.00     0.000 A 
ATOM     15  C   UNL d   1      54.010  32.703  54.752  0.00  0.00     0.001 A 
ATOM     16  C   UNL d   1      54.824  33.435  55.680  0.00  0.00     0.000 C 
ATOM     17  C   UNL d   1      53.485  32.700  54.115  0.00  0.00     0.006 A 
ENDBRANCH  10  11
ENDBRANCH   1  10
TORSDOF 3
ENDMDL
MODEL 7
REMARK VINA RESULT:      -6.2      3.578      4.545
REMARK  3 active torsions:
REMARK  status: ('A' for Active; 'I' for Inactive)
REMARK       I    between atoms: C_2  and  N_1 
REMARK    1  A    between atoms: C_3  and  C_2 
REMARK    2  A    between atoms: S_5  and  C_3 
REMARK    3  A    between atoms: C_7  and  S_5 
ROOT
ATOM      1  C   UNL d   1      49.743  34.718  52.637  0.00  0.00     0.125 C 
ENDROOT
BRANCH   1   2
ATOM      2  C   UNL d   1      49.084  34.908  52.178  0.00  0.00     0.259 C 
ATOM      3  N   UNL d   1      48.500  35.421  52.478  0.00  0.00    -0.268 N 
ATOM      4  C   UNL d   1      47.839  35.616  52.027  0.00  0.00     0.110 A 
ATOM      5  C   UNL d   1      48.591  35.734  53.237  0.00  0.00     0.110 A 
ATOM      6  C   UNL d   1      47.266  36.126  52.334  0.00  0.00     0.142 A 
ATOM      7  O   UNL d   1      47.357  36.438  53.092  0.00  0.00    -0.300 OA
ATOM      8  C   UNL d   1      48.018  36.242  53.543  0.00  0.00     0.142 A 
ATOM      9  O   UNL d   1      48.996  34.593  51.417  0.00  0.00    -0.267 OA
ENDBRANCH   1   2
BRANCH   1  10
ATOM     10  S   UNL d   1      50.332  34.251  52.313  0.00  0.00    -0.095 SA
BRANCH  10  11
ATOM     11  C   UNL d   1      51.015  34.092  52.748  0.00  0.00     0.029 A 
ATOM     12  C   UNL d   1      51.054  33.419  53.223  0.00  0.00     0.006 A 
ATOM     13  C   UNL d   1      51.737  33.260  53.658  0.00  0.00     0.001 A 
ATOM     14  C   UNL d   1      52.380  33.776  53.617  0.00  0.00     0.000 A 
ATOM     15  C   UNL d   1      52.341  34.448  53.142  0.00  0.00     0.001 A 
ATOM     16  C   UNL d   1      53.057  33.606  54.056  0.00  0.00     0.000 C 
ATOM     17  C   UNL d   1      51.658  34.607  52.707  0.00  0.00     0.006 A 
ENDBRANCH  10  11
ENDBRANCH   1  10
TORSDOF 3
ENDMDL
MODEL 8
REMARK VINA RESULT:      -5.5      1.659      2.212
REMARK  3 active torsions:
REMARK  status: ('A' for Active; 'I' for Inactive)
REMARK       I    between atoms: C_2  and  N_1 
REMARK    1  A    between atoms: C_3  and  C_2 
REMARK    2  A    between atoms: S_5  and  C_3 
REMARK    3  A    between atoms: C_7  and  S_5 
ROOT
ATOM      1  C   UNL d   1      52.108  33.144  53.005  0.00  0.00     0.125 C 
ENDROOT
BRANCH   1   2
ATOM      2  C   UNL d   1      51.740  33.815  53.314  0.00  0.00     0.259 C 
ATOM      3  N   UNL d   1      51.025  34.086  52.987  0.00  0.00    -0.268 N 
ATOM      4  C   UNL d   1      50.650  34.755  53.289  0.00  0.00     0.110 A 
ATOM      5  C   UNL d   1      50.691  33.677  52.352  0.00  0.00     0.110 A 
ATOM      6  C   UNL d   1      49.940  35.016  52.957  0.00  0.00     0.142 A 
ATOM      7  O   UNL d   1      49.607  34.607  52.323  0.00  0.00    -0.300 OA
ATOM      8  C   UNL d   1      49.982  33.938  52.021  0.00  0.00     0.142 A 
ATOM      9  O   UNL d   1      52.077  34.224  53.951  0.00  0.00    -0.267 OA
ENDBRANCH   1   2
BRANCH   1  10
ATOM     10  S   UNL d   1      52.832  32.911  53.309  0.00  0.00    -0.095 SA
BRANCH  10  11
ATOM     11  C   UNL d   1      53.021  32.109  53.347  0.00  0.00     0.029 A 
ATOM     12  C   UNL d   1      53.573  31.842  53.900  0.00  0.00     0.006 A 
ATOM     13  C   UNL d   1      53.763  31.040  53.938  0.00  0.00     0.001 A 
ATOM     14  C   UNL d   1      53.401  30.506  53.423  0.00  0.00     0.000 A 
ATOM     15  C   UNL d   1      52.850  30.773  52.871  0.00  0.00     0.001 A 
ATOM     16  C   UNL d   1      53.599  29.707  53.472  0.00  0.00     0.000 C 
ATOM     17  C   UNL d   1      52.660  31.575  52.833  0.00  0.00     0.006 A 
ENDBRANCH  10  11
ENDBRANCH   1  10
TORSDOF 3
ENDMDL
