MODEL 1
REMARK VINA RESULT:      -7.3      0.000      0.000
REMARK  5 active torsions:
REMARK  status: ('A' for Active; 'I' for Inactive)
REMARK    1  A    between atoms: C_4  and  S_1 
REMARK    2  A    between atoms: N_5  and  S_1 
REMARK    3  A    between atoms: C_2  and  C_9 
REMARK       I    between atoms: N_3  and  C_2 
REMARK    4  A    between atoms: C_14  and  N_5 
REMARK    5  A    between atoms: C_15  and  C_14 
ROOT
ATOM      1  C   UNL d   1     -49.321  12.582  22.809  0.00  0.00     0.057 A 
ATOM      2  C   UNL d   1     -48.815  12.445  22.167  0.00  0.00     0.005 A 
ATOM      3  C   UNL d   1     -49.131  12.288  23.555  0.00  0.00     0.005 A 
ATOM      4  C   UNL d   1     -47.930  11.719  23.023  0.00  0.00     0.020 A 
ATOM      5  C   UNL d   1     -48.119  12.013  22.277  0.00  0.00     0.002 A 
ATOM      6  C   UNL d   1     -48.430  11.854  23.662  0.00  0.00     0.002 A 
ENDROOT
BRANCH   4   7
ATOM      7  C   UNL d   1     -47.232  11.285  23.137  0.00  0.00     0.112 C 
BRANCH   7   8
ATOM      8  N   UNL d   1     -46.605  11.630  23.552  0.00  0.00    -0.157 NA
BRANCH   8   9
ATOM      9  S   UNL d   1     -45.835  11.311  23.479  0.00  0.00     0.285 S 
ATOM     10  O   UNL d   1     -46.150  10.543  23.537  0.00  0.00    -0.198 OA
ATOM     11  O   UNL d   1     -45.525  12.079  23.422  0.00  0.00    -0.198 OA
BRANCH   9  12
ATOM     12  C   UNL d   1     -45.070  10.993  23.407  0.00  0.00     0.106 A 
ATOM     13  C   UNL d   1     -44.478  11.436  23.039  0.00  0.00     0.024 A 
ATOM     14  C   UNL d   1     -43.716  11.125  22.964  0.00  0.00     0.059 A 
ATOM     15 CL   UNL d   1     -43.118  11.564  22.597  0.00  0.00    -0.082 Cl
ATOM     16  C   UNL d   1     -43.551  10.373  23.259  0.00  0.00     0.011 A 
ATOM     17  C   UNL d   1     -44.144   9.934  23.625  0.00  0.00     0.002 A 
ATOM     18  C   UNL d   1     -44.901  10.247  23.697  0.00  0.00     0.013 A 
ENDBRANCH   9  12
ENDBRANCH   8   9
ENDBRANCH   7   8
ENDBRANCH   4   7
BRANCH   1  19
ATOM     19  C   UNL d   1     -50.029  13.021  22.702  0.00  0.00     0.265 C 
ATOM     20  N   UNL d   1     -50.024  13.843  22.815  0.00  0.00    -0.272 N 
ATOM     21  C   UNL d   1     -49.329  14.228  23.029  0.00  0.00     0.083 A 
ATOM     22  C   UNL d   1     -50.722  14.277  22.710  0.00  0.00     0.083 A 
ATOM     23  C   UNL d   1     -49.329  15.039  23.138  0.00  0.00     0.019 A 
ATOM     24  C   UNL d   1     -50.020  15.466  23.034  0.00  0.00     0.003 A 
ATOM     25  C   UNL d   1     -50.718  15.095  22.821  0.00  0.00     0.019 A 
ATOM     26  O   UNL d   1     -50.735  12.629  22.485  0.00  0.00    -0.267 OA
ENDBRANCH   1  19
TORSDOF 5
ENDMDL
MODEL 2
REMARK VINA RESULT:      -6.2      2.484      5.845
REMARK  5 active torsions:
REMARK  status: ('A' for Active; 'I' for Inactive)
REMARK    1  A    between atoms: C_4  and  S_1 
REMARK    2  A    between atoms: N_5  and  S_1 
REMARK    3  A    between atoms: C_2  and  C_9 
REMARK       I    between atoms: N_3  and  C_2 
REMARK    4  A    between atoms: C_14  and  N_5 
REMARK    5  A    between atoms: C_15  and  C_14 
ROOT
ATOM      1  C   UNL d   1     -45.312  12.731  22.537  0.00  0.00     0.057 A 
ATOM      2  C   UNL d   1     -45.743  12.818  21.836  0.00  0.00     0.005 A 
ATOM      3  C   UNL d   1     -45.561  13.109  23.226  0.00  0.00     0.005 A 
ATOM      4  C   UNL d   1     -46.675  13.661  22.516  0.00  0.00     0.020 A 
ATOM      5  C   UNL d   1     -46.426  13.284  21.828  0.00  0.00     0.002 A 
ATOM      6  C   UNL d   1     -46.248  13.577  23.215  0.00  0.00     0.002 A 
ENDROOT
BRANCH   4   7
ATOM      7  C   UNL d   1     -47.360  14.130  22.513  0.00  0.00     0.112 C 
BRANCH   7   8
ATOM      8  N   UNL d   1     -47.904  14.054  23.130  0.00  0.00    -0.157 NA
BRANCH   8   9
ATOM      9  S   UNL d   1     -48.692  14.314  23.021  0.00  0.00     0.285 S 
ATOM     10  O   UNL d   1     -48.423  14.909  22.506  0.00  0.00    -0.198 OA
ATOM     11  O   UNL d   1     -48.956  13.718  23.537  0.00  0.00    -0.198 OA
BRANCH   9  12
ATOM     12  C   UNL d   1     -49.475  14.572  22.913  0.00  0.00     0.106 A 
ATOM     13  C   UNL d   1     -49.878  14.373  22.220  0.00  0.00     0.024 A 
ATOM     14  C   UNL d   1     -50.656  14.627  22.106  0.00  0.00     0.059 A 
ATOM     15 CL   UNL d   1     -51.064  14.430  21.414  0.00  0.00    -0.082 Cl
ATOM     16  C   UNL d   1     -51.026  15.079  22.687  0.00  0.00     0.011 A 
ATOM     17  C   UNL d   1     -50.622  15.276  23.377  0.00  0.00     0.002 A 
ATOM     18  C   UNL d   1     -49.847  15.021  23.486  0.00  0.00     0.013 A 
ENDBRANCH   9  12
ENDBRANCH   8   9
ENDBRANCH   7   8
ENDBRANCH   4   7
BRANCH   1  19
ATOM     19  C   UNL d   1     -44.617  12.258  22.551  0.00  0.00     0.265 C 
ATOM     20  N   UNL d   1     -44.628  11.524  22.937  0.00  0.00    -0.272 N 
ATOM     21  C   UNL d   1     -45.315  11.258  23.305  0.00  0.00     0.083 A 
ATOM     22  C   UNL d   1     -43.945  11.057  22.951  0.00  0.00     0.083 A 
ATOM     23  C   UNL d   1     -45.320  10.534  23.684  0.00  0.00     0.019 A 
ATOM     24  C   UNL d   1     -44.643  10.073  23.697  0.00  0.00     0.003 A 
ATOM     25  C   UNL d   1     -43.953  10.325  23.335  0.00  0.00     0.019 A 
ATOM     26  O   UNL d   1     -43.921  12.528  22.177  0.00  0.00    -0.267 OA
ENDBRANCH   1  19
TORSDOF 5
ENDMDL
MODEL 3
REMARK VINA RESULT:      -6.1      1.209      1.511
REMARK  5 active torsions:
REMARK  status: ('A' for Active; 'I' for Inactive)
REMARK    1  A    between atoms: C_4  and  S_1 
REMARK    2  A    between atoms: N_5  and  S_1 
REMARK    3  A    between atoms: C_2  and  C_9 
REMARK       I    between atoms: N_3  and  C_2 
REMARK    4  A    between atoms: C_14  and  N_5 
REMARK    5  A    between atoms: C_15  and  C_14 
ROOT
ATOM      1  C   UNL d   1     -49.251  13.317  22.861  0.00  0.00     0.057 A 
ATOM      2  C   UNL d   1     -48.905  13.429  22.117  0.00  0.00     0.005 A 
ATOM      3  C   UNL d   1     -48.828  12.943  23.461  0.00  0.00     0.005 A 
ATOM      4  C   UNL d   1     -47.712  12.791  22.577  0.00  0.00     0.020 A 
ATOM      5  C   UNL d   1     -48.134  13.165  21.977  0.00  0.00     0.002 A 
ATOM      6  C   UNL d   1     -48.053  12.678  23.318  0.00  0.00     0.002 A 
ENDROOT
BRANCH   4   7
ATOM      7  C   UNL d   1     -46.938  12.523  22.441  0.00  0.00     0.112 C 
BRANCH   7   8
ATOM      8  N   UNL d   1     -46.303  12.961  22.737  0.00  0.00    -0.157 NA
BRANCH   8   9
ATOM      9  S   UNL d   1     -45.520  12.737  22.545  0.00  0.00     0.285 S 
ATOM     10  O   UNL d   1     -45.437  13.426  22.086  0.00  0.00    -0.198 OA
ATOM     11  O   UNL d   1     -45.607  12.050  23.004  0.00  0.00    -0.198 OA
BRANCH   9  12
ATOM     12  C   UNL d   1     -44.742  12.515  22.353  0.00  0.00     0.106 A 
ATOM     13  C   UNL d   1     -44.332  12.930  21.767  0.00  0.00     0.024 A 
ATOM     14  C   UNL d   1     -43.559  12.714  21.571  0.00  0.00     0.059 A 
ATOM     15 CL   UNL d   1     -43.144  13.125  20.986  0.00  0.00    -0.082 Cl
ATOM     16  C   UNL d   1     -43.200  12.085  21.963  0.00  0.00     0.011 A 
ATOM     17  C   UNL d   1     -43.611  11.673  22.547  0.00  0.00     0.002 A 
ATOM     18  C   UNL d   1     -44.381  11.891  22.738  0.00  0.00     0.013 A 
ENDBRANCH   9  12
ENDBRANCH   8   9
ENDBRANCH   7   8
ENDBRANCH   4   7
BRANCH   1  19
ATOM     19  C   UNL d   1     -50.034  13.585  23.008  0.00  0.00     0.265 C 
ATOM     20  N   UNL d   1     -50.163  14.371  23.240  0.00  0.00    -0.272 N 
ATOM     21  C   UNL d   1     -49.528  14.888  23.326  0.00  0.00     0.083 A 
ATOM     22  C   UNL d   1     -50.934  14.635  23.385  0.00  0.00     0.083 A 
ATOM     23  C   UNL d   1     -49.661  15.661  23.555  0.00  0.00     0.019 A 
ATOM     24  C   UNL d   1     -50.424  15.921  23.698  0.00  0.00     0.003 A 
ATOM     25  C   UNL d   1     -51.064  15.418  23.616  0.00  0.00     0.019 A 
ATOM     26  O   UNL d   1     -50.678  13.059  22.920  0.00  0.00    -0.267 OA
ENDBRANCH   1  19
TORSDOF 5
ENDMDL
MODEL 4
REMARK VINA RESULT:      -5.6      8.893     10.210
REMARK  5 active torsions:
REMARK  status: ('A' for Active; 'I' for Inactive)
REMARK    1  A    between atoms: C_4  and  S_1 
REMARK    2  A    between atoms: N_5  and  S_1 
REMARK    3  A    between atoms: C_2  and  C_9 
REMARK       I    between atoms: N_3  and  C_2 
REMARK    4  A    between atoms: C_14  and  N_5 
REMARK    5  A    between atoms: C_15  and  C_14 
ROOT
ATOM      1  C   UNL d   1     -39.493  15.139  17.650  0.00  0.00     0.057 A 
ATOM      2  C   UNL d   1     -39.026  15.606  18.149  0.00  0.00     0.005 A 
ATOM      3  C   UNL d   1     -40.005  14.577  17.968  0.00  0.00     0.005 A 
ATOM      4  C   UNL d   1     -39.587  14.947  19.287  0.00  0.00     0.020 A 
ATOM      5  C   UNL d   1     -39.075  15.508  18.969  0.00  0.00     0.002 A 
ATOM      6  C   UNL d   1     -40.052  14.481  18.793  0.00  0.00     0.002 A 
ENDROOT
BRANCH   4   7
ATOM      7  C   UNL d   1     -39.639  14.845  20.109  0.00  0.00     0.112 C 
BRANCH   7   8
ATOM      8  N   UNL d   1     -39.374  14.138  20.445  0.00  0.00    -0.157 NA
BRANCH   8   9
ATOM      9  S   UNL d   1     -39.186  14.112  21.260  0.00  0.00     0.285 S 
ATOM     10  O   UNL d   1     -38.380  14.033  21.070  0.00  0.00    -0.198 OA
ATOM     11  O   UNL d   1     -39.992  14.191  21.445  0.00  0.00    -0.198 OA
BRANCH   9  12
ATOM     12  C   UNL d   1     -38.999  14.086  22.070  0.00  0.00     0.106 A 
ATOM     13  C   UNL d   1     -38.859  14.791  22.479  0.00  0.00     0.024 A 
ATOM     14  C   UNL d   1     -38.672  14.772  23.283  0.00  0.00     0.059 A 
ATOM     15 CL   UNL d   1     -38.531  15.474  23.698  0.00  0.00    -0.082 Cl
ATOM     16  C   UNL d   1     -38.626  14.048  23.674  0.00  0.00     0.011 A 
ATOM     17  C   UNL d   1     -38.766  13.347  23.264  0.00  0.00     0.002 A 
ATOM     18  C   UNL d   1     -38.952  13.371  22.463  0.00  0.00     0.013 A 
ENDBRANCH   9  12
ENDBRANCH   8   9
ENDBRANCH   7   8
ENDBRANCH   4   7
BRANCH   1  19
ATOM     19  C   UNL d   1     -39.447  15.234  16.816  0.00  0.00     0.265 C 
ATOM     20  N   UNL d   1     -38.939  14.749  16.374  0.00  0.00    -0.272 N 
ATOM     21  C   UNL d   1     -38.482  14.176  16.749  0.00  0.00     0.083 A 
ATOM     22  C   UNL d   1     -38.893  14.842  15.553  0.00  0.00     0.083 A 
ATOM     23  C   UNL d   1     -37.984  13.700  16.309  0.00  0.00     0.019 A 
ATOM     24  C   UNL d   1     -37.940  13.793  15.497  0.00  0.00     0.003 A 
ATOM     25  C   UNL d   1     -38.388  14.359  15.112  0.00  0.00     0.019 A 
ATOM     26  O   UNL d   1     -39.911  15.816  16.436  0.00  0.00    -0.267 OA
ENDBRANCH   1  19
TORSDOF 5
ENDMDL
MODEL 5
REMARK VINA RESULT:      -4.4      9.078     10.789
REMARK  5 active torsions:
REMARK  status: ('A' for Active; 'I' for Inactive)
REMARK    1  A    between atoms: C_4  and  S_1 
REMARK    2  A    between atoms: N_5  and  S_1 
REMARK    3  A    between atoms: C_2  and  C_9 
REMARK       I    between atoms: N_3  and  C_2 
REMARK    4  A    between atoms: C_14  and  N_5 
REMARK    5  A    between atoms: C_15  and  C_14 
ROOT
ATOM      1  C   UNL d   1     -39.436  15.079  20.744  0.00  0.00     0.057 A 
ATOM      2  C   UNL d   1     -38.925  15.663  20.455  0.00  0.00     0.005 A 
ATOM      3  C   UNL d   1     -39.822  14.571  20.222  0.00  0.00     0.005 A 
ATOM      4  C   UNL d   1     -39.188  15.228  19.119  0.00  0.00     0.020 A 
ATOM      5  C   UNL d   1     -38.802  15.736  19.641  0.00  0.00     0.002 A 
ATOM      6  C   UNL d   1     -39.696  14.647  19.404  0.00  0.00     0.002 A 
ENDROOT
BRANCH   4   7
ATOM      7  C   UNL d   1     -39.067  15.298  18.301  0.00  0.00     0.112 C 
BRANCH   7   8
ATOM      8  N   UNL d   1     -38.353  15.041  17.975  0.00  0.00    -0.157 NA
BRANCH   8   9
ATOM      9  S   UNL d   1     -38.248  15.051  17.145  0.00  0.00     0.285 S 
ATOM     10  O   UNL d   1     -37.939  14.279  17.176  0.00  0.00    -0.198 OA
ATOM     11  O   UNL d   1     -38.558  15.822  17.119  0.00  0.00    -0.198 OA
BRANCH   9  12
ATOM     12  C   UNL d   1     -38.145  15.060  16.320  0.00  0.00     0.106 A 
ATOM     13  C   UNL d   1     -38.143  14.348  15.901  0.00  0.00     0.024 A 
ATOM     14  C   UNL d   1     -38.040  14.350  15.082  0.00  0.00     0.059 A 
ATOM     15 CL   UNL d   1     -38.038  13.640  14.657  0.00  0.00    -0.082 Cl
ATOM     16  C   UNL d   1     -37.939  15.066  14.686  0.00  0.00     0.011 A 
ATOM     17  C   UNL d   1     -37.941  15.774  15.105  0.00  0.00     0.002 A 
ATOM     18  C   UNL d   1     -38.044  15.767  15.922  0.00  0.00     0.013 A 
ENDBRANCH   9  12
ENDBRANCH   8   9
ENDBRANCH   7   8
ENDBRANCH   4   7
BRANCH   1  19
ATOM     19  C   UNL d   1     -39.564  15.001  21.571  0.00  0.00     0.265 C 
ATOM     20  N   UNL d   1     -39.149  14.423  21.998  0.00  0.00    -0.272 N 
ATOM     21  C   UNL d   1     -38.614  13.928  21.616  0.00  0.00     0.083 A 
ATOM     22  C   UNL d   1     -39.274  14.345  22.813  0.00  0.00     0.083 A 
ATOM     23  C   UNL d   1     -38.207  13.361  22.041  0.00  0.00     0.019 A 
ATOM     24  C   UNL d   1     -38.333  13.285  22.847  0.00  0.00     0.003 A 
ATOM     25  C   UNL d   1     -38.862  13.770  23.240  0.00  0.00     0.019 A 
ATOM     26  O   UNL d   1     -40.107  15.503  21.959  0.00  0.00    -0.267 OA
ENDBRANCH   1  19
TORSDOF 5
ENDMDL
