MODEL 1
REMARK VINA RESULT:      74.8      0.000      0.000
REMARK  3 active torsions:
REMARK  status: ('A' for Active; 'I' for Inactive)
REMARK    1  A    between atoms: N_6  and  C_1 
REMARK    2  A    between atoms: C_14  and  N_4 
REMARK    3  A    between atoms: C_9  and  N_6 
ROOT
ATOM      1  C   UNL d   1      59.420  49.608  50.454  0.00  0.00     0.157 A 
ATOM      2  C   UNL d   1      59.543  49.609  51.268  0.00  0.00     0.298 A 
ATOM      3  N   UNL d   1      60.727  49.508  50.653  0.00  0.00    -0.238 N 
ATOM      4  N   UNL d   1      60.362  49.547  51.391  0.00  0.00    -0.209 N 
ATOM      5  C   UNL d   1      60.138  49.547  50.066  0.00  0.00     0.104 A 
ATOM      6  O   UNL d   1      58.970  49.662  51.859  0.00  0.00    -0.263 OA
ATOM      7  C   UNL d   1      61.543  49.442  50.523  0.00  0.00     0.120 C 
ATOM      8  C   UNL d   1      60.258  49.527  49.256  0.00  0.00     0.022 C 
ENDROOT
BRANCH   1   9
ATOM      9  N   UNL d   1      58.675  49.662  50.083  0.00  0.00    -0.239 NA
BRANCH   9  10
ATOM     10  C   UNL d   1      58.022  49.267  50.405  0.00  0.00     0.082 A 
ATOM     11  C   UNL d   1      57.946  48.443  50.312  0.00  0.00     0.022 A 
ATOM     12  C   UNL d   1      57.302  48.057  50.630  0.00  0.00     0.041 A 
ATOM     13  C   UNL d   1      57.224  47.236  50.538  0.00  0.00     0.003 C 
ATOM     14  C   UNL d   1      56.717  48.477  51.048  0.00  0.00     0.196 A 
ATOM     15  C   UNL d   1      56.796  49.294  51.138  0.00  0.00     0.041 A 
ATOM     16  O   UNL d   1      56.064  48.082  51.370  0.00  0.00    -0.287 OA
ATOM     17  C   UNL d   1      57.447  49.684  50.817  0.00  0.00     0.022 A 
ATOM     18  C   UNL d   1      56.216  49.703  51.551  0.00  0.00     0.003 C 
ENDBRANCH   9  10
ENDBRANCH   1   9
BRANCH   4  19
ATOM     19  C   UNL d   1      60.742  49.526  52.123  0.00  0.00     0.085 A 
ATOM     20  C   UNL d   1      61.547  49.381  52.167  0.00  0.00     0.019 A 
ATOM     21  C   UNL d   1      61.932  49.360  52.901  0.00  0.00     0.002 A 
ATOM     22  C   UNL d   1      61.499  49.487  53.593  0.00  0.00     0.000 A 
ATOM     23  C   UNL d   1      60.692  49.633  53.551  0.00  0.00     0.002 A 
ATOM     24  C   UNL d   1      60.304  49.654  52.814  0.00  0.00     0.019 A 
ENDBRANCH   4  19
TORSDOF 3
ENDMDL
MODEL 2
REMARK VINA RESULT:      77.4      1.960      2.663
REMARK  3 active torsions:
REMARK  status: ('A' for Active; 'I' for Inactive)
REMARK    1  A    between atoms: N_6  and  C_1 
REMARK    2  A    between atoms: C_14  and  N_4 
REMARK    3  A    between atoms: C_9  and  N_6 
ROOT
ATOM      1  C   UNL d   1      60.168  49.071  50.473  0.00  0.00     0.157 A 
ATOM      2  C   UNL d   1      60.329  48.374  50.067  0.00  0.00     0.298 A 
ATOM      3  N   UNL d   1      60.899  48.310  51.275  0.00  0.00    -0.238 N 
ATOM      4  N   UNL d   1      60.787  47.898  50.571  0.00  0.00    -0.209 N 
ATOM      5  C   UNL d   1      60.512  49.044  51.216  0.00  0.00     0.104 A 
ATOM      6  O   UNL d   1      60.087  48.175  49.304  0.00  0.00    -0.263 OA
ATOM      7  C   UNL d   1      61.325  48.035  51.931  0.00  0.00     0.120 C 
ATOM      8  C   UNL d   1      60.482  49.626  51.792  0.00  0.00     0.022 C 
ENDROOT
BRANCH   1   9
ATOM      9  N   UNL d   1      59.721  49.708  50.172  0.00  0.00    -0.239 NA
BRANCH   9  10
ATOM     10  C   UNL d   1      58.896  49.706  50.244  0.00  0.00     0.082 A 
ATOM     11  C   UNL d   1      58.418  49.704  49.562  0.00  0.00     0.022 A 
ATOM     12  C   UNL d   1      57.606  49.702  49.636  0.00  0.00     0.041 A 
ATOM     13  C   UNL d   1      57.128  49.700  48.958  0.00  0.00     0.003 C 
ATOM     14  C   UNL d   1      57.246  49.702  50.387  0.00  0.00     0.196 A 
ATOM     15  C   UNL d   1      57.724  49.704  51.061  0.00  0.00     0.041 A 
ATOM     16  O   UNL d   1      56.421  49.700  50.459  0.00  0.00    -0.287 OA
ATOM     17  C   UNL d   1      58.544  49.706  50.986  0.00  0.00     0.022 A 
ATOM     18  C   UNL d   1      57.364  49.705  51.799  0.00  0.00     0.003 C 
ENDBRANCH   9  10
ENDBRANCH   1   9
BRANCH   4  19
ATOM     19  C   UNL d   1      61.078  47.146  50.395  0.00  0.00     0.085 A 
ATOM     20  C   UNL d   1      60.678  46.479  50.650  0.00  0.00     0.019 A 
ATOM     21  C   UNL d   1      60.967  45.722  50.476  0.00  0.00     0.002 A 
ATOM     22  C   UNL d   1      61.663  45.641  50.040  0.00  0.00     0.000 A 
ATOM     23  C   UNL d   1      62.066  46.309  49.783  0.00  0.00     0.002 A 
ATOM     24  C   UNL d   1      61.777  47.070  49.957  0.00  0.00     0.019 A 
ENDBRANCH   4  19
TORSDOF 3
ENDMDL
