MODEL 1
REMARK VINA RESULT:      -2.4      0.000      0.000
REMARK  4 active torsions:
REMARK  status: ('A' for Active; 'I' for Inactive)
REMARK    1  A    between atoms: N_8  and  C_7 
REMARK    2  A    between atoms: C_9  and  N_8 
REMARK    3  A    between atoms: O_15  and  C_10 
REMARK    4  A    between atoms: C_16  and  O_15 
ROOT
ATOM      1  C   UNL d   1      33.143  20.061 -22.594  0.00  0.00     0.082 A 
ATOM      2  C   UNL d   1      32.948  18.484 -23.016  0.00  0.00     0.100 A 
ATOM      3  C   UNL d   1      32.948  19.865 -23.369  0.00  0.00     0.021 A 
ATOM      4  C   UNL d   1      33.241  19.474 -22.028  0.00  0.00     0.021 A 
ATOM      5  C   UNL d   1      32.850  19.074 -23.582  0.00  0.00     0.026 A 
ATOM      6  C   UNL d   1      33.143  18.679 -22.239  0.00  0.00     0.026 A 
ENDROOT
BRANCH   1   7
ATOM      7  N   UNL d   1      33.241  20.856 -22.383  0.00  0.00    -0.245 NA
BRANCH   7   8
ATOM      8  C   UNL d   1      32.773  21.285 -21.843  0.00  0.00     0.093 A 
ATOM      9  C   UNL d   1      32.199  21.213 -21.248  0.00  0.00     0.118 A 
ATOM     10  S   UNL d   1      32.024  21.962 -20.981  0.00  0.00     0.213 S 
ATOM     11  C   UNL d   1      32.482  22.506 -21.401  0.00  0.00     0.100 A 
ATOM     12  O   UNL d   1      31.846  22.731 -20.707  0.00  0.00    -0.217 OA
ATOM     13  O   UNL d   1      31.544  21.465 -20.531  0.00  0.00    -0.217 OA
ATOM     14  C   UNL d   1      32.945  22.085 -21.935  0.00  0.00     0.032 A 
ENDBRANCH   7   8
ENDBRANCH   1   7
BRANCH   2  15
ATOM     15  O   UNL d   1      32.850  17.688 -23.227  0.00  0.00    -0.305 OA
BRANCH  15  16
ATOM     16  C   UNL d   1      32.176  17.455 -23.640  0.00  0.00     0.123 C 
ATOM     17  C   UNL d   1      32.069  16.655 -23.835  0.00  0.00     0.029 C 
ENDBRANCH  15  16
ENDBRANCH   2  15
TORSDOF 4
ENDMDL
MODEL 2
REMARK VINA RESULT:      -2.1      1.507      4.193
REMARK  4 active torsions:
REMARK  status: ('A' for Active; 'I' for Inactive)
REMARK    1  A    between atoms: N_8  and  C_7 
REMARK    2  A    between atoms: C_9  and  N_8 
REMARK    3  A    between atoms: O_15  and  C_10 
REMARK    4  A    between atoms: C_16  and  O_15 
ROOT
ATOM      1  C   UNL d   1      33.067  19.873 -22.047  0.00  0.00     0.082 A 
ATOM      2  C   UNL d   1      32.737  21.455 -21.743  0.00  0.00     0.100 A 
ATOM      3  C   UNL d   1      33.241  20.444 -22.614  0.00  0.00     0.021 A 
ATOM      4  C   UNL d   1      32.729  20.087 -21.330  0.00  0.00     0.021 A 
ATOM      5  C   UNL d   1      33.076  21.239 -22.462  0.00  0.00     0.026 A 
ATOM      6  C   UNL d   1      32.562  20.883 -21.175  0.00  0.00     0.026 A 
ENDROOT
BRANCH   1   7
ATOM      7  N   UNL d   1      33.233  19.076 -22.202  0.00  0.00    -0.245 NA
BRANCH   7   8
ATOM      8  C   UNL d   1      32.887  18.607 -22.798  0.00  0.00     0.093 A 
ATOM      9  C   UNL d   1      32.394  18.624 -23.464  0.00  0.00     0.118 A 
ATOM     10  S   UNL d   1      32.333  17.864 -23.748  0.00  0.00     0.213 S 
ATOM     11  C   UNL d   1      32.783  17.366 -23.267  0.00  0.00     0.100 A 
ATOM     12  O   UNL d   1      32.272  17.083 -24.038  0.00  0.00    -0.217 OA
ATOM     13  O   UNL d   1      31.869  18.313 -24.260  0.00  0.00    -0.217 OA
ATOM     14  C   UNL d   1      33.126  17.828 -22.679  0.00  0.00     0.032 A 
ENDBRANCH   7   8
ENDBRANCH   1   7
BRANCH   2  15
ATOM     15  O   UNL d   1      32.571  22.252 -21.588  0.00  0.00    -0.305 OA
BRANCH  15  16
ATOM     16  C   UNL d   1      32.247  22.468 -20.862  0.00  0.00     0.123 C 
ATOM     17  C   UNL d   1      32.164  23.272 -20.671  0.00  0.00     0.029 C 
ENDBRANCH  15  16
ENDBRANCH   2  15
TORSDOF 4
ENDMDL
MODEL 3
REMARK VINA RESULT:      -2.0      1.474      2.130
REMARK  4 active torsions:
REMARK  status: ('A' for Active; 'I' for Inactive)
REMARK    1  A    between atoms: N_8  and  C_7 
REMARK    2  A    between atoms: C_9  and  N_8 
REMARK    3  A    between atoms: O_15  and  C_10 
REMARK    4  A    between atoms: C_16  and  O_15 
ROOT
ATOM      1  C   UNL d   1      32.782  18.385 -23.746  0.00  0.00     0.082 A 
ATOM      2  C   UNL d   1      31.943  16.990 -23.980  0.00  0.00     0.100 A 
ATOM      3  C   UNL d   1      32.154  18.369 -24.277  0.00  0.00     0.021 A 
ATOM      4  C   UNL d   1      32.995  17.709 -23.331  0.00  0.00     0.021 A 
ATOM      5  C   UNL d   1      31.732  17.670 -24.395  0.00  0.00     0.026 A 
ATOM      6  C   UNL d   1      32.573  17.005 -23.448  0.00  0.00     0.026 A 
ENDROOT
BRANCH   1   7
ATOM      7  N   UNL d   1      33.204  19.089 -23.628  0.00  0.00    -0.245 NA
BRANCH   7   8
ATOM      8  C   UNL d   1      33.212  19.549 -22.934  0.00  0.00     0.093 A 
ATOM      9  C   UNL d   1      33.209  19.514 -22.105  0.00  0.00     0.118 A 
ATOM     10  S   UNL d   1      33.225  20.278 -21.825  0.00  0.00     0.213 S 
ATOM     11  C   UNL d   1      33.237  20.795 -22.468  0.00  0.00     0.100 A 
ATOM     12  O   UNL d   1      33.240  21.062 -21.538  0.00  0.00    -0.217 OA
ATOM     13  O   UNL d   1      33.213  19.808 -21.146  0.00  0.00    -0.217 OA
ATOM     14  C   UNL d   1      33.229  20.342 -23.154  0.00  0.00     0.032 A 
ENDBRANCH   7   8
ENDBRANCH   1   7
BRANCH   2  15
ATOM     15  O   UNL d   1      31.521  16.287 -24.097  0.00  0.00    -0.305 OA
BRANCH  15  16
ATOM     16  C   UNL d   1      30.746  16.226 -23.826  0.00  0.00     0.123 C 
ATOM     17  C   UNL d   1      30.364  15.488 -23.834  0.00  0.00     0.029 C 
ENDBRANCH  15  16
ENDBRANCH   2  15
TORSDOF 4
ENDMDL
MODEL 4
REMARK VINA RESULT:      -1.4      3.880      5.294
REMARK  4 active torsions:
REMARK  status: ('A' for Active; 'I' for Inactive)
REMARK    1  A    between atoms: N_8  and  C_7 
REMARK    2  A    between atoms: C_9  and  N_8 
REMARK    3  A    between atoms: O_15  and  C_10 
REMARK    4  A    between atoms: C_16  and  O_15 
ROOT
ATOM      1  C   UNL d   1      30.557  15.707 -23.905  0.00  0.00     0.082 A 
ATOM      2  C   UNL d   1      28.926  15.542 -23.768  0.00  0.00     0.100 A 
ATOM      3  C   UNL d   1      30.222  15.535 -23.173  0.00  0.00     0.021 A 
ATOM      4  C   UNL d   1      30.083  15.796 -24.569  0.00  0.00     0.021 A 
ATOM      5  C   UNL d   1      29.403  15.453 -23.102  0.00  0.00     0.026 A 
ATOM      6  C   UNL d   1      29.261  15.714 -24.502  0.00  0.00     0.026 A 
ENDROOT
BRANCH   1   7
ATOM      7  N   UNL d   1      31.379  15.789 -23.972  0.00  0.00    -0.245 NA
BRANCH   7   8
ATOM      8  C   UNL d   1      31.813  16.494 -23.878  0.00  0.00     0.093 A 
ATOM      9  C   UNL d   1      31.796  17.314 -24.003  0.00  0.00     0.118 A 
ATOM     10  S   UNL d   1      32.500  17.620 -23.730  0.00  0.00     0.213 S 
ATOM     11  C   UNL d   1      32.960  17.002 -23.434  0.00  0.00     0.100 A 
ATOM     12  O   UNL d   1      33.222  17.934 -23.450  0.00  0.00    -0.217 OA
ATOM     13  O   UNL d   1      32.084  18.275 -24.011  0.00  0.00    -0.217 OA
ATOM     14  C   UNL d   1      32.533  16.305 -23.526  0.00  0.00     0.032 A 
ENDBRANCH   7   8
ENDBRANCH   1   7
BRANCH   2  15
ATOM     15  O   UNL d   1      28.104  15.459 -23.700  0.00  0.00    -0.305 OA
BRANCH  15  16
ATOM     16  C   UNL d   1      27.657  16.073 -23.379  0.00  0.00     0.123 C 
ATOM     17  C   UNL d   1      26.831  16.002 -23.339  0.00  0.00     0.029 C 
ENDBRANCH  15  16
ENDBRANCH   2  15
TORSDOF 4
ENDMDL
MODEL 5
REMARK VINA RESULT:       0.3      2.353      3.451
REMARK  4 active torsions:
REMARK  status: ('A' for Active; 'I' for Inactive)
REMARK    1  A    between atoms: N_8  and  C_7 
REMARK    2  A    between atoms: C_9  and  N_8 
REMARK    3  A    between atoms: O_15  and  C_10 
REMARK    4  A    between atoms: C_16  and  O_15 
ROOT
ATOM      1  C   UNL d   1      33.145  22.617 -20.380  0.00  0.00     0.082 A 
ATOM      2  C   UNL d   1      32.989  21.478 -21.556  0.00  0.00     0.100 A 
ATOM      3  C   UNL d   1      33.223  21.819 -20.192  0.00  0.00     0.021 A 
ATOM      4  C   UNL d   1      32.988  22.849 -21.152  0.00  0.00     0.021 A 
ATOM      5  C   UNL d   1      33.145  21.246 -20.782  0.00  0.00     0.026 A 
ATOM      6  C   UNL d   1      32.909  22.277 -21.746  0.00  0.00     0.026 A 
ENDROOT
BRANCH   1   7
ATOM      7  N   UNL d   1      33.223  23.189 -19.786  0.00  0.00    -0.245 NA
BRANCH   7   8
ATOM      8  C   UNL d   1      32.810  23.209 -19.063  0.00  0.00     0.093 A 
ATOM      9  C   UNL d   1      32.134  22.935 -18.669  0.00  0.00     0.118 A 
ATOM     10  S   UNL d   1      32.147  23.239 -17.913  0.00  0.00     0.213 S 
ATOM     11  C   UNL d   1      32.825  23.702 -17.827  0.00  0.00     0.100 A 
ATOM     12  O   UNL d   1      32.162  23.551 -17.139  0.00  0.00    -0.217 OA
ATOM     13  O   UNL d   1      31.456  22.790 -17.944  0.00  0.00    -0.217 OA
ATOM     14  C   UNL d   1      33.235  23.683 -18.540  0.00  0.00     0.032 A 
ENDBRANCH   7   8
ENDBRANCH   1   7
BRANCH   2  15
ATOM     15  O   UNL d   1      32.910  20.905 -22.150  0.00  0.00    -0.305 OA
BRANCH  15  16
ATOM     16  C   UNL d   1      32.856  20.109 -21.945  0.00  0.00     0.123 C 
ATOM     17  C   UNL d   1      33.128  19.529 -22.474  0.00  0.00     0.029 C 
ENDBRANCH  15  16
ENDBRANCH   2  15
TORSDOF 4
ENDMDL
