MODEL 1
REMARK VINA RESULT:      23.1      0.000      0.000
REMARK  4 active torsions:
REMARK  status: ('A' for Active; 'I' for Inactive)
REMARK       I    between atoms: N_3  and  C_1 
REMARK    1  A    between atoms: C_4  and  C_1 
REMARK    2  A    between atoms: N_2  and  C_4 
REMARK    3  A    between atoms: C_6  and  N_3 
REMARK    4  A    between atoms: O_17  and  C_9 
ROOT
ATOM      1  C   UNL d   1      14.367  12.481  -1.309  0.00  0.00     0.297 C 
ATOM      2  N   UNL d   1      13.740  12.852  -1.701  0.00  0.00    -0.207 NA
ATOM      3  O   UNL d   1      14.794  11.888  -1.689  0.00  0.00    -0.264 OA
ENDROOT
BRANCH   1   4
ATOM      4  C   UNL d   1      14.565  12.703  -0.543  0.00  0.00     0.144 C 
BRANCH   4   5
ATOM      5  N   UNL d   1      14.995  13.406  -0.410  0.00  0.00    -0.299 N 
ATOM      6  C   UNL d   1      15.823  13.420  -0.530  0.00  0.00     0.080 A 
ATOM      7  C   UNL d   1      16.256  14.113  -0.400  0.00  0.00     0.019 A 
ATOM      8  C   UNL d   1      15.864  14.807  -0.145  0.00  0.00     0.003 A 
ATOM      9  C   UNL d   1      15.032  14.800  -0.021  0.00  0.00     0.019 A 
ATOM     10  C   UNL d   1      16.292  15.498  -0.014  0.00  0.00     0.000 C 
ATOM     11  C   UNL d   1      14.597  14.091  -0.156  0.00  0.00     0.080 A 
ENDBRANCH   4   5
ENDBRANCH   1   4
BRANCH   2  12
ATOM     12  C   UNL d   1      13.543  12.630  -2.467  0.00  0.00     0.085 A 
ATOM     13  C   UNL d   1      13.035  12.006  -2.586  0.00  0.00     0.021 A 
ATOM     14  C   UNL d   1      12.834  11.779  -3.357  0.00  0.00     0.026 A 
ATOM     15  C   UNL d   1      13.150  12.187  -3.998  0.00  0.00     0.094 A 
ATOM     16  C   UNL d   1      13.662  12.816  -3.873  0.00  0.00     0.026 A 
ATOM     17  C   UNL d   1      13.863  13.042  -3.103  0.00  0.00     0.021 A 
BRANCH  15  18
ATOM     18  O   UNL d   1      12.955  11.967  -4.767  0.00  0.00    -0.328 OA
ATOM     19  C   UNL d   1      13.432  12.195  -5.397  0.00  0.00     0.181 C 
ENDBRANCH  15  18
ENDBRANCH   2  12
TORSDOF 4
ENDMDL
MODEL 2
REMARK VINA RESULT:      23.8      1.218      4.502
REMARK  4 active torsions:
REMARK  status: ('A' for Active; 'I' for Inactive)
REMARK       I    between atoms: N_3  and  C_1 
REMARK    1  A    between atoms: C_4  and  C_1 
REMARK    2  A    between atoms: N_2  and  C_4 
REMARK    3  A    between atoms: C_6  and  N_3 
REMARK    4  A    between atoms: O_17  and  C_9 
ROOT
ATOM      1  C   UNL d   1      13.628  12.344  -2.515  0.00  0.00     0.297 C 
ATOM      2  N   UNL d   1      14.260  12.101  -2.039  0.00  0.00    -0.207 NA
ATOM      3  O   UNL d   1      13.366  13.124  -2.480  0.00  0.00    -0.264 OA
ENDROOT
BRANCH   1   4
ATOM      4  C   UNL d   1      13.264  11.811  -3.022  0.00  0.00     0.144 C 
BRANCH   4   5
ATOM      5  N   UNL d   1      13.405  11.852  -3.844  0.00  0.00    -0.299 N 
ATOM      6  C   UNL d   1      12.770  11.787  -4.383  0.00  0.00     0.080 A 
ATOM      7  C   UNL d   1      12.903  11.826  -5.199  0.00  0.00     0.019 A 
ATOM      8  C   UNL d   1      13.681  11.932  -5.489  0.00  0.00     0.003 A 
ATOM      9  C   UNL d   1      14.325  11.998  -4.953  0.00  0.00     0.019 A 
ATOM     10  C   UNL d   1      13.817  11.972  -6.300  0.00  0.00     0.000 C 
ATOM     11  C   UNL d   1      14.182  11.957  -4.123  0.00  0.00     0.080 A 
ENDBRANCH   4   5
ENDBRANCH   1   4
BRANCH   2  12
ATOM     12  C   UNL d   1      14.624  12.634  -1.532  0.00  0.00     0.085 A 
ATOM     13  C   UNL d   1      14.705  12.449  -0.744  0.00  0.00     0.021 A 
ATOM     14  C   UNL d   1      15.072  12.985  -0.230  0.00  0.00     0.026 A 
ATOM     15  C   UNL d   1      15.353  13.702  -0.520  0.00  0.00     0.094 A 
ATOM     16  C   UNL d   1      15.269  13.885  -1.316  0.00  0.00     0.026 A 
ATOM     17  C   UNL d   1      14.902  13.350  -1.829  0.00  0.00     0.021 A 
BRANCH  15  18
ATOM     18  O   UNL d   1      15.719  14.239  -0.015  0.00  0.00    -0.328 OA
ATOM     19  C   UNL d   1      15.521  15.037  -0.044  0.00  0.00     0.181 C 
ENDBRANCH  15  18
ENDBRANCH   2  12
TORSDOF 4
ENDMDL
MODEL 3
REMARK VINA RESULT:      24.3      8.392      9.668
REMARK  4 active torsions:
REMARK  status: ('A' for Active; 'I' for Inactive)
REMARK       I    between atoms: N_3  and  C_1 
REMARK    1  A    between atoms: C_4  and  C_1 
REMARK    2  A    between atoms: N_2  and  C_4 
REMARK    3  A    between atoms: C_6  and  N_3 
REMARK    4  A    between atoms: O_17  and  C_9 
ROOT
ATOM      1  C   UNL d   1      24.342  12.440  -1.721  0.00  0.00     0.297 C 
ATOM      2  N   UNL d   1      24.085  12.993  -2.279  0.00  0.00    -0.207 NA
ATOM      3  O   UNL d   1      24.768  11.779  -1.965  0.00  0.00    -0.264 OA
ENDROOT
BRANCH   1   4
ATOM      4  C   UNL d   1      24.174  12.548  -0.924  0.00  0.00     0.144 C 
BRANCH   4   5
ATOM      5  N   UNL d   1      23.501  12.987  -0.695  0.00  0.00    -0.299 N 
ATOM      6  C   UNL d   1      22.735  12.679  -0.824  0.00  0.00     0.080 A 
ATOM      7  C   UNL d   1      22.064  13.108  -0.600  0.00  0.00     0.019 A 
ATOM      8  C   UNL d   1      22.152  13.859  -0.240  0.00  0.00     0.003 A 
ATOM      9  C   UNL d   1      22.919  14.176  -0.108  0.00  0.00     0.019 A 
ATOM     10  C   UNL d   1      21.487  14.289  -0.016  0.00  0.00     0.000 C 
ATOM     11  C   UNL d   1      23.598  13.733  -0.339  0.00  0.00     0.080 A 
ENDBRANCH   4   5
ENDBRANCH   1   4
BRANCH   2  12
ATOM     12  C   UNL d   1      24.253  12.884  -3.076  0.00  0.00     0.085 A 
ATOM     13  C   UNL d   1      24.077  12.174  -3.431  0.00  0.00     0.021 A 
ATOM     14  C   UNL d   1      24.245  12.061  -4.234  0.00  0.00     0.026 A 
ATOM     15  C   UNL d   1      24.590  12.669  -4.668  0.00  0.00     0.094 A 
ATOM     16  C   UNL d   1      24.767  13.384  -4.306  0.00  0.00     0.026 A 
ATOM     17  C   UNL d   1      24.599  13.497  -3.504  0.00  0.00     0.021 A 
BRANCH  15  18
ATOM     18  O   UNL d   1      24.760  12.564  -5.466  0.00  0.00    -0.328 OA
ATOM     19  C   UNL d   1      24.691  13.193  -5.992  0.00  0.00     0.181 C 
ENDBRANCH  15  18
ENDBRANCH   2  12
TORSDOF 4
ENDMDL
