MODEL 1
REMARK VINA RESULT:      -4.1      0.000      0.000
REMARK  1 active torsions:
REMARK  status: ('A' for Active; 'I' for Inactive)
REMARK    1  A    between atoms: C_8  and  C_2 
ROOT
ATOM      1  N   UNL d   1      57.170   0.340  34.109  0.00  0.00    -0.191 NA
ATOM      2  C   UNL d   1      56.548   0.233  33.604  0.00  0.00     0.087 A 
ATOM      3  C   UNL d   1      57.018   0.566  34.901  0.00  0.00     0.369 A 
ATOM      4  N   UNL d   1      56.247   0.682  35.171  0.00  0.00    -0.191 NA
ATOM      5  C   UNL d   1      55.773   0.340  33.841  0.00  0.00     0.036 A 
ATOM      6  C   UNL d   1      55.621   0.566  34.633  0.00  0.00     0.088 A 
ATOM      7  O   UNL d   1      57.640   0.682  35.439  0.00  0.00    -0.242 OA
ATOM      8  C   UNL d   1      55.152   0.233  33.336  0.00  0.00     0.003 A 
ATOM      9  C   UNL d   1      54.851   0.682  34.903  0.00  0.00     0.019 A 
ATOM     10  C   UNL d   1      54.387   0.340  33.575  0.00  0.00     0.000 A 
ATOM     11  C   UNL d   1      54.235   0.566  34.366  0.00  0.00     0.002 A 
ENDROOT
BRANCH   2  12
ATOM     12  C   UNL d   1      56.700   0.006  32.812  0.00  0.00     0.018 A 
ATOM     13  C   UNL d   1      56.943   0.566  32.281  0.00  0.00     0.002 A 
ATOM     14  C   UNL d   1      57.097   0.337  31.480  0.00  0.00     0.000 A 
ATOM     15  C   UNL d   1      56.997  -0.436  31.265  0.00  0.00     0.000 A 
ATOM     16  C   UNL d   1      56.752  -1.006  31.797  0.00  0.00     0.000 A 
ATOM     17  C   UNL d   1      56.598  -0.776  32.599  0.00  0.00     0.002 A 
ENDBRANCH   2  12
TORSDOF 1
ENDMDL
MODEL 2
REMARK VINA RESULT:      -3.6      2.862      4.596
REMARK  1 active torsions:
REMARK  status: ('A' for Active; 'I' for Inactive)
REMARK    1  A    between atoms: C_8  and  C_2 
ROOT
ATOM      1  N   UNL d   1      57.585   0.154  29.897  0.00  0.00    -0.191 NA
ATOM      2  C   UNL d   1      57.868   0.184  30.654  0.00  0.00     0.087 A 
ATOM      3  C   UNL d   1      58.109   0.294  29.260  0.00  0.00     0.369 A 
ATOM      4  N   UNL d   1      58.906   0.463  29.391  0.00  0.00    -0.191 NA
ATOM      5  C   UNL d   1      58.652   0.348  30.817  0.00  0.00     0.036 A 
ATOM      6  C   UNL d   1      59.176   0.489  30.179  0.00  0.00     0.088 A 
ATOM      7  O   UNL d   1      57.842   0.269  28.474  0.00  0.00    -0.242 OA
ATOM      8  C   UNL d   1      58.935   0.378  31.574  0.00  0.00     0.003 A 
ATOM      9  C   UNL d   1      59.973   0.657  30.311  0.00  0.00     0.019 A 
ATOM     10  C   UNL d   1      59.712   0.541  31.730  0.00  0.00     0.000 A 
ATOM     11  C   UNL d   1      60.236   0.681  31.093  0.00  0.00     0.002 A 
ENDROOT
BRANCH   2  12
ATOM     12  C   UNL d   1      57.344   0.043  31.292  0.00  0.00     0.018 A 
ATOM     13  C   UNL d   1      57.150  -0.719  31.482  0.00  0.00     0.002 A 
ATOM     14  C   UNL d   1      56.620  -0.861  32.128  0.00  0.00     0.000 A 
ATOM     15  C   UNL d   1      56.320  -0.232  32.538  0.00  0.00     0.000 A 
ATOM     16  C   UNL d   1      56.513   0.539  32.350  0.00  0.00     0.000 A 
ATOM     17  C   UNL d   1      57.044   0.682  31.704  0.00  0.00     0.002 A 
ENDBRANCH   2  12
TORSDOF 1
ENDMDL
MODEL 3
REMARK VINA RESULT:      -3.6      1.278      1.963
REMARK  1 active torsions:
REMARK  status: ('A' for Active; 'I' for Inactive)
REMARK    1  A    between atoms: C_8  and  C_2 
ROOT
ATOM      1  N   UNL d   1      55.438   0.022  32.820  0.00  0.00    -0.191 NA
ATOM      2  C   UNL d   1      56.241   0.119  32.818  0.00  0.00     0.087 A 
ATOM      3  C   UNL d   1      55.018   0.116  33.538  0.00  0.00     0.369 A 
ATOM      4  N   UNL d   1      55.409   0.304  34.240  0.00  0.00    -0.191 NA
ATOM      5  C   UNL d   1      56.657   0.306  33.496  0.00  0.00     0.036 A 
ATOM      6  C   UNL d   1      56.237   0.400  34.214  0.00  0.00     0.088 A 
ATOM      7  O   UNL d   1      54.194   0.021  33.566  0.00  0.00    -0.242 OA
ATOM      8  C   UNL d   1      57.459   0.402  33.494  0.00  0.00     0.003 A 
ATOM      9  C   UNL d   1      56.627   0.588  34.916  0.00  0.00     0.019 A 
ATOM     10  C   UNL d   1      57.867   0.588  34.168  0.00  0.00     0.000 A 
ATOM     11  C   UNL d   1      57.446   0.681  34.886  0.00  0.00     0.002 A 
ENDROOT
BRANCH   2  12
ATOM     12  C   UNL d   1      56.662   0.025  32.100  0.00  0.00     0.018 A 
ATOM     13  C   UNL d   1      56.900   0.682  31.694  0.00  0.00     0.002 A 
ATOM     14  C   UNL d   1      57.326   0.587  30.966  0.00  0.00     0.000 A 
ATOM     15  C   UNL d   1      57.483  -0.159  30.697  0.00  0.00     0.000 A 
ATOM     16  C   UNL d   1      57.244  -0.826  31.103  0.00  0.00     0.000 A 
ATOM     17  C   UNL d   1      56.818  -0.731  31.831  0.00  0.00     0.002 A 
ENDBRANCH   2  12
TORSDOF 1
ENDMDL
MODEL 4
REMARK VINA RESULT:      -3.4      2.263      3.717
REMARK  1 active torsions:
REMARK  status: ('A' for Active; 'I' for Inactive)
REMARK    1  A    between atoms: C_8  and  C_2 
ROOT
ATOM      1  N   UNL d   1      56.999   0.209  30.829  0.00  0.00    -0.191 NA
ATOM      2  C   UNL d   1      57.184   0.215  31.616  0.00  0.00     0.087 A 
ATOM      3  C   UNL d   1      57.600   0.363  30.267  0.00  0.00     0.369 A 
ATOM      4  N   UNL d   1      58.375   0.521  30.504  0.00  0.00    -0.191 NA
ATOM      5  C   UNL d   1      57.941   0.369  31.882  0.00  0.00     0.036 A 
ATOM      6  C   UNL d   1      58.542   0.523  31.321  0.00  0.00     0.088 A 
ATOM      7  O   UNL d   1      57.435   0.362  29.454  0.00  0.00    -0.242 OA
ATOM      8  C   UNL d   1      58.126   0.375  32.669  0.00  0.00     0.003 A 
ATOM      9  C   UNL d   1      59.317   0.681  31.557  0.00  0.00     0.019 A 
ATOM     10  C   UNL d   1      58.877   0.528  32.928  0.00  0.00     0.000 A 
ATOM     11  C   UNL d   1      59.478   0.682  32.366  0.00  0.00     0.002 A 
ENDROOT
BRANCH   2  12
ATOM     12  C   UNL d   1      56.582   0.061  32.178  0.00  0.00     0.018 A 
ATOM     13  C   UNL d   1      56.185   0.681  32.512  0.00  0.00     0.002 A 
ATOM     14  C   UNL d   1      55.576   0.525  33.080  0.00  0.00     0.000 A 
ATOM     15  C   UNL d   1      55.406  -0.241  33.275  0.00  0.00     0.000 A 
ATOM     16  C   UNL d   1      55.804  -0.872  32.941  0.00  0.00     0.000 A 
ATOM     17  C   UNL d   1      56.414  -0.715  32.372  0.00  0.00     0.002 A 
ENDBRANCH   2  12
TORSDOF 1
ENDMDL
MODEL 5
REMARK VINA RESULT:      -2.7      4.175      6.076
REMARK  1 active torsions:
REMARK  status: ('A' for Active; 'I' for Inactive)
REMARK    1  A    between atoms: C_8  and  C_2 
ROOT
ATOM      1  N   UNL d   1      58.432  -1.953  29.328  0.00  0.00    -0.191 NA
ATOM      2  C   UNL d   1      58.803  -1.237  29.394  0.00  0.00     0.087 A 
ATOM      3  C   UNL d   1      58.851  -2.602  29.007  0.00  0.00     0.369 A 
ATOM      4  N   UNL d   1      59.634  -2.523  28.757  0.00  0.00    -0.191 NA
ATOM      5  C   UNL d   1      59.577  -1.127  29.156  0.00  0.00     0.036 A 
ATOM      6  C   UNL d   1      59.996  -1.776  28.835  0.00  0.00     0.088 A 
ATOM      7  O   UNL d   1      58.492  -3.346  28.929  0.00  0.00    -0.242 OA
ATOM      8  C   UNL d   1      59.948  -0.412  29.222  0.00  0.00     0.003 A 
ATOM      9  C   UNL d   1      60.779  -1.698  28.585  0.00  0.00     0.019 A 
ATOM     10  C   UNL d   1      60.714  -0.308  28.985  0.00  0.00     0.000 A 
ATOM     11  C   UNL d   1      61.133  -0.957  28.664  0.00  0.00     0.002 A 
ENDROOT
BRANCH   2  12
ATOM     12  C   UNL d   1      58.383  -0.587  29.716  0.00  0.00     0.018 A 
ATOM     13  C   UNL d   1      58.135   0.004  29.224  0.00  0.00     0.002 A 
ATOM     14  C   UNL d   1      57.710   0.662  29.550  0.00  0.00     0.000 A 
ATOM     15  C   UNL d   1      57.563   0.681  30.345  0.00  0.00     0.000 A 
ATOM     16  C   UNL d   1      57.812   0.085  30.846  0.00  0.00     0.000 A 
ATOM     17  C   UNL d   1      58.237  -0.572  30.520  0.00  0.00     0.002 A 
ENDBRANCH   2  12
TORSDOF 1
ENDMDL
MODEL 6
REMARK VINA RESULT:      -2.5      3.622      5.049
REMARK  1 active torsions:
REMARK  status: ('A' for Active; 'I' for Inactive)
REMARK    1  A    between atoms: C_8  and  C_2 
ROOT
ATOM      1  N   UNL d   1      58.947  -1.509  29.357  0.00  0.00    -0.191 NA
ATOM      2  C   UNL d   1      59.059  -0.755  29.625  0.00  0.00     0.087 A 
ATOM      3  C   UNL d   1      58.299  -1.953  29.647  0.00  0.00     0.369 A 
ATOM      4  N   UNL d   1      57.776  -1.633  30.199  0.00  0.00    -0.191 NA
ATOM      5  C   UNL d   1      58.559  -0.410  30.171  0.00  0.00     0.036 A 
ATOM      6  C   UNL d   1      57.911  -0.853  30.461  0.00  0.00     0.088 A 
ATOM      7  O   UNL d   1      58.163  -2.729  29.387  0.00  0.00    -0.242 OA
ATOM      8  C   UNL d   1      58.672   0.344  30.439  0.00  0.00     0.003 A 
ATOM      9  C   UNL d   1      57.388  -0.534  31.014  0.00  0.00     0.019 A 
ATOM     10  C   UNL d   1      58.174   0.682  30.980  0.00  0.00     0.000 A 
ATOM     11  C   UNL d   1      57.526   0.238  31.270  0.00  0.00     0.002 A 
ENDROOT
BRANCH   2  12
ATOM     12  C   UNL d   1      59.708  -0.311  29.334  0.00  0.00     0.018 A 
ATOM     13  C   UNL d   1      59.583   0.233  28.749  0.00  0.00     0.002 A 
ATOM     14  C   UNL d   1      60.240   0.682  28.455  0.00  0.00     0.000 A 
ATOM     15  C   UNL d   1      60.975   0.556  28.767  0.00  0.00     0.000 A 
ATOM     16  C   UNL d   1      61.106   0.008  29.359  0.00  0.00     0.000 A 
ATOM     17  C   UNL d   1      60.449  -0.442  29.653  0.00  0.00     0.002 A 
ENDBRANCH   2  12
TORSDOF 1
ENDMDL
MODEL 7
REMARK VINA RESULT:      -2.3      3.706      5.476
REMARK  1 active torsions:
REMARK  status: ('A' for Active; 'I' for Inactive)
REMARK    1  A    between atoms: C_8  and  C_2 
ROOT
ATOM      1  N   UNL d   1      59.648   0.407  29.661  0.00  0.00    -0.191 NA
ATOM      2  C   UNL d   1      59.055  -0.123  29.810  0.00  0.00     0.087 A 
ATOM      3  C   UNL d   1      60.317   0.157  29.225  0.00  0.00     0.369 A 
ATOM      4  N   UNL d   1      60.381  -0.617  28.946  0.00  0.00    -0.191 NA
ATOM      5  C   UNL d   1      59.089  -0.896  29.547  0.00  0.00     0.036 A 
ATOM      6  C   UNL d   1      59.758  -1.145  29.111  0.00  0.00     0.088 A 
ATOM      7  O   UNL d   1      60.939   0.682  29.059  0.00  0.00    -0.242 OA
ATOM      8  C   UNL d   1      58.496  -1.425  29.696  0.00  0.00     0.003 A 
ATOM      9  C   UNL d   1      59.822  -1.919  28.832  0.00  0.00     0.019 A 
ATOM     10  C   UNL d   1      58.533  -2.189  29.434  0.00  0.00     0.000 A 
ATOM     11  C   UNL d   1      59.202  -2.438  28.998  0.00  0.00     0.002 A 
ENDROOT
BRANCH   2  12
ATOM     12  C   UNL d   1      58.385   0.127  30.246  0.00  0.00     0.018 A 
ATOM     13  C   UNL d   1      58.393   0.062  31.052  0.00  0.00     0.002 A 
ATOM     14  C   UNL d   1      57.715   0.315  31.494  0.00  0.00     0.000 A 
ATOM     15  C   UNL d   1      57.076   0.615  31.099  0.00  0.00     0.000 A 
ATOM     16  C   UNL d   1      57.064   0.682  30.284  0.00  0.00     0.000 A 
ATOM     17  C   UNL d   1      57.742   0.429  29.843  0.00  0.00     0.002 A 
ENDBRANCH   2  12
TORSDOF 1
ENDMDL
MODEL 8
REMARK VINA RESULT:      -1.6      1.658      3.317
REMARK  1 active torsions:
REMARK  status: ('A' for Active; 'I' for Inactive)
REMARK    1  A    between atoms: C_8  and  C_2 
ROOT
ATOM      1  N   UNL d   1      55.515  -1.450  33.197  0.00  0.00    -0.191 NA
ATOM      2  C   UNL d   1      55.801  -0.699  33.287  0.00  0.00     0.087 A 
ATOM      3  C   UNL d   1      55.787  -1.917  32.558  0.00  0.00     0.369 A 
ATOM      4  N   UNL d   1      56.340  -1.624  32.021  0.00  0.00    -0.191 NA
ATOM      5  C   UNL d   1      56.350  -0.381  32.772  0.00  0.00     0.036 A 
ATOM      6  C   UNL d   1      56.622  -0.848  32.133  0.00  0.00     0.088 A 
ATOM      7  O   UNL d   1      55.507  -2.690  32.446  0.00  0.00    -0.242 OA
ATOM      8  C   UNL d   1      56.637   0.370  32.861  0.00  0.00     0.003 A 
ATOM      9  C   UNL d   1      57.176  -0.555  31.595  0.00  0.00     0.019 A 
ATOM     10  C   UNL d   1      57.180   0.681  32.349  0.00  0.00     0.000 A 
ATOM     11  C   UNL d   1      57.452   0.214  31.710  0.00  0.00     0.002 A 
ENDROOT
BRANCH   2  12
ATOM     12  C   UNL d   1      55.529  -0.231  33.927  0.00  0.00     0.018 A 
ATOM     13  C   UNL d   1      55.960  -0.209  34.610  0.00  0.00     0.002 A 
ATOM     14  C   UNL d   1      55.685   0.264  35.258  0.00  0.00     0.000 A 
ATOM     15  C   UNL d   1      54.997   0.682  35.176  0.00  0.00     0.000 A 
ATOM     16  C   UNL d   1      54.558   0.662  34.487  0.00  0.00     0.000 A 
ATOM     17  C   UNL d   1      54.834   0.189  33.839  0.00  0.00     0.002 A 
ENDBRANCH   2  12
TORSDOF 1
ENDMDL
