MODEL 1
REMARK VINA RESULT:      -1.9      0.000      0.000
REMARK  3 active torsions:
REMARK  status: ('A' for Active; 'I' for Inactive)
REMARK    1  A    between atoms: N_9  and  C_3 
REMARK    2  A    between atoms: C_12  and  C_5 
REMARK    3  A    between atoms: C_17  and  N_10 
ROOT
ATOM      1  N   UNL d   1     -41.792-122.208 -51.910  0.00  0.00    -0.196 N 
ATOM      2  C   UNL d   1     -41.667-121.844 -52.640  0.00  0.00     0.167 A 
ATOM      3  C   UNL d   1     -41.694-121.781 -51.214  0.00  0.00     0.152 A 
ATOM      4  N   UNL d   1     -42.005-122.990 -52.045  0.00  0.00    -0.163 NA
ATOM      5  C   UNL d   1     -41.803-122.400 -53.228  0.00  0.00     0.055 A 
ATOM      6  C   UNL d   1     -42.011-123.106 -52.867  0.00  0.00     0.104 A 
ATOM      7  N   UNL d   1     -41.445-121.052 -52.673  0.00  0.00    -0.227 NA
ATOM      8  C   UNL d   1     -41.471-120.981 -51.243  0.00  0.00     0.057 A 
ATOM      9  C   UNL d   1     -41.346-120.617 -51.973  0.00  0.00     0.086 A 
ATOM     10  C   UNL d   1     -42.196-123.812 -53.251  0.00  0.00     0.023 C 
ATOM     11  C   UNL d   1     -41.123-119.819 -52.008  0.00  0.00     0.021 C 
ENDROOT
BRANCH   3  12
ATOM     12  N   UNL d   1     -41.820-122.148 -50.477  0.00  0.00    -0.286 N 
ATOM     13  C   UNL d   1     -42.580-122.149 -50.140  0.00  0.00     0.101 A 
ATOM     14  C   UNL d   1     -42.704-122.513 -49.410  0.00  0.00     0.100 A 
ATOM     15  N   UNL d   1     -42.069-122.876 -49.018  0.00  0.00    -0.301 N 
ATOM     16  C   UNL d   1     -41.319-122.874 -49.354  0.00  0.00     0.100 A 
ATOM     17  C   UNL d   1     -41.194-122.510 -50.084  0.00  0.00     0.101 A 
BRANCH  15  18
ATOM     18  C   UNL d   1     -42.195-123.242 -48.284  0.00  0.00     0.064 A 
ATOM     19  C   UNL d   1     -41.554-123.423 -47.798  0.00  0.00     0.018 A 
ATOM     20  C   UNL d   1     -41.849-123.780 -47.113  0.00  0.00     0.002 A 
ATOM     21  C   UNL d   1     -42.666-123.817 -47.181  0.00  0.00     0.002 A 
ATOM     22  C   UNL d   1     -42.882-123.491 -47.894  0.00  0.00     0.018 A 
ENDBRANCH  15  18
ENDBRANCH   3  12
BRANCH   5  23
ATOM     23  C   UNL d   1     -41.765-122.357 -54.048  0.00  0.00     0.004 A 
ATOM     24  C   UNL d   1     -42.341-121.928 -54.469  0.00  0.00     0.000 A 
ATOM     25  C   UNL d   1     -42.303-121.886 -55.290  0.00  0.00     0.000 A 
ATOM     26  C   UNL d   1     -41.695-122.268 -55.699  0.00  0.00     0.000 A 
ATOM     27  C   UNL d   1     -41.123-122.694 -55.285  0.00  0.00     0.000 A 
ATOM     28  C   UNL d   1     -41.158-122.739 -54.457  0.00  0.00     0.000 A 
ENDBRANCH   5  23
TORSDOF 3
ENDMDL
