MODEL 1
REMARK VINA RESULT:      -5.9      0.000      0.000
REMARK  3 active torsions:
REMARK  status: ('A' for Active; 'I' for Inactive)
REMARK    1  A    between atoms: C_5  and  N_1 
REMARK    2  A    between atoms: C_4  and  C_5 
REMARK       I    between atoms: N_6  and  C_4 
REMARK    3  A    between atoms: C_12  and  N_6 
ROOT
ATOM      1  C   UNL d   1     -41.378-122.619 -52.786  0.00  0.00     0.297 C 
ATOM      2  N   UNL d   1     -41.226-122.258 -52.047  0.00  0.00    -0.207 NA
ATOM      3  O   UNL d   1     -41.816-123.323 -52.752  0.00  0.00    -0.264 OA
ENDROOT
BRANCH   1   4
ATOM      4  C   UNL d   1     -41.123-122.320 -53.530  0.00  0.00     0.148 C 
BRANCH   4   5
ATOM      5  N   UNL d   1     -41.576-122.405 -54.189  0.00  0.00    -0.236 N 
ATOM      6  C   UNL d   1     -41.616-123.068 -54.723  0.00  0.00     0.267 A 
ATOM      7  C   UNL d   1     -42.149-122.871 -55.282  0.00  0.00     0.066 A 
ATOM      8  O   UNL d   1     -41.126-123.785 -54.600  0.00  0.00    -0.267 OA
ATOM      9  C   UNL d   1     -42.447-122.138 -55.141  0.00  0.00     0.066 A 
ATOM     10  C   UNL d   1     -42.109-121.845 -54.483  0.00  0.00     0.267 A 
ATOM     11  O   UNL d   1     -42.218-121.133 -54.108  0.00  0.00    -0.267 OA
ENDBRANCH   4   5
ENDBRANCH   1   4
BRANCH   2  12
ATOM     12  C   UNL d   1     -41.463-122.535 -51.350  0.00  0.00     0.085 A 
ATOM     13  C   UNL d   1     -41.201-123.245 -50.998  0.00  0.00     0.020 A 
ATOM     14  C   UNL d   1     -41.438-123.523 -50.299  0.00  0.00     0.008 A 
ATOM     15  C   UNL d   1     -41.989-123.089 -49.865  0.00  0.00     0.035 A 
ATOM     16  C   UNL d   1     -42.286-122.379 -50.157  0.00  0.00     0.008 A 
ATOM     17 BR   UNL d   1     -42.261-123.366 -49.108  0.00  0.00    -0.049 Br
ATOM     18  C   UNL d   1     -42.018-122.105 -50.905  0.00  0.00     0.020 A 
ENDBRANCH   2  12
TORSDOF 3
ENDMDL
MODEL 2
REMARK VINA RESULT:      -5.0      2.013      4.197
REMARK  3 active torsions:
REMARK  status: ('A' for Active; 'I' for Inactive)
REMARK    1  A    between atoms: C_5  and  N_1 
REMARK    2  A    between atoms: C_4  and  C_5 
REMARK       I    between atoms: N_6  and  C_4 
REMARK    3  A    between atoms: C_12  and  N_6 
ROOT
ATOM      1  C   UNL d   1     -41.644-122.682 -51.350  0.00  0.00     0.297 C 
ATOM      2  N   UNL d   1     -41.340-122.217 -51.975  0.00  0.00    -0.207 NA
ATOM      3  O   UNL d   1     -42.041-123.373 -51.585  0.00  0.00    -0.264 OA
ENDROOT
BRANCH   1   4
ATOM      4  C   UNL d   1     -41.574-122.497 -50.533  0.00  0.00     0.148 C 
BRANCH   4   5
ATOM      5  N   UNL d   1     -42.064-122.828 -49.989  0.00  0.00    -0.236 N 
ATOM      6  C   UNL d   1     -42.874-122.626 -49.812  0.00  0.00     0.267 A 
ATOM      7  C   UNL d   1     -43.104-123.120 -49.231  0.00  0.00     0.066 A 
ATOM      8  O   UNL d   1     -43.288-121.983 -50.240  0.00  0.00    -0.267 OA
ATOM      9  C   UNL d   1     -42.504-123.616 -49.028  0.00  0.00     0.066 A 
ATOM     10  C   UNL d   1     -41.870-123.450 -49.479  0.00  0.00     0.267 A 
ATOM     11  O   UNL d   1     -41.132-123.788 -49.493  0.00  0.00    -0.267 OA
ENDBRANCH   4   5
ENDBRANCH   1   4
BRANCH   2  12
ATOM     12  C   UNL d   1     -41.404-122.387 -52.741  0.00  0.00     0.085 A 
ATOM     13  C   UNL d   1     -41.126-123.085 -53.106  0.00  0.00     0.020 A 
ATOM     14  C   UNL d   1     -41.189-123.256 -53.872  0.00  0.00     0.008 A 
ATOM     15  C   UNL d   1     -41.559-122.713 -54.371  0.00  0.00     0.035 A 
ATOM     16  C   UNL d   1     -41.855-122.005 -54.073  0.00  0.00     0.008 A 
ATOM     17 BR   UNL d   1     -41.640-122.873 -55.203  0.00  0.00    -0.049 Br
ATOM     18  C   UNL d   1     -41.775-121.847 -53.252  0.00  0.00     0.020 A 
ENDBRANCH   2  12
TORSDOF 3
ENDMDL
