MODEL 1
REMARK VINA RESULT:      -3.2      0.000      0.000
REMARK  7 active torsions:
REMARK  status: ('A' for Active; 'I' for Inactive)
REMARK    1  A    between atoms: C_6  and  N_1 
REMARK    2  A    between atoms: C_12  and  C_6 
REMARK    3  A    between atoms: C_7  and  C_8 
REMARK    4  A    between atoms: C_22  and  C_7 
REMARK    5  A    between atoms: C_15  and  C_12 
REMARK    6  A    between atoms: O_13  and  C_15 
REMARK    7  A    between atoms: C_14  and  O_13 
ROOT
ATOM      1  C   UNL d   1      32.902  18.062 -23.098  0.00  0.00     0.238 C 
ATOM      2  O   UNL d   1      33.071  17.568 -22.458  0.00  0.00    -0.283 OA
ENDROOT
BRANCH   1   3
ATOM      3  C   UNL d   1      32.777  17.742 -23.850  0.00  0.00     0.126 C 
BRANCH   3   4
ATOM      4  N   UNL d   1      32.273  17.085 -23.934  0.00  0.00    -0.286 N 
ATOM      5  C   UNL d   1      32.494  16.292 -23.822  0.00  0.00     0.148 A 
ATOM      6  N   UNL d   1      31.824  15.819 -23.961  0.00  0.00    -0.227 NA
ATOM      7  C   UNL d   1      33.240  16.019 -23.610  0.00  0.00     0.041 C 
ATOM      8  C   UNL d   1      31.197  16.315 -24.158  0.00  0.00     0.099 A 
ATOM      9  C   UNL d   1      31.477  17.101 -24.140  0.00  0.00     0.083 A 
ATOM     10  C   UNL d   1      30.418  16.162 -24.348  0.00  0.00     0.021 A 
ATOM     11  C   UNL d   1      30.958  17.722 -24.318  0.00  0.00     0.019 A 
ATOM     12  C   UNL d   1      30.169  17.559 -24.510  0.00  0.00     0.002 A 
ATOM     13  C   UNL d   1      29.902  16.779 -24.524  0.00  0.00     0.002 A 
ENDBRANCH   3   4
ENDBRANCH   1   3
BRANCH   1  14
ATOM     14  C   UNL d   1      32.859  18.886 -22.980  0.00  0.00     0.166 C 
BRANCH  14  15
ATOM     15  O   UNL d   1      33.168  19.222 -22.261  0.00  0.00    -0.302 OA
BRANCH  15  16
ATOM     16  C   UNL d   1      33.027  20.020 -22.059  0.00  0.00     0.100 A 
ATOM     17  C   UNL d   1      32.677  20.208 -21.341  0.00  0.00     0.025 A 
ATOM     18  C   UNL d   1      32.539  21.001 -21.145  0.00  0.00     0.005 A 
ATOM     19  C   UNL d   1      32.749  21.590 -21.663  0.00  0.00     0.039 A 
ATOM     20  C   UNL d   1      33.102  21.396 -22.387  0.00  0.00     0.005 A 
ATOM     21  C   UNL d   1      33.238  20.610 -22.578  0.00  0.00     0.025 A 
BRANCH  19  22
ATOM     22  C   UNL d   1      32.613  22.379 -21.470  0.00  0.00     0.196 C 
ATOM     23  O   UNL d   1      32.634  22.624 -20.688  0.00  0.00    -0.287 OA
BRANCH  22  24
ATOM     24  C   UNL d   1      32.454  22.927 -22.067  0.00  0.00     0.042 C 
ATOM     25  C   UNL d   1      32.229  23.689 -21.876  0.00  0.00     0.003 C 
ENDBRANCH  22  24
ENDBRANCH  19  22
ENDBRANCH  15  16
ENDBRANCH  14  15
ENDBRANCH   1  14
TORSDOF 7
ENDMDL
MODEL 2
REMARK VINA RESULT:      -2.5      2.257      5.931
REMARK  7 active torsions:
REMARK  status: ('A' for Active; 'I' for Inactive)
REMARK    1  A    between atoms: C_6  and  N_1 
REMARK    2  A    between atoms: C_12  and  C_6 
REMARK    3  A    between atoms: C_7  and  C_8 
REMARK    4  A    between atoms: C_22  and  C_7 
REMARK    5  A    between atoms: C_15  and  C_12 
REMARK    6  A    between atoms: O_13  and  C_15 
REMARK    7  A    between atoms: C_14  and  O_13 
ROOT
ATOM      1  C   UNL d   1      32.719  20.853 -21.689  0.00  0.00     0.238 C 
ATOM      2  O   UNL d   1      32.083  20.697 -21.185  0.00  0.00    -0.283 OA
ENDROOT
BRANCH   1   3
ATOM      3  C   UNL d   1      33.239  21.473 -21.523  0.00  0.00     0.126 C 
BRANCH   3   4
ATOM      4  N   UNL d   1      32.933  22.207 -21.279  0.00  0.00    -0.286 N 
ATOM      5  C   UNL d   1      32.575  22.769 -21.776  0.00  0.00     0.148 A 
ATOM      6  N   UNL d   1      32.349  23.417 -21.306  0.00  0.00    -0.227 NA
ATOM      7  C   UNL d   1      32.461  22.700 -22.588  0.00  0.00     0.041 C 
ATOM      8  C   UNL d   1      32.566  23.258 -20.528  0.00  0.00     0.099 A 
ATOM      9  C   UNL d   1      32.928  22.506 -20.513  0.00  0.00     0.083 A 
ATOM     10  C   UNL d   1      32.485  23.687 -19.839  0.00  0.00     0.021 A 
ATOM     11  C   UNL d   1      33.203  22.202 -19.792  0.00  0.00     0.019 A 
ATOM     12  C   UNL d   1      33.117  22.643 -19.098  0.00  0.00     0.002 A 
ATOM     13  C   UNL d   1      32.758  23.385 -19.124  0.00  0.00     0.002 A 
ENDBRANCH   3   4
ENDBRANCH   1   3
BRANCH   1  14
ATOM     14  C   UNL d   1      32.832  20.379 -22.365  0.00  0.00     0.166 C 
BRANCH  14  15
ATOM     15  O   UNL d   1      33.188  19.610 -22.283  0.00  0.00    -0.302 OA
BRANCH  15  16
ATOM     16  C   UNL d   1      33.064  19.011 -22.852  0.00  0.00     0.100 A 
ATOM     17  C   UNL d   1      33.067  19.195 -23.651  0.00  0.00     0.025 A 
ATOM     18  C   UNL d   1      32.944  18.599 -24.213  0.00  0.00     0.005 A 
ATOM     19  C   UNL d   1      32.821  17.833 -23.970  0.00  0.00     0.039 A 
ATOM     20  C   UNL d   1      32.819  17.651 -23.162  0.00  0.00     0.005 A 
ATOM     21  C   UNL d   1      32.941  18.245 -22.609  0.00  0.00     0.025 A 
BRANCH  19  22
ATOM     22  C   UNL d   1      32.699  17.237 -24.526  0.00  0.00     0.196 C 
ATOM     23  O   UNL d   1      32.049  17.264 -25.025  0.00  0.00    -0.287 OA
BRANCH  22  24
ATOM     24  C   UNL d   1      33.234  16.611 -24.582  0.00  0.00     0.042 C 
ATOM     25  C   UNL d   1      33.021  15.923 -24.969  0.00  0.00     0.003 C 
ENDBRANCH  22  24
ENDBRANCH  19  22
ENDBRANCH  15  16
ENDBRANCH  14  15
ENDBRANCH   1  14
TORSDOF 7
ENDMDL
MODEL 3
REMARK VINA RESULT:      -0.6      1.973      5.578
REMARK  7 active torsions:
REMARK  status: ('A' for Active; 'I' for Inactive)
REMARK    1  A    between atoms: C_6  and  N_1 
REMARK    2  A    between atoms: C_12  and  C_6 
REMARK    3  A    between atoms: C_7  and  C_8 
REMARK    4  A    between atoms: C_22  and  C_7 
REMARK    5  A    between atoms: C_15  and  C_12 
REMARK    6  A    between atoms: O_13  and  C_15 
REMARK    7  A    between atoms: C_14  and  O_13 
ROOT
ATOM      1  C   UNL d   1      32.824  20.588 -22.820  0.00  0.00     0.238 C 
ATOM      2  O   UNL d   1      32.249  20.917 -23.314  0.00  0.00    -0.283 OA
ENDROOT
BRANCH   1   3
ATOM      3  C   UNL d   1      33.241  21.066 -22.290  0.00  0.00     0.126 C 
BRANCH   3   4
ATOM      4  N   UNL d   1      32.830  21.447 -21.675  0.00  0.00    -0.286 N 
ATOM      5  C   UNL d   1      32.621  21.100 -20.950  0.00  0.00     0.148 A 
ATOM      6  N   UNL d   1      32.218  21.673 -20.501  0.00  0.00    -0.227 NA
ATOM      7  C   UNL d   1      32.780  20.329 -20.713  0.00  0.00     0.041 C 
ATOM      8  C   UNL d   1      32.180  22.366 -20.944  0.00  0.00     0.099 A 
ATOM      9  C   UNL d   1      32.560  22.223 -21.673  0.00  0.00     0.083 A 
ATOM     10  C   UNL d   1      31.855  23.098 -20.788  0.00  0.00     0.021 A 
ATOM     11  C   UNL d   1      32.604  22.832 -22.235  0.00  0.00     0.019 A 
ATOM     12  C   UNL d   1      32.273  23.572 -22.069  0.00  0.00     0.002 A 
ATOM     13  C   UNL d   1      31.899  23.702 -21.345  0.00  0.00     0.002 A 
ENDBRANCH   3   4
ENDBRANCH   1   3
BRANCH   1  14
ATOM     14  C   UNL d   1      32.979  19.770 -22.861  0.00  0.00     0.166 C 
BRANCH  14  15
ATOM     15  O   UNL d   1      33.052  19.396 -23.622  0.00  0.00    -0.302 OA
BRANCH  15  16
ATOM     16  C   UNL d   1      32.915  18.577 -23.718  0.00  0.00     0.100 A 
ATOM     17  C   UNL d   1      32.543  18.298 -24.394  0.00  0.00     0.025 A 
ATOM     18  C   UNL d   1      32.409  17.486 -24.486  0.00  0.00     0.005 A 
ATOM     19  C   UNL d   1      32.647  16.968 -23.906  0.00  0.00     0.039 A 
ATOM     20  C   UNL d   1      33.022  17.254 -23.225  0.00  0.00     0.005 A 
ATOM     21  C   UNL d   1      33.153  18.059 -23.139  0.00  0.00     0.025 A 
BRANCH  19  22
ATOM     22  C   UNL d   1      32.515  16.159 -23.995  0.00  0.00     0.196 C 
ATOM     23  O   UNL d   1      33.049  15.695 -24.409  0.00  0.00    -0.287 OA
BRANCH  22  24
ATOM     24  C   UNL d   1      31.841  15.814 -23.665  0.00  0.00     0.042 C 
ATOM     25  C   UNL d   1      31.289  15.453 -24.146  0.00  0.00     0.003 C 
ENDBRANCH  22  24
ENDBRANCH  19  22
ENDBRANCH  15  16
ENDBRANCH  14  15
ENDBRANCH   1  14
TORSDOF 7
ENDMDL
