MODEL 1
REMARK VINA RESULT:     -10.3      0.000      0.000
REMARK  1 active torsions:
REMARK  status: ('A' for Active; 'I' for Inactive)
REMARK    1  A    between atoms: C_9  and  N_4 
ROOT
ATOM      1  C   UNL d   1      53.084  32.769  53.376  0.00  0.00     0.096 A 
ATOM      2  C   UNL d   1      53.154  33.458  53.809  0.00  0.00     0.109 A 
ATOM      3  N   UNL d   1      52.522  33.947  53.625  0.00  0.00    -0.162 NA
ATOM      4  N   UNL d   1      52.059  33.549  53.070  0.00  0.00    -0.195 N 
ATOM      5  C   UNL d   1      52.408  32.826  52.920  0.00  0.00     0.283 A 
ATOM      6  C   UNL d   1      53.653  32.166  53.450  0.00  0.00     0.105 A 
ATOM      7  C   UNL d   1      53.788  33.553  54.319  0.00  0.00     0.037 A 
ATOM      8  N   UNL d   1      54.286  32.265  53.962  0.00  0.00    -0.244 NA
ATOM      9  C   UNL d   1      54.359  32.962  54.402  0.00  0.00     0.083 A 
ATOM     10  O   UNL d   1      52.124  32.254  52.397  0.00  0.00    -0.265 OA
ATOM     11  C   UNL d   1      53.863  34.247  54.759  0.00  0.00     0.003 A 
ATOM     12  C   UNL d   1      54.996  33.065  54.919  0.00  0.00     0.019 A 
ATOM     13  C   UNL d   1      54.503  34.343  55.273  0.00  0.00     0.000 A 
ATOM     14  C   UNL d   1      55.065  33.756  55.353  0.00  0.00     0.002 A 
ENDROOT
BRANCH   4  15
ATOM     15  C   UNL d   1      51.364  33.830  52.725  0.00  0.00     0.086 A 
ATOM     16  C   UNL d   1      50.654  33.801  53.149  0.00  0.00     0.020 A 
ATOM     17  C   UNL d   1      49.964  34.078  52.812  0.00  0.00     0.013 A 
ATOM     18  C   UNL d   1      49.971  34.388  52.046  0.00  0.00     0.058 A 
ATOM     19  C   UNL d   1      50.681  34.416  51.622  0.00  0.00     0.013 A 
ATOM     20 CL   UNL d   1      49.288  34.665  51.706  0.00  0.00    -0.082 Cl
ATOM     21  C   UNL d   1      51.369  34.142  51.955  0.00  0.00     0.020 A 
ENDBRANCH   4  15
TORSDOF 1
ENDMDL
MODEL 2
REMARK VINA RESULT:      -9.8      1.175      2.080
REMARK  1 active torsions:
REMARK  status: ('A' for Active; 'I' for Inactive)
REMARK    1  A    between atoms: C_9  and  N_4 
ROOT
ATOM      1  C   UNL d   1      53.025  32.950  53.328  0.00  0.00     0.096 A 
ATOM      2  C   UNL d   1      52.609  32.268  53.159  0.00  0.00     0.109 A 
ATOM      3  N   UNL d   1      51.855  32.475  52.914  0.00  0.00    -0.162 NA
ATOM      4  N   UNL d   1      51.811  33.299  52.933  0.00  0.00    -0.195 N 
ATOM      5  C   UNL d   1      52.531  33.586  53.188  0.00  0.00     0.283 A 
ATOM      6  C   UNL d   1      53.813  32.908  53.592  0.00  0.00     0.105 A 
ATOM      7  C   UNL d   1      52.973  31.538  53.251  0.00  0.00     0.037 A 
ATOM      8  N   UNL d   1      54.173  32.177  53.683  0.00  0.00    -0.244 NA
ATOM      9  C   UNL d   1      53.754  31.484  53.513  0.00  0.00     0.083 A 
ATOM     10  O   UNL d   1      52.724  34.382  53.287  0.00  0.00    -0.265 OA
ATOM     11  C   UNL d   1      52.557  30.847  53.082  0.00  0.00     0.003 A 
ATOM     12  C   UNL d   1      54.114  30.745  53.603  0.00  0.00     0.019 A 
ATOM     13  C   UNL d   1      52.924  30.111  53.175  0.00  0.00     0.000 A 
ATOM     14  C   UNL d   1      53.697  30.061  53.434  0.00  0.00     0.002 A 
ENDROOT
BRANCH   4  15
ATOM     15  C   UNL d   1      51.153  33.756  52.731  0.00  0.00     0.086 A 
ATOM     16  C   UNL d   1      50.628  34.004  53.320  0.00  0.00     0.020 A 
ATOM     17  C   UNL d   1      49.977  34.456  53.125  0.00  0.00     0.013 A 
ATOM     18  C   UNL d   1      49.840  34.667  52.338  0.00  0.00     0.058 A 
ATOM     19  C   UNL d   1      50.365  34.418  51.749  0.00  0.00     0.013 A 
ATOM     20 CL   UNL d   1      49.193  35.116  52.137  0.00  0.00    -0.082 Cl
ATOM     21  C   UNL d   1      51.013  33.969  51.941  0.00  0.00     0.020 A 
ENDBRANCH   4  15
TORSDOF 1
ENDMDL
MODEL 3
REMARK VINA RESULT:      -9.3      2.322      4.044
REMARK  1 active torsions:
REMARK  status: ('A' for Active; 'I' for Inactive)
REMARK    1  A    between atoms: C_9  and  N_4 
ROOT
ATOM      1  C   UNL d   1      53.185  32.931  53.397  0.00  0.00     0.096 A 
ATOM      2  C   UNL d   1      52.385  32.781  53.336  0.00  0.00     0.109 A 
ATOM      3  N   UNL d   1      52.256  31.984  53.478  0.00  0.00    -0.162 NA
ATOM      4  N   UNL d   1      52.992  31.642  53.628  0.00  0.00    -0.195 N 
ATOM      5  C   UNL d   1      53.559  32.227  53.577  0.00  0.00     0.283 A 
ATOM      6  C   UNL d   1      53.479  33.700  53.278  0.00  0.00     0.105 A 
ATOM      7  C   UNL d   1      51.870  33.394  53.157  0.00  0.00     0.037 A 
ATOM      8  N   UNL d   1      52.961  34.310  53.100  0.00  0.00    -0.244 NA
ATOM      9  C   UNL d   1      52.149  34.162  53.038  0.00  0.00     0.083 A 
ATOM     10  O   UNL d   1      54.370  32.123  53.689  0.00  0.00    -0.265 OA
ATOM     11  C   UNL d   1      51.060  33.247  53.095  0.00  0.00     0.003 A 
ATOM     12  C   UNL d   1      51.624  34.775  52.858  0.00  0.00     0.019 A 
ATOM     13  C   UNL d   1      50.542  33.866  52.915  0.00  0.00     0.000 A 
ATOM     14  C   UNL d   1      50.822  34.623  52.797  0.00  0.00     0.002 A 
ENDROOT
BRANCH   4  15
ATOM     15  C   UNL d   1      53.133  30.847  53.801  0.00  0.00     0.086 A 
ATOM     16  C   UNL d   1      53.217  30.606  54.587  0.00  0.00     0.020 A 
ATOM     17  C   UNL d   1      53.356  29.821  54.763  0.00  0.00     0.013 A 
ATOM     18  C   UNL d   1      53.415  29.264  54.155  0.00  0.00     0.058 A 
ATOM     19  C   UNL d   1      53.332  29.506  53.369  0.00  0.00     0.013 A 
ATOM     20 CL   UNL d   1      53.554  28.482  54.323  0.00  0.00    -0.082 Cl
ATOM     21  C   UNL d   1      53.193  30.286  53.191  0.00  0.00     0.020 A 
ENDBRANCH   4  15
TORSDOF 1
ENDMDL
MODEL 4
REMARK VINA RESULT:      -9.1      2.128      3.400
REMARK  1 active torsions:
REMARK  status: ('A' for Active; 'I' for Inactive)
REMARK    1  A    between atoms: C_9  and  N_4 
ROOT
ATOM      1  C   UNL d   1      52.603  33.291  53.021  0.00  0.00     0.096 A 
ATOM      2  C   UNL d   1      52.924  33.386  53.766  0.00  0.00     0.109 A 
ATOM      3  N   UNL d   1      53.124  32.647  54.059  0.00  0.00    -0.162 NA
ATOM      4  N   UNL d   1      52.922  32.092  53.483  0.00  0.00    -0.195 N 
ATOM      5  C   UNL d   1      52.602  32.492  52.847  0.00  0.00     0.283 A 
ATOM      6  C   UNL d   1      52.347  33.953  52.587  0.00  0.00     0.105 A 
ATOM      7  C   UNL d   1      52.994  34.138  54.085  0.00  0.00     0.037 A 
ATOM      8  N   UNL d   1      52.419  34.704  52.909  0.00  0.00    -0.244 NA
ATOM      9  C   UNL d   1      52.744  34.802  53.664  0.00  0.00     0.083 A 
ATOM     10  O   UNL d   1      52.326  32.147  52.150  0.00  0.00    -0.265 OA
ATOM     11  C   UNL d   1      53.317  34.237  54.837  0.00  0.00     0.003 A 
ATOM     12  C   UNL d   1      52.817  35.558  53.991  0.00  0.00     0.019 A 
ATOM     13  C   UNL d   1      53.387  34.996  55.158  0.00  0.00     0.000 A 
ATOM     14  C   UNL d   1      53.139  35.651  54.739  0.00  0.00     0.002 A 
ENDROOT
BRANCH   4  15
ATOM     15  C   UNL d   1      53.023  31.275  53.537  0.00  0.00     0.086 A 
ATOM     16  C   UNL d   1      53.785  30.959  53.606  0.00  0.00     0.020 A 
ATOM     17  C   UNL d   1      53.891  30.152  53.659  0.00  0.00     0.013 A 
ATOM     18  C   UNL d   1      53.238  29.646  53.645  0.00  0.00     0.058 A 
ATOM     19  C   UNL d   1      52.476  29.962  53.576  0.00  0.00     0.013 A 
ATOM     20 CL   UNL d   1      53.336  28.842  53.698  0.00  0.00    -0.082 Cl
ATOM     21  C   UNL d   1      52.368  30.765  53.522  0.00  0.00     0.020 A 
ENDBRANCH   4  15
TORSDOF 1
ENDMDL
MODEL 5
REMARK VINA RESULT:      -8.9      2.168      3.313
REMARK  1 active torsions:
REMARK  status: ('A' for Active; 'I' for Inactive)
REMARK    1  A    between atoms: C_9  and  N_4 
ROOT
ATOM      1  C   UNL d   1      52.985  31.243  53.123  0.00  0.00     0.096 A 
ATOM      2  C   UNL d   1      53.140  31.086  53.909  0.00  0.00     0.109 A 
ATOM      3  N   UNL d   1      53.195  31.798  54.312  0.00  0.00    -0.162 NA
ATOM      4  N   UNL d   1      53.072  32.399  53.761  0.00  0.00    -0.195 N 
ATOM      5  C   UNL d   1      52.943  32.054  53.033  0.00  0.00     0.283 A 
ATOM      6  C   UNL d   1      52.900  30.620  52.579  0.00  0.00     0.105 A 
ATOM      7  C   UNL d   1      53.212  30.309  54.161  0.00  0.00     0.037 A 
ATOM      8  N   UNL d   1      52.973  29.844  52.834  0.00  0.00    -0.244 NA
ATOM      9  C   UNL d   1      53.130  29.682  53.630  0.00  0.00     0.083 A 
ATOM     10  O   UNL d   1      52.796  32.458  52.328  0.00  0.00    -0.265 OA
ATOM     11  C   UNL d   1      53.369  30.145  54.954  0.00  0.00     0.003 A 
ATOM     12  C   UNL d   1      53.203  28.900  53.890  0.00  0.00     0.019 A 
ATOM     13  C   UNL d   1      53.441  29.361  55.207  0.00  0.00     0.000 A 
ATOM     14  C   UNL d   1      53.359  28.744  54.679  0.00  0.00     0.002 A 
ENDROOT
BRANCH   4  15
ATOM     15  C   UNL d   1      53.077  33.210  53.917  0.00  0.00     0.086 A 
ATOM     16  C   UNL d   1      53.779  33.579  54.152  0.00  0.00     0.020 A 
ATOM     17  C   UNL d   1      53.789  34.381  54.307  0.00  0.00     0.013 A 
ATOM     18  C   UNL d   1      53.098  34.826  54.230  0.00  0.00     0.058 A 
ATOM     19  C   UNL d   1      52.396  34.458  53.994  0.00  0.00     0.013 A 
ATOM     20 CL   UNL d   1      53.101  35.624  54.382  0.00  0.00    -0.082 Cl
ATOM     21  C   UNL d   1      52.383  33.661  53.840  0.00  0.00     0.020 A 
ENDBRANCH   4  15
TORSDOF 1
ENDMDL
MODEL 6
REMARK VINA RESULT:      -7.7      2.591      5.221
REMARK  1 active torsions:
REMARK  status: ('A' for Active; 'I' for Inactive)
REMARK    1  A    between atoms: C_9  and  N_4 
ROOT
ATOM      1  C   UNL d   1      48.935  34.944  51.936  0.00  0.00     0.096 A 
ATOM      2  C   UNL d   1      48.881  35.273  52.681  0.00  0.00     0.109 A 
ATOM      3  N   UNL d   1      49.535  35.039  53.117  0.00  0.00    -0.162 NA
ATOM      4  N   UNL d   1      49.995  34.560  52.629  0.00  0.00    -0.195 N 
ATOM      5  C   UNL d   1      49.623  34.504  51.904  0.00  0.00     0.283 A 
ATOM      6  C   UNL d   1      48.343  35.088  51.369  0.00  0.00     0.105 A 
ATOM      7  C   UNL d   1      48.239  35.747  52.870  0.00  0.00     0.037 A 
ATOM      8  N   UNL d   1      47.702  35.562  51.562  0.00  0.00    -0.244 NA
ATOM      9  C   UNL d   1      47.645  35.897  52.316  0.00  0.00     0.083 A 
ATOM     10  O   UNL d   1      49.897  34.076  51.254  0.00  0.00    -0.265 OA
ATOM     11  C   UNL d   1      48.180  36.081  53.622  0.00  0.00     0.003 A 
ATOM     12  C   UNL d   1      47.000  36.375  52.513  0.00  0.00     0.019 A 
ATOM     13  C   UNL d   1      47.533  36.558  53.812  0.00  0.00     0.000 A 
ATOM     14  C   UNL d   1      46.947  36.704  53.262  0.00  0.00     0.002 A 
ENDROOT
BRANCH   4  15
ATOM     15  C   UNL d   1      50.708  34.198  52.834  0.00  0.00     0.086 A 
ATOM     16  C   UNL d   1      51.424  34.578  52.669  0.00  0.00     0.020 A 
ATOM     17  C   UNL d   1      52.132  34.224  52.869  0.00  0.00     0.013 A 
ATOM     18  C   UNL d   1      52.136  33.485  53.239  0.00  0.00     0.058 A 
ATOM     19  C   UNL d   1      51.420  33.106  53.405  0.00  0.00     0.013 A 
ATOM     20 CL   UNL d   1      52.837  33.128  53.442  0.00  0.00    -0.082 Cl
ATOM     21  C   UNL d   1      50.715  33.455  53.206  0.00  0.00     0.020 A 
ENDBRANCH   4  15
TORSDOF 1
ENDMDL
MODEL 7
REMARK VINA RESULT:      -7.6      1.767      4.215
REMARK  1 active torsions:
REMARK  status: ('A' for Active; 'I' for Inactive)
REMARK    1  A    between atoms: C_9  and  N_4 
ROOT
ATOM      1  C   UNL d   1      51.509  33.907  52.435  0.00  0.00     0.096 A 
ATOM      2  C   UNL d   1      51.104  34.269  53.045  0.00  0.00     0.109 A 
ATOM      3  N   UNL d   1      51.574  34.251  53.716  0.00  0.00    -0.162 NA
ATOM      4  N   UNL d   1      52.278  33.872  53.512  0.00  0.00    -0.195 N 
ATOM      5  C   UNL d   1      52.234  33.662  52.724  0.00  0.00     0.283 A 
ATOM      6  C   UNL d   1      51.164  33.843  51.681  0.00  0.00     0.105 A 
ATOM      7  C   UNL d   1      50.354  34.570  52.910  0.00  0.00     0.037 A 
ATOM      8  N   UNL d   1      50.413  34.146  51.550  0.00  0.00    -0.244 NA
ATOM      9  C   UNL d   1      50.000  34.513  52.166  0.00  0.00     0.083 A 
ATOM     10  O   UNL d   1      52.820  33.271  52.296  0.00  0.00    -0.265 OA
ATOM     11  C   UNL d   1      49.941  34.936  53.524  0.00  0.00     0.003 A 
ATOM     12  C   UNL d   1      49.243  34.819  52.038  0.00  0.00     0.019 A 
ATOM     13  C   UNL d   1      49.184  35.240  53.388  0.00  0.00     0.000 A 
ATOM     14  C   UNL d   1      48.838  35.182  52.651  0.00  0.00     0.002 A 
ENDROOT
BRANCH   4  15
ATOM     15  C   UNL d   1      52.917  33.729  54.014  0.00  0.00     0.086 A 
ATOM     16  C   UNL d   1      53.356  34.363  54.312  0.00  0.00     0.020 A 
ATOM     17  C   UNL d   1      53.989  34.227  54.809  0.00  0.00     0.013 A 
ATOM     18  C   UNL d   1      54.194  33.454  55.016  0.00  0.00     0.058 A 
ATOM     19  C   UNL d   1      53.755  32.819  54.718  0.00  0.00     0.013 A 
ATOM     20 CL   UNL d   1      54.823  33.311  55.510  0.00  0.00    -0.082 Cl
ATOM     21  C   UNL d   1      53.125  32.953  54.224  0.00  0.00     0.020 A 
ENDBRANCH   4  15
TORSDOF 1
ENDMDL
