MODEL 1
REMARK VINA RESULT:      53.1      0.000      0.000
REMARK  5 active torsions:
REMARK  status: ('A' for Active; 'I' for Inactive)
REMARK    1  A    between atoms: C_10  and  C_4 
REMARK    2  A    between atoms: N_12  and  C_5 
REMARK    3  A    between atoms: N_11  and  C_22 
REMARK    4  A    between atoms: C_21  and  N_12 
REMARK    5  A    between atoms: C_22  and  C_21 
ROOT
ATOM      1  N   UNL d   1     -50.183  26.724  33.423  0.00  0.00    -0.195 N 
ATOM      2  C   UNL d   1     -50.952  26.431  33.389  0.00  0.00     0.167 A 
ATOM      3  N   UNL d   1     -49.672  26.086  33.457  0.00  0.00    -0.163 NA
ATOM      4  C   UNL d   1     -50.910  25.614  33.401  0.00  0.00     0.055 A 
ATOM      5  C   UNL d   1     -50.050  27.538  33.419  0.00  0.00     0.167 A 
ATOM      6  C   UNL d   1     -50.131  25.402  33.443  0.00  0.00     0.104 A 
ATOM      7  N   UNL d   1     -51.591  26.951  33.351  0.00  0.00    -0.227 NA
ATOM      8  C   UNL d   1     -50.695  28.063  33.381  0.00  0.00     0.058 A 
ATOM      9  C   UNL d   1     -51.457  27.773  33.347  0.00  0.00     0.086 A 
ATOM     10  C   UNL d   1     -49.849  24.623  33.467  0.00  0.00     0.023 C 
ATOM     11  C   UNL d   1     -52.097  28.311  33.308  0.00  0.00     0.021 C 
ENDROOT
BRANCH   5  12
ATOM     12  N   UNL d   1     -49.281  27.831  33.454  0.00  0.00    -0.224 NA
BRANCH  12  13
ATOM     13  C   UNL d   1     -48.976  28.109  34.166  0.00  0.00     0.120 C 
BRANCH  13  14
ATOM     14  C   UNL d   1     -48.320  28.622  34.168  0.00  0.00     0.101 C 
BRANCH  14  15
ATOM     15  N   UNL d   1     -48.123  29.030  34.854  0.00  0.00    -0.298 N 
ATOM     16  C   UNL d   1     -47.886  29.823  34.807  0.00  0.00     0.107 A 
ATOM     17  C   UNL d   1     -47.689  30.231  35.493  0.00  0.00     0.142 A 
ATOM     18  O   UNL d   1     -47.724  29.858  36.236  0.00  0.00    -0.300 OA
ATOM     19  C   UNL d   1     -47.962  29.061  36.282  0.00  0.00     0.142 A 
ATOM     20  C   UNL d   1     -48.161  28.648  35.593  0.00  0.00     0.107 A 
ENDBRANCH  14  15
ENDBRANCH  13  14
ENDBRANCH  12  13
ENDBRANCH   5  12
BRANCH   4  21
ATOM     21  C   UNL d   1     -51.498  25.029  33.380  0.00  0.00     0.004 A 
ATOM     22  C   UNL d   1     -52.295  25.253  33.328  0.00  0.00     0.001 A 
ATOM     23  C   UNL d   1     -52.879  24.671  33.307  0.00  0.00     0.011 A 
ATOM     24  C   UNL d   1     -52.668  23.875  33.337  0.00  0.00     0.058 A 
ATOM     25  C   UNL d   1     -51.880  23.648  33.388  0.00  0.00     0.011 A 
ATOM     26 CL   UNL d   1     -53.262  23.293  33.315  0.00  0.00    -0.082 Cl
ATOM     27  C   UNL d   1     -51.291  24.232  33.410  0.00  0.00     0.001 A 
ENDBRANCH   4  21
TORSDOF 5
ENDMDL
