MODEL 1
REMARK VINA RESULT:      -3.9      0.000      0.000
REMARK  2 active torsions:
REMARK  status: ('A' for Active; 'I' for Inactive)
REMARK    1  A    between atoms: N_10  and  C_5 
REMARK    2  A    between atoms: C_22  and  N_12 
ROOT
ATOM      1  N   UNL d   1      57.490  -1.169  30.953  0.00  0.00    -0.175 N 
ATOM      2  C   UNL d   1      57.621  -0.385  30.712  0.00  0.00     0.167 A 
ATOM      3  N   UNL d   1      57.870  -1.804  30.566  0.00  0.00    -0.143 NA
ATOM      4  C   UNL d   1      56.978  -1.342  31.585  0.00  0.00     0.283 A 
ATOM      5  C   UNL d   1      58.381  -1.632  29.935  0.00  0.00     0.168 A 
ATOM      6  N   UNL d   1      57.240   0.221  31.104  0.00  0.00    -0.227 NA
ATOM      7  C   UNL d   1      56.602  -0.709  31.968  0.00  0.00     0.076 A 
ATOM      8  C   UNL d   1      58.132  -0.241  30.085  0.00  0.00     0.039 A 
ATOM      9  C   UNL d   1      58.513  -0.847  29.694  0.00  0.00     0.039 A 
ATOM     10  C   UNL d   1      56.733   0.076  31.727  0.00  0.00     0.088 A 
ATOM     11  O   UNL d   1      56.851  -2.103  31.819  0.00  0.00    -0.265 OA
ATOM     12  C   UNL d   1      56.091  -0.881  32.599  0.00  0.00     0.006 A 
ATOM     13  C   UNL d   1      58.263   0.543  29.844  0.00  0.00     0.003 A 
ATOM     14  C   UNL d   1      59.019  -0.702  29.071  0.00  0.00     0.003 A 
ATOM     15  C   UNL d   1      56.352   0.682  32.118  0.00  0.00     0.019 A 
ATOM     16  C   UNL d   1      55.714  -0.248  32.982  0.00  0.00     0.000 A 
ATOM     17  C   UNL d   1      58.768   0.682  29.223  0.00  0.00     0.000 A 
ATOM     18  C   UNL d   1      59.150   0.082  28.830  0.00  0.00     0.000 A 
ATOM     19  C   UNL d   1      55.845   0.536  32.740  0.00  0.00     0.002 A 
ENDROOT
BRANCH   5  20
ATOM     20  N   UNL d   1      58.758  -2.265  29.552  0.00  0.00    -0.285 N 
ATOM     21  C   UNL d   1      58.394  -2.662  28.951  0.00  0.00     0.101 A 
ATOM     22  C   UNL d   1      58.781  -3.284  28.585  0.00  0.00     0.100 A 
ATOM     23  N   UNL d   1      59.532  -3.508  28.821  0.00  0.00    -0.300 N 
ATOM     24  C   UNL d   1      59.896  -3.111  29.422  0.00  0.00     0.100 A 
ATOM     25  C   UNL d   1      59.519  -2.478  29.805  0.00  0.00     0.101 A 
BRANCH  23  26
ATOM     26  C   UNL d   1      59.919  -4.131  28.455  0.00  0.00     0.080 C 
ATOM     27  C   UNL d   1      60.744  -4.155  28.459  0.00  0.00     0.021 C 
ENDBRANCH  23  26
ENDBRANCH   5  20
TORSDOF 2
ENDMDL
