MODEL 1
REMARK VINA RESULT:      17.7      0.000      0.000
REMARK  5 active torsions:
REMARK  status: ('A' for Active; 'I' for Inactive)
REMARK    1  A    between atoms: O_8  and  C_7 
REMARK    2  A    between atoms: C_10  and  O_8 
REMARK    3  A    between atoms: C_9  and  C_10 
REMARK    4  A    between atoms: O_17  and  C_9 
REMARK    5  A    between atoms: C_21  and  O_17 
ROOT
ATOM      1  C   UNL d   1      46.634 -18.673  42.100  0.00  0.00     0.009 A 
ATOM      2  C   UNL d   1      46.634 -19.087  42.807  0.00  0.00     0.046 A 
ATOM      3  C   UNL d   1      46.636 -19.082  41.382  0.00  0.00     0.064 A 
ATOM      4  C   UNL d   1      46.636 -19.899  41.379  0.00  0.00     0.300 A 
ATOM      5  C   UNL d   1      46.634 -19.904  42.804  0.00  0.00     0.105 A 
ATOM      6  O   UNL d   1      46.635 -20.314  42.095  0.00  0.00    -0.273 OA
ATOM      7  C   UNL d   1      46.632 -18.670  43.520  0.00  0.00     0.102 A 
ATOM      8  C   UNL d   1      46.633 -20.319  43.528  0.00  0.00     0.025 A 
ATOM      9  C   UNL d   1      46.631 -19.092  44.236  0.00  0.00     0.025 A 
ATOM     10  O   UNL d   1      46.638 -20.318  40.653  0.00  0.00    -0.259 OA
ATOM     11  C   UNL d   1      46.632 -19.909  44.233  0.00  0.00     0.004 A 
ATOM     12  C   UNL d   1      46.634 -17.848  42.103  0.00  0.00     0.000 A 
ATOM     13  C   UNL d   1      46.637 -18.668  40.670  0.00  0.00     0.005 A 
ATOM     14  C   UNL d   1      46.631 -20.323  44.953  0.00  0.00     0.000 C 
ATOM     15  C   UNL d   1      46.635 -17.421  41.391  0.00  0.00     0.000 A 
ATOM     16  C   UNL d   1      46.636 -17.843  40.673  0.00  0.00     0.000 A 
ENDROOT
BRANCH   7  17
ATOM     17  O   UNL d   1      46.632 -17.853  43.523  0.00  0.00    -0.302 OA
BRANCH  17  18
ATOM     18  C   UNL d   1      46.222 -17.442  44.113  0.00  0.00     0.163 C 
ATOM     19  C   UNL d   1      46.249 -17.714  44.900  0.00  0.00     0.032 C 
BRANCH  18  20
ATOM     20  C   UNL d   1      45.790 -16.767  43.920  0.00  0.00     0.323 C 
ATOM     21  O   UNL d   1      45.243 -16.790  43.314  0.00  0.00    -0.257 OA
BRANCH  20  22
ATOM     22  O   UNL d   1      45.920 -16.073  44.349  0.00  0.00    -0.270 OA
BRANCH  22  23
ATOM     23  C   UNL d   1      45.449 -15.403  44.196  0.00  0.00     0.126 C 
ATOM     24  C   UNL d   1      45.484 -14.761  44.693  0.00  0.00     0.029 C 
ENDBRANCH  22  23
ENDBRANCH  20  22
ENDBRANCH  18  20
ENDBRANCH  17  18
ENDBRANCH   7  17
TORSDOF 5
ENDMDL
