MODEL 1
REMARK VINA RESULT:      54.3      0.000      0.000
REMARK  3 active torsions:
REMARK  status: ('A' for Active; 'I' for Inactive)
REMARK    1  A    between atoms: N_2  and  C_1 
REMARK    2  A    between atoms: N_3  and  C_1 
REMARK       I    between atoms: C_4  and  N_3 
REMARK    3  A    between atoms: C_5  and  C_4 
ROOT
ATOM      1  C   UNL d   1     -47.534  31.389  35.096  0.00  0.00     0.209 C 
ATOM      2  S   UNL d   1     -48.059  30.796  34.829  0.00  0.00    -0.038 SA
ENDROOT
BRANCH   1   3
ATOM      3  N   UNL d   1     -47.322  32.009  34.583  0.00  0.00    -0.282 N 
ATOM      4  C   UNL d   1     -47.848  32.517  34.209  0.00  0.00     0.066 A 
ATOM      5  C   UNL d   1     -47.401  33.044  33.756  0.00  0.00     0.018 A 
ATOM      6  C   UNL d   1     -48.670  32.576  34.215  0.00  0.00     0.018 A 
ATOM      7  C   UNL d   1     -47.776  33.631  33.308  0.00  0.00     0.002 A 
ATOM      8  C   UNL d   1     -46.604  32.856  33.855  0.00  0.00     0.021 A 
ATOM      9  C   UNL d   1     -48.605  33.687  33.317  0.00  0.00     0.000 A 
ATOM     10  C   UNL d   1     -49.052  33.160  33.770  0.00  0.00     0.002 A 
ATOM     11  C   UNL d   1     -46.559  32.214  34.369  0.00  0.00     0.082 A 
ENDBRANCH   1   3
BRANCH   1  12
ATOM     12  N   UNL d   1     -47.230  31.360  35.857  0.00  0.00    -0.178 NA
ATOM     13  C   UNL d   1     -47.154  30.628  36.239  0.00  0.00     0.304 C 
ATOM     14  O   UNL d   1     -46.847  30.600  37.006  0.00  0.00    -0.263 OA
BRANCH  13  15
ATOM     15  C   UNL d   1     -47.379  29.928  35.866  0.00  0.00     0.158 A 
ATOM     16  O   UNL d   1     -48.096  29.543  35.807  0.00  0.00    -0.296 OA
ATOM     17  C   UNL d   1     -47.980  28.853  35.357  0.00  0.00     0.134 A 
ATOM     18 BR   UNL d   1     -48.545  28.274  35.142  0.00  0.00    -0.022 Br
ATOM     19  C   UNL d   1     -47.186  28.827  35.144  0.00  0.00     0.034 A 
ATOM     20  C   UNL d   1     -46.817  29.491  35.459  0.00  0.00     0.032 A 
ENDBRANCH  13  15
ENDBRANCH   1  12
TORSDOF 3
ENDMDL
