MODEL 1
REMARK VINA RESULT:      -9.0      0.000      0.000
REMARK  5 active torsions:
REMARK  status: ('A' for Active; 'I' for Inactive)
REMARK    1  A    between atoms: N_5  and  S_1 
REMARK    2  A    between atoms: C_7  and  S_1 
REMARK       I    between atoms: C_4  and  N_2 
REMARK    3  A    between atoms: C_3  and  N_11 
REMARK    4  A    between atoms: C_6  and  C_4 
REMARK    5  A    between atoms: N_11  and  C_19 
ROOT
ATOM      1  C   UNL d   1      50.751  34.325  52.660  0.00  0.00     0.104 A 
ATOM      2  C   UNL d   1      50.740  33.893  53.377  0.00  0.00     0.014 A 
ATOM      3  C   UNL d   1      51.490  34.611  52.359  0.00  0.00     0.014 A 
ATOM      4  C   UNL d   1      52.179  34.037  53.479  0.00  0.00     0.084 A 
ATOM      5  C   UNL d   1      51.459  33.748  53.790  0.00  0.00     0.020 A 
ATOM      6  C   UNL d   1      52.193  34.469  52.763  0.00  0.00     0.020 A 
ENDROOT
BRANCH   4   7
ATOM      7  N   UNL d   1      52.892  33.894  53.889  0.00  0.00    -0.217 NA
BRANCH   7   8
ATOM      8  C   UNL d   1      53.189  34.446  54.347  0.00  0.00     0.224 C 
ATOM      9  N   UNL d   1      54.321  34.194  55.000  0.00  0.00    -0.178 NA
ATOM     10  C   UNL d   1      54.683  33.505  54.927  0.00  0.00     0.287 C 
ATOM     11  O   UNL d   1      55.354  33.356  55.316  0.00  0.00    -0.265 OA
ATOM     12  S   UNL d   1      52.831  35.150  54.430  0.00  0.00    -0.037 SA
BRANCH  10  13
ATOM     13  C   UNL d   1      54.367  32.948  54.454  0.00  0.00     0.087 A 
ATOM     14  S   UNL d   1      54.500  32.853  53.690  0.00  0.00    -0.082 SA
ATOM     15  C   UNL d   1      54.070  32.232  53.447  0.00  0.00     0.036 A 
ATOM     16  C   UNL d   1      53.687  31.959  54.048  0.00  0.00     0.008 A 
ATOM     17  C   UNL d   1      53.860  32.391  54.678  0.00  0.00     0.012 A 
ENDBRANCH  10  13
ENDBRANCH   7   8
ENDBRANCH   4   7
BRANCH   1  18
ATOM     18  S   UNL d   1      50.032  34.470  52.247  0.00  0.00     0.271 S 
ATOM     19  O   UNL d   1      49.725  34.841  52.912  0.00  0.00    -0.200 OA
ATOM     20  O   UNL d   1      50.347  34.089  51.565  0.00  0.00    -0.200 OA
BRANCH  18  21
ATOM     21  N   UNL d   1      49.331  34.611  51.844  0.00  0.00    -0.229 N 
ATOM     22  C   UNL d   1      48.709  35.075  52.219  0.00  0.00     0.092 A 
ATOM     23  C   UNL d   1      48.004  35.217  51.815  0.00  0.00     0.020 A 
ATOM     24  C   UNL d   1      47.906  34.899  51.026  0.00  0.00     0.003 A 
ATOM     25  C   UNL d   1      48.504  34.459  50.677  0.00  0.00     0.020 A 
ATOM     26  C   UNL d   1      49.218  34.315  51.087  0.00  0.00     0.092 A 
ENDBRANCH  18  21
ENDBRANCH   1  18
TORSDOF 5
ENDMDL
MODEL 2
REMARK VINA RESULT:      -7.1      1.553      5.538
REMARK  5 active torsions:
REMARK  status: ('A' for Active; 'I' for Inactive)
REMARK    1  A    between atoms: N_5  and  S_1 
REMARK    2  A    between atoms: C_7  and  S_1 
REMARK       I    between atoms: C_4  and  N_2 
REMARK    3  A    between atoms: C_3  and  N_11 
REMARK    4  A    between atoms: C_6  and  C_4 
REMARK    5  A    between atoms: N_11  and  C_19 
ROOT
ATOM      1  C   UNL d   1      51.365  33.769  53.027  0.00  0.00     0.104 A 
ATOM      2  C   UNL d   1      50.634  33.427  53.254  0.00  0.00     0.014 A 
ATOM      3  C   UNL d   1      51.365  34.487  52.578  0.00  0.00     0.014 A 
ATOM      4  C   UNL d   1      49.930  34.507  52.592  0.00  0.00     0.084 A 
ATOM      5  C   UNL d   1      49.912  33.798  53.035  0.00  0.00     0.020 A 
ATOM      6  C   UNL d   1      50.657  34.851  52.364  0.00  0.00     0.020 A 
ENDROOT
BRANCH   4   7
ATOM      7  N   UNL d   1      49.213  34.876  52.375  0.00  0.00    -0.217 NA
BRANCH   7   8
ATOM      8  C   UNL d   1      48.916  34.749  51.668  0.00  0.00     0.224 C 
ATOM      9  N   UNL d   1      47.774  35.348  51.339  0.00  0.00    -0.178 NA
ATOM     10  C   UNL d   1      47.407  35.819  51.843  0.00  0.00     0.287 C 
ATOM     11  O   UNL d   1      46.729  36.174  51.647  0.00  0.00    -0.265 OA
ATOM     12  S   UNL d   1      49.279  34.273  51.147  0.00  0.00    -0.037 SA
BRANCH  10  13
ATOM     13  C   UNL d   1      47.723  35.940  52.564  0.00  0.00     0.087 A 
ATOM     14  S   UNL d   1      47.575  35.533  53.214  0.00  0.00    -0.082 SA
ATOM     15  C   UNL d   1      48.012  35.846  53.798  0.00  0.00     0.036 A 
ATOM     16  C   UNL d   1      48.414  36.427  53.508  0.00  0.00     0.008 A 
ATOM     17  C   UNL d   1      48.246  36.497  52.746  0.00  0.00     0.012 A 
ENDBRANCH  10  13
ENDBRANCH   7   8
ENDBRANCH   4   7
BRANCH   1  18
ATOM     18  S   UNL d   1      52.088  33.397  53.246  0.00  0.00     0.271 S 
ATOM     19  O   UNL d   1      52.017  33.707  54.003  0.00  0.00    -0.200 OA
ATOM     20  O   UNL d   1      52.160  33.079  52.470  0.00  0.00    -0.200 OA
BRANCH  18  21
ATOM     21  N   UNL d   1      52.792  33.034  53.460  0.00  0.00    -0.229 N 
ATOM     22  C   UNL d   1      52.963  32.236  53.185  0.00  0.00     0.092 A 
ATOM     23  C   UNL d   1      53.671  31.872  53.400  0.00  0.00     0.020 A 
ATOM     24  C   UNL d   1      54.224  32.297  53.894  0.00  0.00     0.003 A 
ATOM     25  C   UNL d   1      54.053  33.057  54.152  0.00  0.00     0.020 A 
ATOM     26  C   UNL d   1      53.335  33.427  53.934  0.00  0.00     0.092 A 
ENDBRANCH  18  21
ENDBRANCH   1  18
TORSDOF 5
ENDMDL
