MODEL 1
REMARK VINA RESULT:      -3.8      0.000      0.000
REMARK  7 active torsions:
REMARK  status: ('A' for Active; 'I' for Inactive)
REMARK    1  A    between atoms: C_2  and  S_1 
REMARK    2  A    between atoms: N_3  and  S_1 
REMARK    3  A    between atoms: C_16  and  N_3 
REMARK    4  A    between atoms: C_4  and  C_8 
REMARK       I    between atoms: N_5  and  C_4 
REMARK    5  A    between atoms: C_17  and  N_5 
REMARK    6  A    between atoms: C_20  and  C_16 
REMARK    7  A    between atoms: C_18  and  C_17 
ROOT
ATOM      1  C   UNL d   1      32.720  18.079 -23.222  0.00  0.00     0.058 A 
ATOM      2  C   UNL d   1      33.074  18.129 -22.477  0.00  0.00     0.005 A 
ATOM      3  C   UNL d   1      32.512  18.770 -23.621  0.00  0.00     0.005 A 
ATOM      4  C   UNL d   1      33.012  19.556 -22.533  0.00  0.00     0.020 A 
ATOM      5  C   UNL d   1      33.220  18.865 -22.133  0.00  0.00     0.002 A 
ATOM      6  C   UNL d   1      32.661  19.513 -23.272  0.00  0.00     0.002 A 
ENDROOT
BRANCH   4   7
ATOM      7  C   UNL d   1      33.160  20.286 -22.187  0.00  0.00     0.112 C 
BRANCH   7   8
ATOM      8  N   UNL d   1      32.534  20.755 -21.939  0.00  0.00    -0.157 NA
BRANCH   8   9
ATOM      9  S   UNL d   1      32.671  21.447 -21.504  0.00  0.00     0.285 S 
ATOM     10  O   UNL d   1      33.241  21.678 -22.048  0.00  0.00    -0.198 OA
ATOM     11  O   UNL d   1      32.100  21.212 -20.962  0.00  0.00    -0.198 OA
BRANCH   9  12
ATOM     12  C   UNL d   1      32.802  22.134 -21.064  0.00  0.00     0.105 A 
ATOM     13  C   UNL d   1      32.779  22.868 -21.429  0.00  0.00     0.012 A 
ATOM     14  C   UNL d   1      32.909  23.549 -20.989  0.00  0.00     0.001 A 
ATOM     15  C   UNL d   1      32.622  22.909 -22.248  0.00  0.00     0.001 C 
ATOM     16  C   UNL d   1      33.064  23.500 -20.176  0.00  0.00     0.000 A 
ATOM     17  C   UNL d   1      33.086  22.757 -19.813  0.00  0.00     0.001 A 
ATOM     18  C   UNL d   1      32.955  22.073 -20.256  0.00  0.00     0.013 A 
ATOM     19  C   UNL d   1      33.241  22.709 -19.000  0.00  0.00     0.000 C 
ENDBRANCH   9  12
ENDBRANCH   8   9
ENDBRANCH   7   8
ENDBRANCH   4   7
BRANCH   1  20
ATOM     20  C   UNL d   1      32.574  17.347 -23.564  0.00  0.00     0.279 C 
ATOM     21  N   UNL d   1      31.829  17.011 -23.509  0.00  0.00    -0.205 NA
ATOM     22  O   UNL d   1      33.181  16.953 -23.964  0.00  0.00    -0.265 OA
BRANCH  21  23
ATOM     23  C   UNL d   1      31.679  16.274 -23.853  0.00  0.00     0.121 C 
BRANCH  23  24
ATOM     24  C   UNL d   1      30.901  16.048 -24.000  0.00  0.00     0.101 A 
ATOM     25  N   UNL d   1      30.629  16.023 -24.775  0.00  0.00    -0.242 NA
ATOM     26  C   UNL d   1      29.853  15.797 -24.914  0.00  0.00     0.099 A 
ATOM     27  C   UNL d   1      29.354  15.598 -24.295  0.00  0.00     0.021 A 
ATOM     28  C   UNL d   1      29.641  15.627 -23.518  0.00  0.00     0.003 A 
ATOM     29  C   UNL d   1      30.418  15.854 -23.375  0.00  0.00     0.021 A 
ENDBRANCH  23  24
ENDBRANCH  21  23
ENDBRANCH   1  20
TORSDOF 7
ENDMDL
MODEL 2
REMARK VINA RESULT:      -2.7      1.900      6.602
REMARK  7 active torsions:
REMARK  status: ('A' for Active; 'I' for Inactive)
REMARK    1  A    between atoms: C_2  and  S_1 
REMARK    2  A    between atoms: N_3  and  S_1 
REMARK    3  A    between atoms: C_16  and  N_3 
REMARK    4  A    between atoms: C_4  and  C_8 
REMARK       I    between atoms: N_5  and  C_4 
REMARK    5  A    between atoms: C_17  and  N_5 
REMARK    6  A    between atoms: C_20  and  C_16 
REMARK    7  A    between atoms: C_18  and  C_17 
ROOT
ATOM      1  C   UNL d   1      33.041  22.051 -21.051  0.00  0.00     0.058 A 
ATOM      2  C   UNL d   1      32.895  22.028 -21.864  0.00  0.00     0.005 A 
ATOM      3  C   UNL d   1      33.215  21.352 -20.649  0.00  0.00     0.005 A 
ATOM      4  C   UNL d   1      33.095  20.613 -21.871  0.00  0.00     0.020 A 
ATOM      5  C   UNL d   1      32.921  21.312 -22.273  0.00  0.00     0.002 A 
ATOM      6  C   UNL d   1      33.241  20.629 -21.065  0.00  0.00     0.002 A 
ENDROOT
BRANCH   4   7
ATOM      7  C   UNL d   1      33.120  19.903 -22.282  0.00  0.00     0.112 C 
BRANCH   7   8
ATOM      8  N   UNL d   1      32.484  19.678 -22.749  0.00  0.00    -0.157 NA
BRANCH   8   9
ATOM      9  S   UNL d   1      32.488  18.949 -23.144  0.00  0.00     0.285 S 
ATOM     10  O   UNL d   1      33.148  19.182 -23.571  0.00  0.00    -0.198 OA
ATOM     11  O   UNL d   1      31.826  18.719 -22.714  0.00  0.00    -0.198 OA
BRANCH   9  12
ATOM     12  C   UNL d   1      32.484  18.220 -23.533  0.00  0.00     0.105 A 
ATOM     13  C   UNL d   1      32.201  18.164 -24.300  0.00  0.00     0.012 A 
ATOM     14  C   UNL d   1      32.198  17.438 -24.684  0.00  0.00     0.001 A 
ATOM     15  C   UNL d   1      31.918  18.851 -24.680  0.00  0.00     0.001 C 
ATOM     16  C   UNL d   1      32.480  16.759 -24.300  0.00  0.00     0.000 A 
ATOM     17  C   UNL d   1      32.764  16.822 -23.526  0.00  0.00     0.001 A 
ATOM     18  C   UNL d   1      32.767  17.551 -23.141  0.00  0.00     0.013 A 
ATOM     19  C   UNL d   1      33.046  16.143 -23.143  0.00  0.00     0.000 C 
ENDBRANCH   9  12
ENDBRANCH   8   9
ENDBRANCH   7   8
ENDBRANCH   4   7
BRANCH   1  20
ATOM     20  C   UNL d   1      33.015  22.763 -20.643  0.00  0.00     0.279 C 
ATOM     21  N   UNL d   1      32.813  22.773 -19.850  0.00  0.00    -0.205 NA
ATOM     22  O   UNL d   1      33.194  23.468 -21.037  0.00  0.00    -0.265 OA
BRANCH  21  23
ATOM     23  C   UNL d   1      32.785  23.488 -19.437  0.00  0.00     0.121 C 
BRANCH  23  24
ATOM     24  C   UNL d   1      32.627  23.482 -18.628  0.00  0.00     0.101 A 
ATOM     25  N   UNL d   1      33.240  23.345 -18.099  0.00  0.00    -0.242 NA
ATOM     26  C   UNL d   1      33.076  23.340 -17.296  0.00  0.00     0.099 A 
ATOM     27  C   UNL d   1      32.315  23.469 -17.020  0.00  0.00     0.021 A 
ATOM     28  C   UNL d   1      31.705  23.605 -17.564  0.00  0.00     0.003 A 
ATOM     29  C   UNL d   1      31.867  23.611 -18.371  0.00  0.00     0.021 A 
ENDBRANCH  23  24
ENDBRANCH  21  23
ENDBRANCH   1  20
TORSDOF 7
ENDMDL
