MODEL 1
REMARK VINA RESULT:      77.8      0.000      0.000
REMARK  10 active torsions:
REMARK  status: ('A' for Active; 'I' for Inactive)
REMARK    1  A    between atoms: C_11  and  S_1 
REMARK    2  A    between atoms: N_12  and  S_1 
REMARK    3  A    between atoms: C_2  and  O_7 
REMARK    4  A    between atoms: C_3  and  S_18 
REMARK    5  A    between atoms: C_6  and  C_17 
REMARK    6  A    between atoms: O_7  and  C_6 
REMARK    7  A    between atoms: C_29  and  N_12 
REMARK    8  A    between atoms: C_30  and  N_12 
REMARK    9  A    between atoms: C_28  and  C_14 
REMARK   10  A    between atoms: S_18  and  C_28 
ROOT
ATOM      1  C   UNL d   1     -55.153-100.835 -45.206  0.00  0.00     0.167 A 
ATOM      2  C   UNL d   1     -55.460-100.356 -45.812  0.00  0.00     0.222 A 
ATOM      3  C   UNL d   1     -55.872 -99.667 -45.599  0.00  0.00     0.069 A 
ATOM      4  C   UNL d   1     -55.256-100.630 -44.412  0.00  0.00     0.151 A 
ATOM      5  O   UNL d   1     -55.667 -99.945 -44.216  0.00  0.00    -0.302 OA
ATOM      6  C   UNL d   1     -55.975 -99.462 -44.806  0.00  0.00     0.110 A 
ATOM      7  O   UNL d   1     -55.358-100.558 -46.598  0.00  0.00    -0.284 OA
ENDROOT
BRANCH   1   8
ATOM      8  O   UNL d   1     -54.723-101.544 -45.193  0.00  0.00    -0.268 OA
BRANCH   8   9
ATOM      9  C   UNL d   1     -54.987-102.180 -44.740  0.00  0.00     0.300 C 
ATOM     10  O   UNL d   1     -55.264-102.854 -45.118  0.00  0.00    -0.259 OA
BRANCH   9  11
ATOM     11  C   UNL d   1     -54.970-102.135 -43.920  0.00  0.00     0.064 A 
ATOM     12  C   UNL d   1     -54.806-101.419 -43.535  0.00  0.00     0.006 A 
ATOM     13  C   UNL d   1     -54.792-101.384 -42.734  0.00  0.00     0.013 A 
ATOM     14  C   UNL d   1     -54.936-102.042 -42.286  0.00  0.00     0.104 A 
ATOM     15  C   UNL d   1     -55.099-102.754 -42.656  0.00  0.00     0.013 A 
ATOM     16  C   UNL d   1     -55.118-102.808 -43.467  0.00  0.00     0.006 A 
BRANCH  14  17
ATOM     17  S   UNL d   1     -54.922-102.006 -41.455  0.00  0.00     0.271 S 
ATOM     18  O   UNL d   1     -55.071-102.806 -41.643  0.00  0.00    -0.200 OA
ATOM     19  O   UNL d   1     -54.950-102.203 -40.653  0.00  0.00    -0.200 OA
BRANCH  17  20
ATOM     20  N   UNL d   1     -54.788-101.298 -41.069  0.00  0.00    -0.229 N 
BRANCH  20  21
ATOM     21  C   UNL d   1     -54.722-100.608 -41.498  0.00  0.00     0.092 C 
ATOM     22  C   UNL d   1     -55.391-100.146 -41.654  0.00  0.00     0.021 C 
ENDBRANCH  20  21
BRANCH  20  23
ATOM     23  C   UNL d   1     -54.719-101.281 -40.247  0.00  0.00     0.092 C 
ATOM     24  C   UNL d   1     -54.748-100.570 -39.845  0.00  0.00     0.021 C 
ENDBRANCH  20  23
ENDBRANCH  17  20
ENDBRANCH  14  17
ENDBRANCH   9  11
ENDBRANCH   8   9
ENDBRANCH   1   8
BRANCH   6  25
ATOM     25  C   UNL d   1     -56.386 -98.776 -44.606  0.00  0.00     0.063 C 
BRANCH  25  26
ATOM     26  S   UNL d   1     -57.060 -98.785 -45.088  0.00  0.00    -0.046 SA
BRANCH  26  27
ATOM     27  C   UNL d   1     -57.802 -98.892 -44.757  0.00  0.00     0.194 A 
ATOM     28  N   UNL d   1     -57.873 -99.017 -43.946  0.00  0.00    -0.221 NA
ATOM     29  C   UNL d   1     -58.609 -99.124 -43.614  0.00  0.00     0.085 A 
ATOM     30  C   UNL d   1     -58.679 -99.249 -42.804  0.00  0.00     0.021 C 
ATOM     31  C   UNL d   1     -59.287 -99.108 -44.089  0.00  0.00     0.038 A 
ATOM     32  C   UNL d   1     -59.203 -98.982 -44.901  0.00  0.00     0.085 A 
ATOM     33  N   UNL d   1     -58.461 -98.875 -45.227  0.00  0.00    -0.221 NA
ATOM     34  C   UNL d   1     -59.882 -98.965 -45.376  0.00  0.00     0.021 C 
ENDBRANCH  26  27
ENDBRANCH  25  26
ENDBRANCH   6  25
TORSDOF 10
ENDMDL
