MODEL 1
REMARK VINA RESULT:      53.6      0.000      0.000
REMARK  7 active torsions:
REMARK  status: ('A' for Active; 'I' for Inactive)
REMARK    1  A    between atoms: C_9  and  N_1 
REMARK    2  A    between atoms: O_18  and  C_6 
REMARK    3  A    between atoms: C_7  and  C_8 
REMARK    4  A    between atoms: C_8  and  O_12 
REMARK    5  A    between atoms: O_12  and  C_9 
REMARK    6  A    between atoms: O_20  and  C_10 
REMARK    7  A    between atoms: O_19  and  C_11 
ROOT
ATOM      1  C   UNL d   1      13.971  15.147  -4.030  0.00  0.00     0.302 C 
ATOM      2  O   UNL d   1      14.396  15.589  -3.475  0.00  0.00    -0.259 OA
ENDROOT
BRANCH   1   3
ATOM      3  C   UNL d   1      13.761  14.366  -3.863  0.00  0.00     0.068 A 
ATOM      4  C   UNL d   1      13.387  13.900  -4.458  0.00  0.00     0.032 A 
ATOM      5  C   UNL d   1      13.186  13.130  -4.275  0.00  0.00     0.118 A 
ATOM      6  C   UNL d   1      13.339  12.807  -3.534  0.00  0.00     0.138 A 
ATOM      7  C   UNL d   1      13.705  13.273  -2.961  0.00  0.00     0.118 A 
ATOM      8  C   UNL d   1      13.914  14.050  -3.128  0.00  0.00     0.032 A 
BRANCH   5   9
ATOM      9  O   UNL d   1      12.813  12.656  -4.860  0.00  0.00    -0.326 OA
ATOM     10  C   UNL d   1      13.248  12.400  -5.515  0.00  0.00     0.181 C 
ENDBRANCH   5   9
BRANCH   6  11
ATOM     11  O   UNL d   1      13.124  12.019  -3.370  0.00  0.00    -0.324 OA
ATOM     12  C   UNL d   1      12.895  11.786  -2.617  0.00  0.00     0.182 C 
ENDBRANCH   6  11
BRANCH   7  13
ATOM     13  O   UNL d   1      13.861  12.949  -2.206  0.00  0.00    -0.326 OA
ATOM     14  C   UNL d   1      14.606  13.002  -1.876  0.00  0.00     0.181 C 
ENDBRANCH   7  13
ENDBRANCH   1   3
BRANCH   1  15
ATOM     15  O   UNL d   1      13.757  15.485  -4.752  0.00  0.00    -0.251 OA
BRANCH  15  16
ATOM     16  C   UNL d   1      14.297  15.959  -5.160  0.00  0.00     0.233 C 
BRANCH  16  17
ATOM     17  N   UNL d   1      14.057  16.692  -5.464  0.00  0.00    -0.150 N 
ATOM     18  N   UNL d   1      13.400  16.736  -5.965  0.00  0.00    -0.055 NA
ATOM     19  N   UNL d   1      13.164  17.466  -6.266  0.00  0.00    -0.130 NA
ATOM     20  C   UNL d   1      13.577  18.146  -6.071  0.00  0.00     0.109 A 
ATOM     21  C   UNL d   1      14.234  18.102  -5.571  0.00  0.00     0.077 A 
ATOM     22  C   UNL d   1      13.341  18.875  -6.372  0.00  0.00     0.021 A 
ATOM     23  C   UNL d   1      14.484  17.376  -5.260  0.00  0.00     0.285 A 
ATOM     24  C   UNL d   1      14.652  18.786  -5.373  0.00  0.00     0.006 A 
ATOM     25  O   UNL d   1      15.135  17.332  -4.764  0.00  0.00    -0.265 OA
ATOM     26  C   UNL d   1      14.415  19.514  -5.675  0.00  0.00     0.000 A 
ATOM     27  C   UNL d   1      13.755  19.559  -6.177  0.00  0.00     0.002 A 
ENDBRANCH  16  17
ENDBRANCH  15  16
ENDBRANCH   1  15
TORSDOF 7
ENDMDL
MODEL 2
REMARK VINA RESULT:      53.7      2.983      4.261
REMARK  7 active torsions:
REMARK  status: ('A' for Active; 'I' for Inactive)
REMARK    1  A    between atoms: C_9  and  N_1 
REMARK    2  A    between atoms: O_18  and  C_6 
REMARK    3  A    between atoms: C_7  and  C_8 
REMARK    4  A    between atoms: C_8  and  O_12 
REMARK    5  A    between atoms: O_12  and  C_9 
REMARK    6  A    between atoms: O_20  and  C_10 
REMARK    7  A    between atoms: O_19  and  C_11 
ROOT
ATOM      1  C   UNL d   1      13.930  12.570  -2.207  0.00  0.00     0.302 C 
ATOM      2  O   UNL d   1      14.004  11.780  -1.972  0.00  0.00    -0.259 OA
ENDROOT
BRANCH   1   3
ATOM      3  C   UNL d   1      13.643  12.753  -2.960  0.00  0.00     0.068 A 
ATOM      4  C   UNL d   1      13.356  13.529  -3.118  0.00  0.00     0.032 A 
ATOM      5  C   UNL d   1      13.077  13.692  -3.868  0.00  0.00     0.118 A 
ATOM      6  C   UNL d   1      13.070  13.121  -4.461  0.00  0.00     0.138 A 
ATOM      7  C   UNL d   1      13.353  12.365  -4.293  0.00  0.00     0.118 A 
ATOM      8  C   UNL d   1      13.638  12.185  -3.544  0.00  0.00     0.032 A 
BRANCH   5   9
ATOM      9  O   UNL d   1      12.788  14.463  -4.037  0.00  0.00    -0.326 OA
ATOM     10  C   UNL d   1      13.324  15.085  -4.138  0.00  0.00     0.181 C 
ENDBRANCH   5   9
BRANCH   6  11
ATOM     11  O   UNL d   1      12.780  13.310  -5.218  0.00  0.00    -0.324 OA
ATOM     12  C   UNL d   1      12.789  14.081  -5.500  0.00  0.00     0.182 C 
ENDBRANCH   6  11
BRANCH   7  13
ATOM     13  O   UNL d   1      13.348  11.782  -4.892  0.00  0.00    -0.326 OA
ATOM     14  C   UNL d   1      13.908  11.790  -5.486  0.00  0.00     0.181 C 
ENDBRANCH   7  13
ENDBRANCH   1   3
BRANCH   1  15
ATOM     15  O   UNL d   1      14.141  13.177  -1.689  0.00  0.00    -0.251 OA
BRANCH  15  16
ATOM     16  C   UNL d   1      14.913  13.472  -1.695  0.00  0.00     0.233 C 
BRANCH  16  17
ATOM     17  N   UNL d   1      15.097  14.161  -1.273  0.00  0.00    -0.150 N 
ATOM     18  N   UNL d   1      15.364  14.109  -0.492  0.00  0.00    -0.055 NA
ATOM     19  N   UNL d   1      15.545  14.796  -0.076  0.00  0.00    -0.130 NA
ATOM     20  C   UNL d   1      15.463  15.529  -0.431  0.00  0.00     0.109 A 
ATOM     21  C   UNL d   1      15.196  15.581  -1.212  0.00  0.00     0.077 A 
ATOM     22  C   UNL d   1      15.644  16.215  -0.014  0.00  0.00     0.021 A 
ATOM     23  C   UNL d   1      15.009  14.901  -1.645  0.00  0.00     0.285 A 
ATOM     24  C   UNL d   1      15.111  16.319  -1.573  0.00  0.00     0.006 A 
ATOM     25  O   UNL d   1      14.745  14.952  -2.419  0.00  0.00    -0.265 OA
ATOM     26  C   UNL d   1      15.293  17.005  -1.155  0.00  0.00     0.000 A 
ATOM     27  C   UNL d   1      15.561  16.952  -0.370  0.00  0.00     0.002 A 
ENDBRANCH  16  17
ENDBRANCH  15  16
ENDBRANCH   1  15
TORSDOF 7
ENDMDL
MODEL 3
REMARK VINA RESULT:      53.7      2.197      5.330
REMARK  7 active torsions:
REMARK  status: ('A' for Active; 'I' for Inactive)
REMARK    1  A    between atoms: C_9  and  N_1 
REMARK    2  A    between atoms: O_18  and  C_6 
REMARK    3  A    between atoms: C_7  and  C_8 
REMARK    4  A    between atoms: C_8  and  O_12 
REMARK    5  A    between atoms: O_12  and  C_9 
REMARK    6  A    between atoms: O_20  and  C_10 
REMARK    7  A    between atoms: O_19  and  C_11 
ROOT
ATOM      1  C   UNL d   1      13.269  14.277  -4.344  0.00  0.00     0.302 C 
ATOM      2  O   UNL d   1      12.775  13.910  -4.896  0.00  0.00    -0.259 OA
ENDROOT
BRANCH   1   3
ATOM      3  C   UNL d   1      13.650  14.985  -4.534  0.00  0.00     0.068 A 
ATOM      4  C   UNL d   1      13.472  15.369  -5.263  0.00  0.00     0.032 A 
ATOM      5  C   UNL d   1      13.859  16.068  -5.435  0.00  0.00     0.118 A 
ATOM      6  C   UNL d   1      14.408  16.397  -4.918  0.00  0.00     0.138 A 
ATOM      7  C   UNL d   1      14.572  16.011  -4.208  0.00  0.00     0.118 A 
ATOM      8  C   UNL d   1      14.193  15.307  -4.020  0.00  0.00     0.032 A 
BRANCH   5   9
ATOM      9  O   UNL d   1      13.690  16.460  -6.159  0.00  0.00    -0.326 OA
ATOM     10  C   UNL d   1      13.096  17.035  -6.182  0.00  0.00     0.181 C 
ENDBRANCH   5   9
BRANCH   6  11
ATOM     11  O   UNL d   1      14.789  17.110  -5.114  0.00  0.00    -0.324 OA
ATOM     12  C   UNL d   1      15.585  17.228  -4.954  0.00  0.00     0.182 C 
ENDBRANCH   6  11
BRANCH   7  13
ATOM     13  O   UNL d   1      15.130  16.343  -3.680  0.00  0.00    -0.326 OA
ATOM     14  C   UNL d   1      14.884  16.741  -3.011  0.00  0.00     0.181 C 
ENDBRANCH   7  13
ENDBRANCH   1   3
BRANCH   1  15
ATOM     15  O   UNL d   1      13.382  13.937  -3.600  0.00  0.00    -0.251 OA
BRANCH  15  16
ATOM     16  C   UNL d   1      13.814  13.236  -3.530  0.00  0.00     0.233 C 
BRANCH  16  17
ATOM     17  N   UNL d   1      13.893  12.871  -2.791  0.00  0.00    -0.150 N 
ATOM     18  N   UNL d   1      13.475  12.177  -2.625  0.00  0.00    -0.055 NA
ATOM     19  N   UNL d   1      13.556  11.816  -1.889  0.00  0.00    -0.130 NA
ATOM     20  C   UNL d   1      14.049  12.142  -1.321  0.00  0.00     0.109 A 
ATOM     21  C   UNL d   1      14.468  12.836  -1.487  0.00  0.00     0.077 A 
ATOM     22  C   UNL d   1      14.130  11.781  -0.586  0.00  0.00     0.021 A 
ATOM     23  C   UNL d   1      14.397  13.210  -2.222  0.00  0.00     0.285 A 
ATOM     24  C   UNL d   1      14.965  13.165  -0.916  0.00  0.00     0.006 A 
ATOM     25  O   UNL d   1      14.811  13.898  -2.386  0.00  0.00    -0.265 OA
ATOM     26  C   UNL d   1      15.045  12.804  -0.181  0.00  0.00     0.000 A 
ATOM     27  C   UNL d   1      14.625  12.107  -0.015  0.00  0.00     0.002 A 
ENDBRANCH  16  17
ENDBRANCH  15  16
ENDBRANCH   1  15
TORSDOF 7
ENDMDL
MODEL 4
REMARK VINA RESULT:      55.3      2.675      5.628
REMARK  7 active torsions:
REMARK  status: ('A' for Active; 'I' for Inactive)
REMARK    1  A    between atoms: C_9  and  N_1 
REMARK    2  A    between atoms: O_18  and  C_6 
REMARK    3  A    between atoms: C_7  and  C_8 
REMARK    4  A    between atoms: C_8  and  O_12 
REMARK    5  A    between atoms: O_12  and  C_9 
REMARK    6  A    between atoms: O_20  and  C_10 
REMARK    7  A    between atoms: O_19  and  C_11 
ROOT
ATOM      1  C   UNL d   1      15.025  16.477  -1.699  0.00  0.00     0.302 C 
ATOM      2  O   UNL d   1      15.366  17.160  -1.381  0.00  0.00    -0.259 OA
ENDROOT
BRANCH   1   3
ATOM      3  C   UNL d   1      14.902  16.416  -2.514  0.00  0.00     0.068 A 
ATOM      4  C   UNL d   1      15.377  16.871  -3.041  0.00  0.00     0.032 A 
ATOM      5  C   UNL d   1      15.242  16.798  -3.843  0.00  0.00     0.118 A 
ATOM      6  C   UNL d   1      14.660  16.297  -4.140  0.00  0.00     0.138 A 
ATOM      7  C   UNL d   1      14.202  15.858  -3.614  0.00  0.00     0.118 A 
ATOM      8  C   UNL d   1      14.325  15.919  -2.804  0.00  0.00     0.032 A 
BRANCH   5   9
ATOM      9  O   UNL d   1      15.709  17.246  -4.378  0.00  0.00    -0.326 OA
ATOM     10  C   UNL d   1      16.395  16.912  -4.699  0.00  0.00     0.181 C 
ENDBRANCH   5   9
BRANCH   6  11
ATOM     11  O   UNL d   1      14.540  16.239  -4.962  0.00  0.00    -0.324 OA
ATOM     12  C   UNL d   1      14.615  16.892  -5.453  0.00  0.00     0.182 C 
ENDBRANCH   6  11
BRANCH   7  13
ATOM     13  O   UNL d   1      13.610  15.348  -3.911  0.00  0.00    -0.326 OA
ATOM     14  C   UNL d   1      13.629  14.548  -3.750  0.00  0.00     0.181 C 
ENDBRANCH   7  13
ENDBRANCH   1   3
BRANCH   1  15
ATOM     15  O   UNL d   1      14.805  15.855  -1.203  0.00  0.00    -0.251 OA
BRANCH  15  16
ATOM     16  C   UNL d   1      15.387  15.385  -0.852  0.00  0.00     0.233 C 
BRANCH  16  17
ATOM     17  N   UNL d   1      15.292  14.562  -0.821  0.00  0.00    -0.150 N 
ATOM     18  N   UNL d   1      15.865  14.067  -1.153  0.00  0.00    -0.055 NA
ATOM     19  N   UNL d   1      15.767  13.250  -1.121  0.00  0.00    -0.130 NA
ATOM     20  C   UNL d   1      15.106  12.926  -0.761  0.00  0.00     0.109 A 
ATOM     21  C   UNL d   1      14.533  13.422  -0.428  0.00  0.00     0.077 A 
ATOM     22  C   UNL d   1      15.010  12.110  -0.728  0.00  0.00     0.021 A 
ATOM     23  C   UNL d   1      14.616  14.245  -0.452  0.00  0.00     0.285 A 
ATOM     24  C   UNL d   1      13.867  13.098  -0.065  0.00  0.00     0.006 A 
ATOM     25  O   UNL d   1      14.049  14.736  -0.123  0.00  0.00    -0.265 OA
ATOM     26  C   UNL d   1      13.771  12.281  -0.033  0.00  0.00     0.000 A 
ATOM     27  C   UNL d   1      14.346  11.783  -0.367  0.00  0.00     0.002 A 
ENDBRANCH  16  17
ENDBRANCH  15  16
ENDBRANCH   1  15
TORSDOF 7
ENDMDL
MODEL 5
REMARK VINA RESULT:      56.0      3.450      5.242
REMARK  7 active torsions:
REMARK  status: ('A' for Active; 'I' for Inactive)
REMARK    1  A    between atoms: C_9  and  N_1 
REMARK    2  A    between atoms: O_18  and  C_6 
REMARK    3  A    between atoms: C_7  and  C_8 
REMARK    4  A    between atoms: C_8  and  O_12 
REMARK    5  A    between atoms: O_12  and  C_9 
REMARK    6  A    between atoms: O_20  and  C_10 
REMARK    7  A    between atoms: O_19  and  C_11 
ROOT
ATOM      1  C   UNL d   1      15.322  13.270  -0.750  0.00  0.00     0.302 C 
ATOM      2  O   UNL d   1      15.670  12.785  -0.178  0.00  0.00    -0.259 OA
ENDROOT
BRANCH   1   3
ATOM      3  C   UNL d   1      15.307  14.090  -0.644  0.00  0.00     0.068 A 
ATOM      4  C   UNL d   1      14.586  14.510  -0.755  0.00  0.00     0.032 A 
ATOM      5  C   UNL d   1      14.590  15.320  -0.645  0.00  0.00     0.118 A 
ATOM      6  C   UNL d   1      15.274  15.724  -0.432  0.00  0.00     0.138 A 
ATOM      7  C   UNL d   1      15.974  15.301  -0.327  0.00  0.00     0.118 A 
ATOM      8  C   UNL d   1      15.987  14.486  -0.433  0.00  0.00     0.032 A 
BRANCH   5   9
ATOM      9  O   UNL d   1      13.876  15.749  -0.753  0.00  0.00    -0.326 OA
ATOM     10  C   UNL d   1      13.726  16.113  -1.481  0.00  0.00     0.181 C 
ENDBRANCH   5   9
BRANCH   6  11
ATOM     11  O   UNL d   1      15.254  16.549  -0.326  0.00  0.00    -0.324 OA
ATOM     12  C   UNL d   1      15.819  17.038  -0.667  0.00  0.00     0.182 C 
ENDBRANCH   6  11
BRANCH   7  13
ATOM     13  O   UNL d   1      16.671  15.708  -0.110  0.00  0.00    -0.326 OA
ATOM     14  C   UNL d   1      17.378  15.308  -0.023  0.00  0.00     0.181 C 
ENDBRANCH   7  13
ENDBRANCH   1   3
BRANCH   1  15
ATOM     15  O   UNL d   1      14.989  12.938  -1.428  0.00  0.00    -0.251 OA
BRANCH  15  16
ATOM     16  C   UNL d   1      14.309  13.272  -1.757  0.00  0.00     0.233 C 
BRANCH  16  17
ATOM     17  N   UNL d   1      13.930  12.898  -2.393  0.00  0.00    -0.150 N 
ATOM     18  N   UNL d   1      13.585  12.154  -2.289  0.00  0.00    -0.055 NA
ATOM     19  N   UNL d   1      13.210  11.785  -2.922  0.00  0.00    -0.130 NA
ATOM     20  C   UNL d   1      13.178  12.151  -3.654  0.00  0.00     0.109 A 
ATOM     21  C   UNL d   1      13.523  12.895  -3.759  0.00  0.00     0.077 A 
ATOM     22  C   UNL d   1      12.803  11.782  -4.287  0.00  0.00     0.021 A 
ATOM     23  C   UNL d   1      13.904  13.280  -3.132  0.00  0.00     0.285 A 
ATOM     24  C   UNL d   1      13.492  13.266  -4.495  0.00  0.00     0.006 A 
ATOM     25  O   UNL d   1      14.246  14.017  -3.236  0.00  0.00    -0.265 OA
ATOM     26  C   UNL d   1      13.117  12.896  -5.128  0.00  0.00     0.000 A 
ATOM     27  C   UNL d   1      12.770  12.149  -5.023  0.00  0.00     0.002 A 
ENDBRANCH  16  17
ENDBRANCH  15  16
ENDBRANCH   1  15
TORSDOF 7
ENDMDL
MODEL 6
REMARK VINA RESULT:      56.6      1.463      2.506
REMARK  7 active torsions:
REMARK  status: ('A' for Active; 'I' for Inactive)
REMARK    1  A    between atoms: C_9  and  N_1 
REMARK    2  A    between atoms: O_18  and  C_6 
REMARK    3  A    between atoms: C_7  and  C_8 
REMARK    4  A    between atoms: C_8  and  O_12 
REMARK    5  A    between atoms: O_12  and  C_9 
REMARK    6  A    between atoms: O_20  and  C_10 
REMARK    7  A    between atoms: O_19  and  C_11 
ROOT
ATOM      1  C   UNL d   1      14.087  13.843  -3.195  0.00  0.00     0.302 C 
ATOM      2  O   UNL d   1      13.785  13.362  -3.796  0.00  0.00    -0.259 OA
ENDROOT
BRANCH   1   3
ATOM      3  C   UNL d   1      14.229  13.527  -2.444  0.00  0.00     0.068 A 
ATOM      4  C   UNL d   1      13.864  12.800  -2.223  0.00  0.00     0.032 A 
ATOM      5  C   UNL d   1      14.016  12.504  -1.477  0.00  0.00     0.118 A 
ATOM      6  C   UNL d   1      14.509  12.896  -0.948  0.00  0.00     0.138 A 
ATOM      7  C   UNL d   1      14.860  13.606  -1.176  0.00  0.00     0.118 A 
ATOM      8  C   UNL d   1      14.718  13.918  -1.922  0.00  0.00     0.032 A 
BRANCH   5   9
ATOM      9  O   UNL d   1      13.658  11.780  -1.246  0.00  0.00    -0.326 OA
ATOM     10  C   UNL d   1      12.950  11.793  -0.819  0.00  0.00     0.181 C 
ENDBRANCH   5   9
BRANCH   6  11
ATOM     11  O   UNL d   1      14.649  12.574  -0.192  0.00  0.00    -0.324 OA
ATOM     12  C   UNL d   1      15.193  11.970  -0.079  0.00  0.00     0.182 C 
ENDBRANCH   6  11
BRANCH   7  13
ATOM     13  O   UNL d   1      15.361  14.007  -0.641  0.00  0.00    -0.326 OA
ATOM     14  C   UNL d   1      15.208  14.779  -0.425  0.00  0.00     0.181 C 
ENDBRANCH   7  13
ENDBRANCH   1   3
BRANCH   1  15
ATOM     15  O   UNL d   1      14.248  14.638  -3.342  0.00  0.00    -0.251 OA
BRANCH  15  16
ATOM     16  C   UNL d   1      14.458  14.881  -4.104  0.00  0.00     0.233 C 
BRANCH  16  17
ATOM     17  N   UNL d   1      14.626  15.679  -4.253  0.00  0.00    -0.150 N 
ATOM     18  N   UNL d   1      15.147  16.090  -3.760  0.00  0.00    -0.055 NA
ATOM     19  N   UNL d   1      15.313  16.883  -3.911  0.00  0.00    -0.130 NA
ATOM     20  C   UNL d   1      14.963  17.265  -4.546  0.00  0.00     0.109 A 
ATOM     21  C   UNL d   1      14.442  16.853  -5.038  0.00  0.00     0.077 A 
ATOM     22  C   UNL d   1      15.128  18.057  -4.695  0.00  0.00     0.021 A 
ATOM     23  C   UNL d   1      14.265  16.056  -4.901  0.00  0.00     0.285 A 
ATOM     24  C   UNL d   1      14.088  17.236  -5.679  0.00  0.00     0.006 A 
ATOM     25  O   UNL d   1      13.749  15.649  -5.389  0.00  0.00    -0.265 OA
ATOM     26  C   UNL d   1      14.254  18.028  -5.828  0.00  0.00     0.000 A 
ATOM     27  C   UNL d   1      14.778  18.442  -5.333  0.00  0.00     0.002 A 
ENDBRANCH  16  17
ENDBRANCH  15  16
ENDBRANCH   1  15
TORSDOF 7
ENDMDL
