MODEL 1
REMARK VINA RESULT:      -7.9      0.000      0.000
REMARK  5 active torsions:
REMARK  status: ('A' for Active; 'I' for Inactive)
REMARK    1  A    between atoms: C_2  and  N_8 
REMARK    2  A    between atoms: C_14  and  C_4 
REMARK    3  A    between atoms: S_13  and  C_5 
REMARK       I    between atoms: N_8  and  C_11 
REMARK    4  A    between atoms: C_11  and  C_17 
REMARK    5  A    between atoms: C_17  and  S_13 
ROOT
ATOM      1  O   UNL d   1     -48.746  12.041  22.859  0.00  0.00    -0.263 OA
ATOM      2  N   UNL d   1     -49.758  11.419  23.467  0.00  0.00    -0.120 NA
ATOM      3  C   UNL d   1     -49.572  12.028  22.954  0.00  0.00     0.205 A 
ATOM      4  C   UNL d   1     -48.434  11.431  23.322  0.00  0.00     0.236 A 
ATOM      5  N   UNL d   1     -49.055  11.048  23.697  0.00  0.00    -0.114 NA
ENDROOT
BRANCH   4   6
ATOM      6  S   UNL d   1     -47.626  11.230  23.403  0.00  0.00    -0.036 SA
BRANCH   6   7
ATOM      7  C   UNL d   1     -47.045  11.815  23.342  0.00  0.00     0.101 C 
BRANCH   7   8
ATOM      8  C   UNL d   1     -46.251  11.612  23.428  0.00  0.00     0.288 C 
ATOM      9  N   UNL d   1     -45.659  12.158  23.248  0.00  0.00    -0.182 NA
ATOM     10  O   UNL d   1     -46.039  10.853  23.698  0.00  0.00    -0.265 OA
BRANCH   9  11
ATOM     11  C   UNL d   1     -45.865  12.904  22.983  0.00  0.00     0.197 A 
ATOM     12  N   UNL d   1     -46.316  13.513  23.333  0.00  0.00    -0.221 NA
ATOM     13  C   UNL d   1     -46.334  14.136  22.802  0.00  0.00     0.090 A 
ATOM     14  C   UNL d   1     -46.727  14.868  22.925  0.00  0.00     0.021 C 
ATOM     15  C   UNL d   1     -45.910  13.932  22.137  0.00  0.00     0.058 A 
ATOM     16  S   UNL d   1     -45.621  13.172  22.248  0.00  0.00    -0.046 SA
ENDBRANCH   9  11
ENDBRANCH   7   8
ENDBRANCH   6   7
ENDBRANCH   4   6
BRANCH   3  17
ATOM     17  C   UNL d   1     -50.069  12.566  22.567  0.00  0.00     0.046 A 
ATOM     18  C   UNL d   1     -50.155  12.545  21.747  0.00  0.00     0.024 A 
ATOM     19  C   UNL d   1     -50.649  13.082  21.366  0.00  0.00     0.099 A 
ATOM     20  N   UNL d   1     -51.064  13.649  21.809  0.00  0.00    -0.242 NA
ATOM     21  C   UNL d   1     -50.975  13.666  22.630  0.00  0.00     0.099 A 
ATOM     22  C   UNL d   1     -50.478  13.126  23.007  0.00  0.00     0.024 A 
ENDBRANCH   3  17
TORSDOF 5
ENDMDL
MODEL 2
REMARK VINA RESULT:      -7.7      1.558      4.015
REMARK  5 active torsions:
REMARK  status: ('A' for Active; 'I' for Inactive)
REMARK    1  A    between atoms: C_2  and  N_8 
REMARK    2  A    between atoms: C_14  and  C_4 
REMARK    3  A    between atoms: S_13  and  C_5 
REMARK       I    between atoms: N_8  and  C_11 
REMARK    4  A    between atoms: C_11  and  C_17 
REMARK    5  A    between atoms: C_17  and  S_13 
ROOT
ATOM      1  O   UNL d   1     -47.949  12.509  22.986  0.00  0.00    -0.263 OA
ATOM      2  N   UNL d   1     -47.040  11.747  23.597  0.00  0.00    -0.120 NA
ATOM      3  C   UNL d   1     -47.139  12.432  23.162  0.00  0.00     0.205 A 
ATOM      4  C   UNL d   1     -48.337  11.862  23.321  0.00  0.00     0.236 A 
ATOM      5  N   UNL d   1     -47.780  11.392  23.698  0.00  0.00    -0.114 NA
ENDROOT
BRANCH   4   6
ATOM      6  S   UNL d   1     -49.158  11.702  23.289  0.00  0.00    -0.036 SA
BRANCH   6   7
ATOM      7  C   UNL d   1     -49.701  12.324  23.260  0.00  0.00     0.101 C 
BRANCH   7   8
ATOM      8  C   UNL d   1     -50.501  12.173  23.387  0.00  0.00     0.288 C 
ATOM      9  N   UNL d   1     -51.050  12.790  23.366  0.00  0.00    -0.182 NA
ATOM     10  O   UNL d   1     -50.763  11.398  23.539  0.00  0.00    -0.265 OA
BRANCH   9  11
ATOM     11  C   UNL d   1     -50.795  13.553  23.217  0.00  0.00     0.197 A 
ATOM     12  N   UNL d   1     -50.356  14.091  23.680  0.00  0.00    -0.221 NA
ATOM     13  C   UNL d   1     -50.268  14.775  23.237  0.00  0.00     0.090 A 
ATOM     14  C   UNL d   1     -49.862  15.466  23.486  0.00  0.00     0.021 C 
ATOM     15  C   UNL d   1     -50.637  14.675  22.518  0.00  0.00     0.058 A 
ATOM     16  S   UNL d   1     -50.962  13.922  22.505  0.00  0.00    -0.046 SA
ENDBRANCH   9  11
ENDBRANCH   7   8
ENDBRANCH   6   7
ENDBRANCH   4   6
BRANCH   3  17
ATOM     17  C   UNL d   1     -46.579  12.987  22.911  0.00  0.00     0.046 A 
ATOM     18  C   UNL d   1     -46.626  13.774  23.155  0.00  0.00     0.024 A 
ATOM     19  C   UNL d   1     -46.068  14.324  22.904  0.00  0.00     0.099 A 
ATOM     20  N   UNL d   1     -45.451  14.086  22.400  0.00  0.00    -0.242 NA
ATOM     21  C   UNL d   1     -45.407  13.297  22.158  0.00  0.00     0.099 A 
ATOM     22  C   UNL d   1     -45.970  12.751  22.413  0.00  0.00     0.024 A 
ENDBRANCH   3  17
TORSDOF 5
ENDMDL
MODEL 3
REMARK VINA RESULT:      -7.6      1.866      4.718
REMARK  5 active torsions:
REMARK  status: ('A' for Active; 'I' for Inactive)
REMARK    1  A    between atoms: C_2  and  N_8 
REMARK    2  A    between atoms: C_14  and  C_4 
REMARK    3  A    between atoms: S_13  and  C_5 
REMARK       I    between atoms: N_8  and  C_11 
REMARK    4  A    between atoms: C_11  and  C_17 
REMARK    5  A    between atoms: C_17  and  S_13 
ROOT
ATOM      1  O   UNL d   1     -47.837  14.231  22.708  0.00  0.00    -0.263 OA
ATOM      2  N   UNL d   1     -46.817  15.086  22.619  0.00  0.00    -0.120 NA
ATOM      3  C   UNL d   1     -47.008  14.299  22.726  0.00  0.00     0.205 A 
ATOM      4  C   UNL d   1     -48.144  14.989  22.588  0.00  0.00     0.236 A 
ATOM      5  N   UNL d   1     -47.518  15.516  22.533  0.00  0.00    -0.114 NA
ENDROOT
BRANCH   4   6
ATOM      6  S   UNL d   1     -48.953  15.195  22.531  0.00  0.00    -0.036 SA
BRANCH   6   7
ATOM      7  C   UNL d   1     -49.535  14.614  22.611  0.00  0.00     0.101 C 
BRANCH   7   8
ATOM      8  C   UNL d   1     -50.331  14.826  22.569  0.00  0.00     0.288 C 
ATOM      9  N   UNL d   1     -50.920  14.250  22.636  0.00  0.00    -0.182 NA
ATOM     10  O   UNL d   1     -50.548  15.622  22.460  0.00  0.00    -0.265 OA
BRANCH   9  11
ATOM     11  C   UNL d   1     -50.709  13.468  22.743  0.00  0.00     0.197 A 
ATOM     12  N   UNL d   1     -50.477  13.044  23.424  0.00  0.00    -0.221 NA
ATOM     13  C   UNL d   1     -50.333  12.272  23.190  0.00  0.00     0.090 A 
ATOM     14  C   UNL d   1     -50.086  11.649  23.696  0.00  0.00     0.021 C 
ATOM     15  C   UNL d   1     -50.467  12.206  22.389  0.00  0.00     0.058 A 
ATOM     16  S   UNL d   1     -50.699  12.944  22.113  0.00  0.00    -0.046 SA
ENDBRANCH   9  11
ENDBRANCH   7   8
ENDBRANCH   6   7
ENDBRANCH   4   6
BRANCH   3  17
ATOM     17  C   UNL d   1     -46.514  13.643  22.838  0.00  0.00     0.046 A 
ATOM     18  C   UNL d   1     -46.700  13.067  23.398  0.00  0.00     0.024 A 
ATOM     19  C   UNL d   1     -46.208  12.416  23.507  0.00  0.00     0.099 A 
ATOM     20  N   UNL d   1     -45.518  12.339  23.049  0.00  0.00    -0.242 NA
ATOM     21  C   UNL d   1     -45.336  12.918  22.489  0.00  0.00     0.099 A 
ATOM     22  C   UNL d   1     -45.834  13.568  22.385  0.00  0.00     0.024 A 
ENDBRANCH   3  17
TORSDOF 5
ENDMDL
MODEL 4
REMARK VINA RESULT:      -6.9      1.769      4.662
REMARK  5 active torsions:
REMARK  status: ('A' for Active; 'I' for Inactive)
REMARK    1  A    between atoms: C_2  and  N_8 
REMARK    2  A    between atoms: C_14  and  C_4 
REMARK    3  A    between atoms: S_13  and  C_5 
REMARK       I    between atoms: N_8  and  C_11 
REMARK    4  A    between atoms: C_11  and  C_17 
REMARK    5  A    between atoms: C_17  and  S_13 
ROOT
ATOM      1  O   UNL d   1     -46.022  12.706  23.198  0.00  0.00    -0.263 OA
ATOM      2  N   UNL d   1     -45.078  12.799  22.260  0.00  0.00    -0.120 NA
ATOM      3  C   UNL d   1     -45.367  12.323  22.858  0.00  0.00     0.205 A 
ATOM      4  C   UNL d   1     -46.126  13.421  22.797  0.00  0.00     0.236 A 
ATOM      5  N   UNL d   1     -45.546  13.480  22.220  0.00  0.00    -0.114 NA
ENDROOT
BRANCH   4   6
ATOM      6  S   UNL d   1     -46.717  13.994  22.945  0.00  0.00    -0.036 SA
BRANCH   6   7
ATOM      7  C   UNL d   1     -47.479  13.891  22.644  0.00  0.00     0.101 C 
BRANCH   7   8
ATOM      8  C   UNL d   1     -47.975  14.543  22.556  0.00  0.00     0.288 C 
ATOM      9  N   UNL d   1     -48.781  14.438  22.408  0.00  0.00    -0.182 NA
ATOM     10  O   UNL d   1     -47.668  15.315  22.616  0.00  0.00    -0.265 OA
BRANCH   9  11
ATOM     11  C   UNL d   1     -49.085  13.681  22.348  0.00  0.00     0.197 A 
ATOM     12  N   UNL d   1     -49.264  13.108  22.928  0.00  0.00    -0.221 NA
ATOM     13  C   UNL d   1     -49.556  12.451  22.536  0.00  0.00     0.090 A 
ATOM     14  C   UNL d   1     -49.808  11.739  22.902  0.00  0.00     0.021 C 
ATOM     15  C   UNL d   1     -49.562  12.599  21.735  0.00  0.00     0.058 A 
ATOM     16  S   UNL d   1     -49.271  13.358  21.619  0.00  0.00    -0.046 SA
ENDBRANCH   9  11
ENDBRANCH   7   8
ENDBRANCH   6   7
ENDBRANCH   4   6
BRANCH   3  17
ATOM     17  C   UNL d   1     -45.101  11.585  23.125  0.00  0.00     0.046 A 
ATOM     18  C   UNL d   1     -45.630  11.033  23.434  0.00  0.00     0.024 A 
ATOM     19  C   UNL d   1     -45.362  10.301  23.698  0.00  0.00     0.099 A 
ATOM     20  N   UNL d   1     -44.553  10.115  23.653  0.00  0.00    -0.242 NA
ATOM     21  C   UNL d   1     -44.027  10.671  23.343  0.00  0.00     0.099 A 
ATOM     22  C   UNL d   1     -44.301  11.403  23.080  0.00  0.00     0.024 A 
ENDBRANCH   3  17
TORSDOF 5
ENDMDL
MODEL 5
REMARK VINA RESULT:      -6.7      1.806      2.951
REMARK  5 active torsions:
REMARK  status: ('A' for Active; 'I' for Inactive)
REMARK    1  A    between atoms: C_2  and  N_8 
REMARK    2  A    between atoms: C_14  and  C_4 
REMARK    3  A    between atoms: S_13  and  C_5 
REMARK       I    between atoms: N_8  and  C_11 
REMARK    4  A    between atoms: C_11  and  C_17 
REMARK    5  A    between atoms: C_17  and  S_13 
ROOT
ATOM      1  O   UNL d   1     -48.118  14.651  23.123  0.00  0.00    -0.263 OA
ATOM      2  N   UNL d   1     -48.193  15.549  22.140  0.00  0.00    -0.120 NA
ATOM      3  C   UNL d   1     -48.626  15.172  22.721  0.00  0.00     0.205 A 
ATOM      4  C   UNL d   1     -47.371  14.717  22.776  0.00  0.00     0.236 A 
ATOM      5  N   UNL d   1     -47.415  15.270  22.171  0.00  0.00    -0.114 NA
ENDROOT
BRANCH   4   6
ATOM      6  S   UNL d   1     -46.681  14.298  22.996  0.00  0.00    -0.036 SA
BRANCH   6   7
ATOM      7  C   UNL d   1     -46.688  13.473  23.025  0.00  0.00     0.101 C 
BRANCH   7   8
ATOM      8  C   UNL d   1     -45.976  13.058  23.006  0.00  0.00     0.288 C 
ATOM      9  N   UNL d   1     -45.972  12.234  23.069  0.00  0.00    -0.182 NA
ATOM     10  O   UNL d   1     -45.255  13.465  22.921  0.00  0.00    -0.265 OA
BRANCH   9  11
ATOM     11  C   UNL d   1     -46.680  11.832  23.152  0.00  0.00     0.197 A 
ATOM     12  N   UNL d   1     -47.413  11.914  22.762  0.00  0.00    -0.221 NA
ATOM     13  C   UNL d   1     -47.920  11.354  23.082  0.00  0.00     0.090 A 
ATOM     14  C   UNL d   1     -48.719  11.236  22.854  0.00  0.00     0.021 C 
ATOM     15  C   UNL d   1     -47.523  10.932  23.654  0.00  0.00     0.058 A 
ATOM     16  S   UNL d   1     -46.758  11.227  23.698  0.00  0.00    -0.046 SA
ENDBRANCH   9  11
ENDBRANCH   7   8
ENDBRANCH   6   7
ENDBRANCH   4   6
BRANCH   3  17
ATOM     17  C   UNL d   1     -49.426  15.252  22.923  0.00  0.00     0.046 A 
ATOM     18  C   UNL d   1     -49.995  14.754  22.592  0.00  0.00     0.024 A 
ATOM     19  C   UNL d   1     -50.788  14.835  22.795  0.00  0.00     0.099 A 
ATOM     20  N   UNL d   1     -51.019  15.422  23.336  0.00  0.00    -0.242 NA
ATOM     21  C   UNL d   1     -50.446  15.919  23.664  0.00  0.00     0.099 A 
ATOM     22  C   UNL d   1     -49.652  15.833  23.457  0.00  0.00     0.024 A 
ENDBRANCH   3  17
TORSDOF 5
ENDMDL
MODEL 6
REMARK VINA RESULT:      -6.1      8.720     10.060
REMARK  5 active torsions:
REMARK  status: ('A' for Active; 'I' for Inactive)
REMARK    1  A    between atoms: C_2  and  N_8 
REMARK    2  A    between atoms: C_14  and  C_4 
REMARK    3  A    between atoms: S_13  and  C_5 
REMARK       I    between atoms: N_8  and  C_11 
REMARK    4  A    between atoms: C_11  and  C_17 
REMARK    5  A    between atoms: C_17  and  S_13 
ROOT
ATOM      1  O   UNL d   1     -39.937  15.212  20.244  0.00  0.00    -0.263 OA
ATOM      2  N   UNL d   1     -40.709  14.359  20.920  0.00  0.00    -0.120 NA
ATOM      3  C   UNL d   1     -40.059  14.850  20.983  0.00  0.00     0.205 A 
ATOM      4  C   UNL d   1     -40.523  14.933  19.733  0.00  0.00     0.236 A 
ATOM      5  N   UNL d   1     -40.999  14.408  20.147  0.00  0.00    -0.114 NA
ENDROOT
BRANCH   4   6
ATOM      6  S   UNL d   1     -40.623  15.142  18.929  0.00  0.00    -0.036 SA
BRANCH   6   7
ATOM      7  C   UNL d   1     -40.208  14.737  18.340  0.00  0.00     0.101 C 
BRANCH   7   8
ATOM      8  C   UNL d   1     -40.374  14.888  17.547  0.00  0.00     0.288 C 
ATOM      9  N   UNL d   1     -39.914  14.546  16.952  0.00  0.00    -0.182 NA
ATOM     10  O   UNL d   1     -41.008  15.386  17.338  0.00  0.00    -0.265 OA
BRANCH   9  11
ATOM     11  C   UNL d   1     -39.291  14.057  17.155  0.00  0.00     0.197 A 
ATOM     12  N   UNL d   1     -39.272  13.282  17.465  0.00  0.00    -0.221 NA
ATOM     13  C   UNL d   1     -38.484  13.077  17.556  0.00  0.00     0.090 A 
ATOM     14  C   UNL d   1     -38.204  12.343  17.853  0.00  0.00     0.021 C 
ATOM     15  C   UNL d   1     -38.017  13.699  17.313  0.00  0.00     0.058 A 
ATOM     16  S   UNL d   1     -38.515  14.303  17.066  0.00  0.00    -0.046 SA
ENDBRANCH   9  11
ENDBRANCH   7   8
ENDBRANCH   6   7
ENDBRANCH   4   6
BRANCH   3  17
ATOM     17  C   UNL d   1     -39.570  15.003  21.635  0.00  0.00     0.046 A 
ATOM     18  C   UNL d   1     -39.116  14.401  21.970  0.00  0.00     0.024 A 
ATOM     19  C   UNL d   1     -38.631  14.556  22.617  0.00  0.00     0.099 A 
ATOM     20  N   UNL d   1     -38.599  15.323  22.936  0.00  0.00    -0.242 NA
ATOM     21  C   UNL d   1     -39.056  15.922  22.597  0.00  0.00     0.099 A 
ATOM     22  C   UNL d   1     -39.540  15.761  21.949  0.00  0.00     0.024 A 
ENDBRANCH   3  17
TORSDOF 5
ENDMDL
MODEL 7
REMARK VINA RESULT:      -5.9      1.588      2.596
REMARK  5 active torsions:
REMARK  status: ('A' for Active; 'I' for Inactive)
REMARK    1  A    between atoms: C_2  and  N_8 
REMARK    2  A    between atoms: C_14  and  C_4 
REMARK    3  A    between atoms: S_13  and  C_5 
REMARK       I    between atoms: N_8  and  C_11 
REMARK    4  A    between atoms: C_11  and  C_17 
REMARK    5  A    between atoms: C_17  and  S_13 
ROOT
ATOM      1  O   UNL d   1     -48.846  13.999  22.742  0.00  0.00    -0.263 OA
ATOM      2  N   UNL d   1     -49.880  14.822  22.927  0.00  0.00    -0.120 NA
ATOM      3  C   UNL d   1     -49.667  14.035  22.873  0.00  0.00     0.205 A 
ATOM      4  C   UNL d   1     -48.566  14.776  22.717  0.00  0.00     0.236 A 
ATOM      5  N   UNL d   1     -49.200  15.284  22.831  0.00  0.00    -0.114 NA
ENDROOT
BRANCH   4   6
ATOM      6  S   UNL d   1     -47.773  15.016  22.598  0.00  0.00    -0.036 SA
BRANCH   6   7
ATOM      7  C   UNL d   1     -47.154  14.491  22.750  0.00  0.00     0.101 C 
BRANCH   7   8
ATOM      8  C   UNL d   1     -46.375  14.761  22.727  0.00  0.00     0.288 C 
ATOM      9  N   UNL d   1     -45.747  14.230  22.801  0.00  0.00    -0.182 NA
ATOM     10  O   UNL d   1     -46.215  15.572  22.629  0.00  0.00    -0.265 OA
BRANCH   9  11
ATOM     11  C   UNL d   1     -45.902  13.433  22.896  0.00  0.00     0.197 A 
ATOM     12  N   UNL d   1     -46.359  13.020  23.460  0.00  0.00    -0.221 NA
ATOM     13  C   UNL d   1     -46.308  12.223  23.275  0.00  0.00     0.090 A 
ATOM     14  C   UNL d   1     -46.683  11.602  23.697  0.00  0.00     0.021 C 
ATOM     15  C   UNL d   1     -45.836  12.132  22.618  0.00  0.00     0.058 A 
ATOM     16  S   UNL d   1     -45.586  12.878  22.384  0.00  0.00    -0.046 SA
ENDBRANCH   9  11
ENDBRANCH   7   8
ENDBRANCH   6   7
ENDBRANCH   4   6
BRANCH   3  17
ATOM     17  C   UNL d   1     -50.134  13.354  22.930  0.00  0.00     0.046 A 
ATOM     18  C   UNL d   1     -50.522  13.166  23.633  0.00  0.00     0.024 A 
ATOM     19  C   UNL d   1     -50.986  12.489  23.687  0.00  0.00     0.099 A 
ATOM     20  N   UNL d   1     -51.064  11.988  23.027  0.00  0.00    -0.242 NA
ATOM     21  C   UNL d   1     -50.674  12.179  22.325  0.00  0.00     0.099 A 
ATOM     22  C   UNL d   1     -50.211  12.860  22.278  0.00  0.00     0.024 A 
ENDBRANCH   3  17
TORSDOF 5
ENDMDL
MODEL 8
REMARK VINA RESULT:      -5.2      9.426     10.453
REMARK  5 active torsions:
REMARK  status: ('A' for Active; 'I' for Inactive)
REMARK    1  A    between atoms: C_2  and  N_8 
REMARK    2  A    between atoms: C_14  and  C_4 
REMARK    3  A    between atoms: S_13  and  C_5 
REMARK       I    between atoms: N_8  and  C_11 
REMARK    4  A    between atoms: C_11  and  C_17 
REMARK    5  A    between atoms: C_17  and  S_13 
ROOT
ATOM      1  O   UNL d   1     -38.479  13.654  20.384  0.00  0.00    -0.263 OA
ATOM      2  N   UNL d   1     -37.941  14.867  20.528  0.00  0.00    -0.120 NA
ATOM      3  C   UNL d   1     -38.266  14.238  20.937  0.00  0.00     0.205 A 
ATOM      4  C   UNL d   1     -38.279  13.939  19.635  0.00  0.00     0.236 A 
ATOM      5  N   UNL d   1     -37.948  14.685  19.721  0.00  0.00    -0.114 NA
ENDROOT
BRANCH   4   6
ATOM      6  S   UNL d   1     -38.390  13.544  18.905  0.00  0.00    -0.036 SA
BRANCH   6   7
ATOM      7  C   UNL d   1     -38.990  13.784  18.391  0.00  0.00     0.101 C 
BRANCH   7   8
ATOM      8  C   UNL d   1     -39.184  13.313  17.743  0.00  0.00     0.288 C 
ATOM      9  N   UNL d   1     -39.716  13.586  17.173  0.00  0.00    -0.182 NA
ATOM     10  O   UNL d   1     -38.847  12.557  17.658  0.00  0.00    -0.265 OA
BRANCH   9  11
ATOM     11  C   UNL d   1     -40.048  14.329  17.255  0.00  0.00     0.197 A 
ATOM     12  N   UNL d   1     -40.653  14.614  17.755  0.00  0.00    -0.221 NA
ATOM     13  C   UNL d   1     -40.750  15.410  17.587  0.00  0.00     0.090 A 
ATOM     14  C   UNL d   1     -41.301  15.922  17.960  0.00  0.00     0.021 C 
ATOM     15  C   UNL d   1     -40.226  15.624  17.001  0.00  0.00     0.058 A 
ATOM     16  S   UNL d   1     -39.793  14.957  16.796  0.00  0.00    -0.046 SA
ENDBRANCH   9  11
ENDBRANCH   7   8
ENDBRANCH   6   7
ENDBRANCH   4   6
BRANCH   3  17
ATOM     17  C   UNL d   1     -38.388  14.140  21.751  0.00  0.00     0.046 A 
ATOM     18  C   UNL d   1     -38.191  13.430  22.123  0.00  0.00     0.024 A 
ATOM     19  C   UNL d   1     -38.313  13.336  22.931  0.00  0.00     0.099 A 
ATOM     20  N   UNL d   1     -38.636  13.959  23.377  0.00  0.00    -0.242 NA
ATOM     21  C   UNL d   1     -38.831  14.667  23.000  0.00  0.00     0.099 A 
ATOM     22  C   UNL d   1     -38.707  14.756  22.189  0.00  0.00     0.024 A 
ENDBRANCH   3  17
TORSDOF 5
ENDMDL
