MODEL 1
REMARK VINA RESULT:      -5.2      0.000      0.000
REMARK  4 active torsions:
REMARK  status: ('A' for Active; 'I' for Inactive)
REMARK    1  A    between atoms: S_2  and  N_1 
REMARK    2  A    between atoms: C_6  and  S_2 
REMARK    3  A    between atoms: C_10  and  C_6 
REMARK    4  A    between atoms: C_11  and  C_10 
ROOT
ATOM      1  S   UNL d   1     -41.677-122.452 -51.924  0.00  0.00     0.287 S 
ATOM      2  O   UNL d   1     -42.163-121.784 -51.880  0.00  0.00    -0.198 OA
ATOM      3  O   UNL d   1     -41.192-123.110 -51.982  0.00  0.00    -0.198 OA
ENDROOT
BRANCH   1   4
ATOM      4  N   UNL d   1     -41.824-122.636 -51.139  0.00  0.00    -0.152 N 
ATOM      5  N   UNL d   1     -42.258-123.291 -50.873  0.00  0.00    -0.155 NA
ATOM      6  C   UNL d   1     -42.269-123.262 -50.045  0.00  0.00     0.104 A 
ATOM      7  C   UNL d   1     -42.639-123.805 -49.545  0.00  0.00     0.022 C 
ATOM      8  C   UNL d   1     -41.843-122.591 -49.812  0.00  0.00     0.041 A 
ATOM      9  C   UNL d   1     -41.569-122.205 -50.486  0.00  0.00     0.096 A 
ATOM     10  C   UNL d   1     -41.123-121.516 -50.502  0.00  0.00     0.022 C 
ENDBRANCH   1   4
BRANCH   1  11
ATOM     11  C   UNL d   1     -41.517-122.282 -52.719  0.00  0.00     0.117 C 
BRANCH  11  12
ATOM     12  C   UNL d   1     -41.888-122.723 -53.317  0.00  0.00     0.014 C 
BRANCH  12  13
ATOM     13  C   UNL d   1     -41.824-122.489 -54.104  0.00  0.00     0.001 A 
ATOM     14  C   UNL d   1     -42.361-121.964 -54.415  0.00  0.00     0.000 A 
ATOM     15  C   UNL d   1     -42.298-121.730 -55.203  0.00  0.00     0.000 A 
ATOM     16  C   UNL d   1     -41.689-122.030 -55.674  0.00  0.00     0.000 A 
ATOM     17  C   UNL d   1     -41.148-122.562 -55.353  0.00  0.00     0.000 A 
ATOM     18  C   UNL d   1     -41.212-122.795 -54.565  0.00  0.00     0.000 A 
ENDBRANCH  12  13
ENDBRANCH  11  12
ENDBRANCH   1  11
TORSDOF 4
ENDMDL
MODEL 2
REMARK VINA RESULT:      -5.2      1.175      1.664
REMARK  4 active torsions:
REMARK  status: ('A' for Active; 'I' for Inactive)
REMARK    1  A    between atoms: S_2  and  N_1 
REMARK    2  A    between atoms: C_6  and  S_2 
REMARK    3  A    between atoms: C_10  and  C_6 
REMARK    4  A    between atoms: C_11  and  C_10 
ROOT
ATOM      1  S   UNL d   1     -41.787-122.810 -50.823  0.00  0.00     0.287 S 
ATOM      2  O   UNL d   1     -41.854-123.623 -50.964  0.00  0.00    -0.198 OA
ATOM      3  O   UNL d   1     -41.720-122.003 -50.698  0.00  0.00    -0.198 OA
ENDROOT
BRANCH   1   4
ATOM      4  N   UNL d   1     -41.854-122.925 -50.014  0.00  0.00    -0.152 N 
ATOM      5  N   UNL d   1     -41.230-123.125 -49.505  0.00  0.00    -0.155 NA
ATOM      6  C   UNL d   1     -41.544-123.184 -48.740  0.00  0.00     0.104 A 
ATOM      7  C   UNL d   1     -41.122-123.373 -48.056  0.00  0.00     0.022 C 
ATOM      8  C   UNL d   1     -42.355-123.021 -48.788  0.00  0.00     0.041 A 
ATOM      9  C   UNL d   1     -42.546-122.861 -49.573  0.00  0.00     0.096 A 
ATOM     10  C   UNL d   1     -43.291-122.672 -49.861  0.00  0.00     0.022 C 
ENDBRANCH   1   4
BRANCH   1  11
ATOM     11  C   UNL d   1     -41.718-122.675 -51.637  0.00  0.00     0.117 C 
BRANCH  11  12
ATOM     12  C   UNL d   1     -41.149-123.091 -52.076  0.00  0.00     0.014 C 
BRANCH  12  13
ATOM     13  C   UNL d   1     -41.178-123.090 -52.899  0.00  0.00     0.001 A 
ATOM     14  C   UNL d   1     -41.210-122.385 -53.303  0.00  0.00     0.000 A 
ATOM     15  C   UNL d   1     -41.239-122.384 -54.126  0.00  0.00     0.000 A 
ATOM     16  C   UNL d   1     -41.236-123.099 -54.540  0.00  0.00     0.000 A 
ATOM     17  C   UNL d   1     -41.204-123.811 -54.125  0.00  0.00     0.000 A 
ATOM     18  C   UNL d   1     -41.175-123.811 -53.301  0.00  0.00     0.000 A 
ENDBRANCH  12  13
ENDBRANCH  11  12
ENDBRANCH   1  11
TORSDOF 4
ENDMDL
MODEL 3
REMARK VINA RESULT:      -4.8      1.225      4.562
REMARK  4 active torsions:
REMARK  status: ('A' for Active; 'I' for Inactive)
REMARK    1  A    between atoms: S_2  and  N_1 
REMARK    2  A    between atoms: C_6  and  S_2 
REMARK    3  A    between atoms: C_10  and  C_6 
REMARK    4  A    between atoms: C_11  and  C_10 
ROOT
ATOM      1  S   UNL d   1     -41.657-122.697 -50.912  0.00  0.00     0.287 S 
ATOM      2  O   UNL d   1     -41.123-123.329 -50.888  0.00  0.00    -0.198 OA
ATOM      3  O   UNL d   1     -42.188-122.073 -50.921  0.00  0.00    -0.198 OA
ENDROOT
BRANCH   1   4
ATOM      4  N   UNL d   1     -41.553-122.614 -51.721  0.00  0.00    -0.152 N 
ATOM      5  N   UNL d   1     -41.669-123.212 -52.284  0.00  0.00    -0.155 NA
ATOM      6  C   UNL d   1     -41.503-122.888 -53.028  0.00  0.00     0.104 A 
ATOM      7  C   UNL d   1     -41.545-123.285 -53.751  0.00  0.00     0.022 C 
ATOM      8  C   UNL d   1     -41.286-122.097 -52.914  0.00  0.00     0.041 A 
ATOM      9  C   UNL d   1     -41.317-121.928 -52.109  0.00  0.00     0.096 A 
ATOM     10  C   UNL d   1     -41.144-121.205 -51.759  0.00  0.00     0.022 C 
ENDBRANCH   1   4
BRANCH   1  11
ATOM     11  C   UNL d   1     -41.775-122.766 -50.095  0.00  0.00     0.117 C 
BRANCH  11  12
ATOM     12  C   UNL d   1     -42.153-123.440 -49.790  0.00  0.00     0.014 C 
BRANCH  12  13
ATOM     13  C   UNL d   1     -42.249-123.528 -48.977  0.00  0.00     0.001 A 
ATOM     14  C   UNL d   1     -41.611-123.723 -48.512  0.00  0.00     0.000 A 
ATOM     15  C   UNL d   1     -41.707-123.811 -47.699  0.00  0.00     0.000 A 
ATOM     16  C   UNL d   1     -42.451-123.703 -47.356  0.00  0.00     0.000 A 
ATOM     17  C   UNL d   1     -43.094-123.505 -47.833  0.00  0.00     0.000 A 
ATOM     18  C   UNL d   1     -42.997-123.417 -48.647  0.00  0.00     0.000 A 
ENDBRANCH  12  13
ENDBRANCH  11  12
ENDBRANCH   1  11
TORSDOF 4
ENDMDL
