MODEL 1
REMARK VINA RESULT:      -8.8      0.000      0.000
REMARK  1 active torsions:
REMARK  status: ('A' for Active; 'I' for Inactive)
REMARK    1  A    between atoms: C_2  and  C_1 
REMARK       I    between atoms: N_3  and  C_2 
ROOT
ATOM      1  C   UNL d   1     -47.850  13.662  22.692  0.00  0.00     0.109 A 
ATOM      2  C   UNL d   1     -47.267  14.211  22.612  0.00  0.00     0.026 A 
ATOM      3  C   UNL d   1     -47.621  12.981  23.032  0.00  0.00    -0.014 A 
ATOM      4  C   UNL d   1     -47.990  12.808  23.011  0.00  0.00    -0.014 A 
ATOM      5  C   UNL d   1     -46.508  13.884  22.940  0.00  0.00     0.045 A 
ATOM      6  C   UNL d   1     -47.362  12.530  23.284  0.00  0.00    -0.007 A 
ATOM      7  C   UNL d   1     -46.798  12.644  23.380  0.00  0.00    -0.007 A 
ATOM      8  C   UNL d   1     -46.938  11.790  23.698  0.00  0.00    -0.001 A 
ATOM      9  C   UNL d   1     -46.239  13.170  23.303  0.00  0.00    -0.022 A 
ATOM     10  C   UNL d   1     -46.564  13.207  23.206  0.00  0.00    -0.022 A 
ENDROOT
BRANCH   1  11
ATOM     11  C   UNL d   1     -48.787  13.965  22.330  0.00  0.00     0.248 C 
ATOM     12  N   UNL d   1     -49.384  14.665  22.818  0.00  0.00    -0.275 N 
ATOM     13  C   UNL d   1     -49.555  15.170  23.389  0.00  0.00     0.083 A 
ATOM     14  C   UNL d   1     -49.977  14.668  22.320  0.00  0.00     0.083 A 
ATOM     15  C   UNL d   1     -50.262  15.482  23.233  0.00  0.00     0.021 A 
ATOM     16  C   UNL d   1     -50.523  15.172  22.573  0.00  0.00     0.021 A 
ATOM     17  O   UNL d   1     -49.008  13.587  21.606  0.00  0.00    -0.271 OA
ENDBRANCH   1  11
TORSDOF 1
ENDMDL
MODEL 2
REMARK VINA RESULT:      -8.7      1.474      1.833
REMARK  1 active torsions:
REMARK  status: ('A' for Active; 'I' for Inactive)
REMARK    1  A    between atoms: C_2  and  C_1 
REMARK       I    between atoms: N_3  and  C_2 
ROOT
ATOM      1  C   UNL d   1     -47.992  12.583  22.792  0.00  0.00     0.109 A 
ATOM      2  C   UNL d   1     -47.774  11.905  23.167  0.00  0.00     0.026 A 
ATOM      3  C   UNL d   1     -47.432  13.148  22.774  0.00  0.00    -0.014 A 
ATOM      4  C   UNL d   1     -47.663  13.415  22.568  0.00  0.00    -0.014 A 
ATOM      5  C   UNL d   1     -46.940  11.988  23.463  0.00  0.00     0.045 A 
ATOM      6  C   UNL d   1     -46.969  13.490  22.812  0.00  0.00    -0.007 A 
ATOM      7  C   UNL d   1     -46.537  13.221  23.098  0.00  0.00    -0.007 A 
ATOM      8  C   UNL d   1     -46.209  14.053  22.874  0.00  0.00    -0.001 A 
ATOM      9  C   UNL d   1     -46.328  12.572  23.457  0.00  0.00    -0.022 A 
ATOM     10  C   UNL d   1     -46.631  12.632  23.311  0.00  0.00    -0.022 A 
ENDROOT
BRANCH   1  11
ATOM     11  C   UNL d   1     -48.968  12.574  22.408  0.00  0.00     0.248 C 
ATOM     12  N   UNL d   1     -49.816  12.553  23.014  0.00  0.00    -0.275 N 
ATOM     13  C   UNL d   1     -50.193  12.539  23.698  0.00  0.00     0.083 A 
ATOM     14  C   UNL d   1     -50.350  12.553  22.453  0.00  0.00     0.083 A 
ATOM     15  C   UNL d   1     -50.966  12.529  23.547  0.00  0.00     0.021 A 
ATOM     16  C   UNL d   1     -51.064  12.538  22.779  0.00  0.00     0.021 A 
ATOM     17  O   UNL d   1     -48.999  12.585  21.562  0.00  0.00    -0.271 OA
ENDBRANCH   1  11
TORSDOF 1
ENDMDL
MODEL 3
REMARK VINA RESULT:      -8.7      1.902      3.433
REMARK  1 active torsions:
REMARK  status: ('A' for Active; 'I' for Inactive)
REMARK    1  A    between atoms: C_2  and  C_1 
REMARK       I    between atoms: N_3  and  C_2 
ROOT
ATOM      1  C   UNL d   1     -49.033  12.293  22.598  0.00  0.00     0.109 A 
ATOM      2  C   UNL d   1     -49.175  12.503  21.834  0.00  0.00     0.026 A 
ATOM      3  C   UNL d   1     -49.684  12.230  23.052  0.00  0.00    -0.014 A 
ATOM      4  C   UNL d   1     -49.478  12.125  23.389  0.00  0.00    -0.014 A 
ATOM      5  C   UNL d   1     -50.050  12.607  21.715  0.00  0.00     0.045 A 
ATOM      6  C   UNL d   1     -50.207  12.211  23.296  0.00  0.00    -0.007 A 
ATOM      7  C   UNL d   1     -50.621  12.346  22.907  0.00  0.00    -0.007 A 
ATOM      8  C   UNL d   1     -51.064  12.179  23.698  0.00  0.00    -0.001 A 
ATOM      9  C   UNL d   1     -50.756  12.547  22.175  0.00  0.00    -0.022 A 
ATOM     10  C   UNL d   1     -50.450  12.486  22.314  0.00  0.00    -0.022 A 
ENDROOT
BRANCH   1  11
ATOM     11  C   UNL d   1     -48.021  12.147  22.830  0.00  0.00     0.248 C 
ATOM     12  N   UNL d   1     -47.328  12.925  22.859  0.00  0.00    -0.275 N 
ATOM     13  C   UNL d   1     -47.102  13.671  22.797  0.00  0.00     0.083 A 
ATOM     14  C   UNL d   1     -46.704  12.508  23.050  0.00  0.00     0.083 A 
ATOM     15  C   UNL d   1     -46.331  13.703  22.952  0.00  0.00     0.021 A 
ATOM     16  C   UNL d   1     -46.084  12.986  23.109  0.00  0.00     0.021 A 
ATOM     17  O   UNL d   1     -47.823  11.340  22.990  0.00  0.00    -0.271 OA
ENDBRANCH   1  11
TORSDOF 1
ENDMDL
MODEL 4
REMARK VINA RESULT:      -8.4      1.068      3.464
REMARK  1 active torsions:
REMARK  status: ('A' for Active; 'I' for Inactive)
REMARK    1  A    between atoms: C_2  and  C_1 
REMARK       I    between atoms: N_3  and  C_2 
ROOT
ATOM      1  C   UNL d   1     -48.580  13.949  22.611  0.00  0.00     0.109 A 
ATOM      2  C   UNL d   1     -48.940  13.606  21.978  0.00  0.00     0.026 A 
ATOM      3  C   UNL d   1     -48.984  14.551  22.938  0.00  0.00    -0.014 A 
ATOM      4  C   UNL d   1     -48.705  14.625  23.227  0.00  0.00    -0.014 A 
ATOM      5  C   UNL d   1     -49.714  14.016  21.823  0.00  0.00     0.045 A 
ATOM      6  C   UNL d   1     -49.347  14.969  23.102  0.00  0.00    -0.007 A 
ATOM      7  C   UNL d   1     -49.818  14.981  22.758  0.00  0.00    -0.007 A 
ATOM      8  C   UNL d   1     -49.942  15.656  23.373  0.00  0.00    -0.001 A 
ATOM      9  C   UNL d   1     -50.163  14.653  22.151  0.00  0.00    -0.022 A 
ATOM     10  C   UNL d   1     -49.862  14.562  22.284  0.00  0.00    -0.022 A 
ENDROOT
BRANCH   1  11
ATOM     11  C   UNL d   1     -47.655  13.526  22.867  0.00  0.00     0.248 C 
ATOM     12  N   UNL d   1     -47.558  12.558  23.239  0.00  0.00    -0.275 N 
ATOM     13  C   UNL d   1     -47.826  11.861  23.471  0.00  0.00     0.083 A 
ATOM     14  C   UNL d   1     -46.788  12.551  23.324  0.00  0.00     0.083 A 
ATOM     15  C   UNL d   1     -47.208  11.428  23.698  0.00  0.00     0.021 A 
ATOM     16  C   UNL d   1     -46.567  11.853  23.608  0.00  0.00     0.021 A 
ATOM     17  O   UNL d   1     -46.999  14.046  22.743  0.00  0.00    -0.271 OA
ENDBRANCH   1  11
TORSDOF 1
ENDMDL
