MODEL 1
REMARK VINA RESULT:      14.4      0.000      0.000
REMARK  3 active torsions:
REMARK  status: ('A' for Active; 'I' for Inactive)
REMARK    1  A    between atoms: C_14  and  C_4 
REMARK    2  A    between atoms: C_5  and  S_10 
REMARK    3  A    between atoms: S_10  and  C_14 
ROOT
ATOM      1  N   UNL d   1      14.097  12.422  -3.856  0.00  0.00    -0.226 NA
ATOM      2  N   UNL d   1      13.123  11.947  -4.681  0.00  0.00    -0.288 N 
ATOM      3  C   UNL d   1      13.860  12.317  -4.662  0.00  0.00     0.148 A 
ATOM      4  C   UNL d   1      13.476  12.102  -3.410  0.00  0.00     0.107 A 
ATOM      5  C   UNL d   1      12.887  11.814  -3.888  0.00  0.00     0.101 A 
ATOM      6  C   UNL d   1      12.770  11.783  -5.409  0.00  0.00     0.082 A 
ATOM      7  C   UNL d   1      14.256  12.529  -5.369  0.00  0.00     0.037 A 
ATOM      8  C   UNL d   1      13.166  11.995  -6.116  0.00  0.00     0.019 A 
ATOM      9  C   UNL d   1      13.880  12.354  -6.097  0.00  0.00     0.005 A 
ENDROOT
BRANCH   4  10
ATOM     10  C   UNL d   1      13.465  12.081  -2.590  0.00  0.00     0.058 C 
BRANCH  10  11
ATOM     11  S   UNL d   1      14.149  11.966  -2.173  0.00  0.00    -0.059 SA
BRANCH  11  12
ATOM     12  C   UNL d   1      14.141  11.970  -1.318  0.00  0.00     0.141 A 
ATOM     13  N   UNL d   1      13.551  11.780  -0.771  0.00  0.00    -0.230 NA
ATOM     14  C   UNL d   1      13.906  11.903  -0.034  0.00  0.00     0.107 A 
ATOM     15  C   UNL d   1      14.654  12.148  -0.117  0.00  0.00     0.058 A 
ATOM     16  S   UNL d   1      14.807  12.192  -0.903  0.00  0.00    -0.059 SA
ENDBRANCH  11  12
ENDBRANCH  10  11
ENDBRANCH   4  10
TORSDOF 3
ENDMDL
MODEL 2
REMARK VINA RESULT:      15.3      1.309      4.063
REMARK  3 active torsions:
REMARK  status: ('A' for Active; 'I' for Inactive)
REMARK    1  A    between atoms: C_14  and  C_4 
REMARK    2  A    between atoms: C_5  and  S_10 
REMARK    3  A    between atoms: S_10  and  C_14 
ROOT
ATOM      1  N   UNL d   1      14.145  11.932  -2.483  0.00  0.00    -0.226 NA
ATOM      2  N   UNL d   1      13.631  11.834  -1.225  0.00  0.00    -0.288 N 
ATOM      3  C   UNL d   1      14.329  11.926  -1.656  0.00  0.00     0.148 A 
ATOM      4  C   UNL d   1      13.322  11.840  -2.517  0.00  0.00     0.107 A 
ATOM      5  C   UNL d   1      13.000  11.780  -1.775  0.00  0.00     0.101 A 
ATOM      6  C   UNL d   1      13.664  11.811  -0.401  0.00  0.00     0.082 A 
ATOM      7  C   UNL d   1      15.069  11.998  -1.270  0.00  0.00     0.037 A 
ATOM      8  C   UNL d   1      14.404  11.883  -0.015  0.00  0.00     0.019 A 
ATOM      9  C   UNL d   1      15.079  11.972  -0.433  0.00  0.00     0.005 A 
ENDROOT
BRANCH   4  10
ATOM     10  C   UNL d   1      12.894  11.814  -3.216  0.00  0.00     0.058 C 
BRANCH  10  11
ATOM     11  S   UNL d   1      13.273  11.804  -3.930  0.00  0.00    -0.059 SA
BRANCH  11  12
ATOM     12  C   UNL d   1      13.138  12.426  -4.502  0.00  0.00     0.141 A 
ATOM     13  N   UNL d   1      13.058  13.244  -4.418  0.00  0.00    -0.230 NA
ATOM     14  C   UNL d   1      12.938  13.520  -5.189  0.00  0.00     0.107 A 
ATOM     15  C   UNL d   1      12.945  12.922  -5.707  0.00  0.00     0.058 A 
ATOM     16  S   UNL d   1      13.067  12.245  -5.294  0.00  0.00    -0.059 SA
ENDBRANCH  11  12
ENDBRANCH  10  11
ENDBRANCH   4  10
TORSDOF 3
ENDMDL
