MODEL 1
REMARK VINA RESULT:      -9.1      0.000      0.000
REMARK  4 active torsions:
REMARK  status: ('A' for Active; 'I' for Inactive)
REMARK    1  A    between atoms: C_6  and  C_1 
REMARK       I    between atoms: N_8  and  C_6 
REMARK    2  A    between atoms: C_17  and  N_8 
REMARK    3  A    between atoms: C_9  and  C_17 
REMARK    4  A    between atoms: O_18  and  C_12 
ROOT
ATOM      1  C   UNL d   1      53.185  32.050  53.414  0.00  0.00     0.121 A 
ATOM      2  C   UNL d   1      52.580  32.594  53.362  0.00  0.00     0.305 A 
ATOM      3  O   UNL d   1      52.656  33.342  53.714  0.00  0.00    -0.271 OA
ATOM      4  C   UNL d   1      53.882  32.234  53.817  0.00  0.00     0.012 A 
ATOM      5  C   UNL d   1      53.354  33.526  54.116  0.00  0.00     0.125 A 
ATOM      6  C   UNL d   1      53.958  32.983  54.168  0.00  0.00     0.025 A 
ATOM      7  O   UNL d   1      51.879  32.404  52.956  0.00  0.00    -0.259 OA
ATOM      8  C   UNL d   1      53.430  34.263  54.463  0.00  0.00     0.117 A 
ATOM      9  C   UNL d   1      54.653  33.164  54.568  0.00  0.00     0.002 A 
ATOM     10  C   UNL d   1      54.742  33.909  54.924  0.00  0.00     0.002 A 
ATOM     11  C   UNL d   1      54.129  34.461  54.871  0.00  0.00     0.026 A 
ENDROOT
BRANCH   1  12
ATOM     12  C   UNL d   1      53.091  31.314  53.060  0.00  0.00     0.284 C 
ATOM     13  N   UNL d   1      53.090  30.526  53.305  0.00  0.00    -0.204 NA
ATOM     14  O   UNL d   1      52.959  31.262  52.240  0.00  0.00    -0.265 OA
BRANCH  13  15
ATOM     15  C   UNL d   1      53.207  30.353  54.104  0.00  0.00     0.127 C 
BRANCH  15  16
ATOM     16  C   UNL d   1      53.268  29.567  54.359  0.00  0.00     0.119 A 
ATOM     17  O   UNL d   1      53.356  28.906  53.878  0.00  0.00    -0.304 OA
ATOM     18  C   UNL d   1      53.393  28.254  54.367  0.00  0.00     0.123 A 
ATOM     19  C   UNL d   1      53.328  28.518  55.152  0.00  0.00     0.029 A 
ATOM     20  C   UNL d   1      53.251  29.325  55.147  0.00  0.00     0.028 A 
ENDBRANCH  15  16
ENDBRANCH  13  15
ENDBRANCH   1  12
BRANCH   8  21
ATOM     21  O   UNL d   1      52.823  34.809  54.410  0.00  0.00    -0.326 OA
ATOM     22  C   UNL d   1      52.949  35.593  54.614  0.00  0.00     0.181 C 
ENDBRANCH   8  21
TORSDOF 4
ENDMDL
MODEL 2
REMARK VINA RESULT:      -8.4      1.220      1.878
REMARK  4 active torsions:
REMARK  status: ('A' for Active; 'I' for Inactive)
REMARK    1  A    between atoms: C_6  and  C_1 
REMARK       I    between atoms: N_8  and  C_6 
REMARK    2  A    between atoms: C_17  and  N_8 
REMARK    3  A    between atoms: C_9  and  C_17 
REMARK    4  A    between atoms: O_18  and  C_12 
ROOT
ATOM      1  C   UNL d   1      53.959  32.945  53.662  0.00  0.00     0.121 A 
ATOM      2  C   UNL d   1      54.222  33.381  54.298  0.00  0.00     0.305 A 
ATOM      3  O   UNL d   1      53.837  34.085  54.512  0.00  0.00    -0.271 OA
ATOM      4  C   UNL d   1      53.308  33.196  53.221  0.00  0.00     0.012 A 
ATOM      5  C   UNL d   1      53.186  34.336  54.071  0.00  0.00     0.125 A 
ATOM      6  C   UNL d   1      52.923  33.899  53.435  0.00  0.00     0.025 A 
ATOM      7  O   UNL d   1      54.879  33.126  54.741  0.00  0.00    -0.259 OA
ATOM      8  C   UNL d   1      52.806  35.029  54.280  0.00  0.00     0.117 A 
ATOM      9  C   UNL d   1      52.275  34.147  52.995  0.00  0.00     0.002 A 
ATOM     10  C   UNL d   1      51.881  34.850  53.198  0.00  0.00     0.002 A 
ATOM     11  C   UNL d   1      52.147  35.293  53.843  0.00  0.00     0.026 A 
ENDROOT
BRANCH   1  12
ATOM     12  C   UNL d   1      54.353  32.250  53.465  0.00  0.00     0.284 C 
ATOM     13  N   UNL d   1      54.185  31.443  53.474  0.00  0.00    -0.204 NA
ATOM     14  O   UNL d   1      55.131  32.283  53.171  0.00  0.00    -0.265 OA
BRANCH  13  15
ATOM     15  C   UNL d   1      53.445  31.188  53.738  0.00  0.00     0.127 C 
BRANCH  15  16
ATOM     16  C   UNL d   1      53.277  30.379  53.804  0.00  0.00     0.119 A 
ATOM     17  O   UNL d   1      53.514  29.883  54.416  0.00  0.00    -0.304 OA
ATOM     18  C   UNL d   1      53.224  29.139  54.249  0.00  0.00     0.123 A 
ATOM     19  C   UNL d   1      52.808  29.180  53.531  0.00  0.00     0.029 A 
ATOM     20  C   UNL d   1      52.841  29.943  53.258  0.00  0.00     0.028 A 
ENDBRANCH  15  16
ENDBRANCH  13  15
ENDBRANCH   1  12
BRANCH   8  21
ATOM     21  O   UNL d   1      53.070  35.468  54.919  0.00  0.00    -0.326 OA
ATOM     22  C   UNL d   1      52.902  36.268  54.973  0.00  0.00     0.181 C 
ENDBRANCH   8  21
TORSDOF 4
ENDMDL
MODEL 3
REMARK VINA RESULT:      -8.3      1.644      4.430
REMARK  4 active torsions:
REMARK  status: ('A' for Active; 'I' for Inactive)
REMARK    1  A    between atoms: C_6  and  C_1 
REMARK       I    between atoms: N_8  and  C_6 
REMARK    2  A    between atoms: C_17  and  N_8 
REMARK    3  A    between atoms: C_9  and  C_17 
REMARK    4  A    between atoms: O_18  and  C_12 
ROOT
ATOM      1  C   UNL d   1      53.278  32.073  53.505  0.00  0.00     0.121 A 
ATOM      2  C   UNL d   1      53.528  31.849  54.248  0.00  0.00     0.305 A 
ATOM      3  O   UNL d   1      53.536  31.047  54.464  0.00  0.00    -0.271 OA
ATOM      4  C   UNL d   1      53.030  31.507  52.957  0.00  0.00     0.012 A 
ATOM      5  C   UNL d   1      53.288  30.482  53.916  0.00  0.00     0.125 A 
ATOM      6  C   UNL d   1      53.038  30.706  53.173  0.00  0.00     0.025 A 
ATOM      7  O   UNL d   1      53.778  32.422  54.798  0.00  0.00    -0.259 OA
ATOM      8  C   UNL d   1      53.295  29.692  54.127  0.00  0.00     0.117 A 
ATOM      9  C   UNL d   1      52.790  30.145  52.626  0.00  0.00     0.002 A 
ATOM     10  C   UNL d   1      52.793  29.340  52.830  0.00  0.00     0.002 A 
ATOM     11  C   UNL d   1      53.047  29.112  53.583  0.00  0.00     0.026 A 
ENDROOT
BRANCH   1  12
ATOM     12  C   UNL d   1      53.277  32.871  53.309  0.00  0.00     0.284 C 
ATOM     13  N   UNL d   1      52.711  33.445  53.135  0.00  0.00    -0.204 NA
ATOM     14  O   UNL d   1      53.996  33.285  53.249  0.00  0.00    -0.265 OA
BRANCH  13  15
ATOM     15  C   UNL d   1      51.912  33.237  53.139  0.00  0.00     0.127 C 
BRANCH  15  16
ATOM     16  C   UNL d   1      51.339  33.759  52.845  0.00  0.00     0.119 A 
ATOM     17  O   UNL d   1      51.357  34.137  52.116  0.00  0.00    -0.304 OA
ATOM     18  C   UNL d   1      50.682  34.594  52.064  0.00  0.00     0.123 A 
ATOM     19  C   UNL d   1      50.250  34.495  52.766  0.00  0.00     0.029 A 
ATOM     20  C   UNL d   1      50.654  33.981  53.247  0.00  0.00     0.028 A 
ENDBRANCH  15  16
ENDBRANCH  13  15
ENDBRANCH   1  12
BRANCH   8  21
ATOM     21  O   UNL d   1      53.546  29.467  54.873  0.00  0.00    -0.326 OA
ATOM     22  C   UNL d   1      53.458  28.692  55.125  0.00  0.00     0.181 C 
ENDBRANCH   8  21
TORSDOF 4
ENDMDL
MODEL 4
REMARK VINA RESULT:      -7.9      2.836      4.715
REMARK  4 active torsions:
REMARK  status: ('A' for Active; 'I' for Inactive)
REMARK    1  A    between atoms: C_6  and  C_1 
REMARK       I    between atoms: N_8  and  C_6 
REMARK    2  A    between atoms: C_17  and  N_8 
REMARK    3  A    between atoms: C_9  and  C_17 
REMARK    4  A    between atoms: O_18  and  C_12 
ROOT
ATOM      1  C   UNL d   1      51.511  34.124  52.831  0.00  0.00     0.121 A 
ATOM      2  C   UNL d   1      51.670  33.359  53.064  0.00  0.00     0.305 A 
ATOM      3  O   UNL d   1      52.259  33.207  53.629  0.00  0.00    -0.271 OA
ATOM      4  C   UNL d   1      51.932  34.757  53.152  0.00  0.00     0.012 A 
ATOM      5  C   UNL d   1      52.680  33.840  53.950  0.00  0.00     0.125 A 
ATOM      6  C   UNL d   1      52.521  34.605  53.717  0.00  0.00     0.025 A 
ATOM      7  O   UNL d   1      51.243  32.723  52.738  0.00  0.00    -0.259 OA
ATOM      8  C   UNL d   1      53.261  33.691  54.506  0.00  0.00     0.117 A 
ATOM      9  C   UNL d   1      52.939  35.236  54.035  0.00  0.00     0.002 A 
ATOM     10  C   UNL d   1      53.531  35.097  54.601  0.00  0.00     0.002 A 
ATOM     11  C   UNL d   1      53.693  34.322  54.838  0.00  0.00     0.026 A 
ENDROOT
BRANCH   1  12
ATOM     12  C   UNL d   1      50.924  34.256  52.270  0.00  0.00     0.284 C 
ATOM     13  N   UNL d   1      50.157  34.558  52.265  0.00  0.00    -0.204 NA
ATOM     14  O   UNL d   1      51.060  34.061  51.473  0.00  0.00    -0.265 OA
BRANCH  13  15
ATOM     15  C   UNL d   1      49.821  34.816  52.974  0.00  0.00     0.127 C 
BRANCH  15  16
ATOM     16  C   UNL d   1      49.099  35.224  52.974  0.00  0.00     0.119 A 
ATOM     17  O   UNL d   1      48.564  35.261  52.352  0.00  0.00    -0.304 OA
ATOM     18  C   UNL d   1      47.937  35.721  52.600  0.00  0.00     0.123 A 
ATOM     19  C   UNL d   1      48.090  35.967  53.379  0.00  0.00     0.029 A 
ATOM     20  C   UNL d   1      48.806  35.661  53.608  0.00  0.00     0.028 A 
ENDBRANCH  15  16
ENDBRANCH  13  15
ENDBRANCH   1  12
BRANCH   8  21
ATOM     21  O   UNL d   1      53.420  32.923  54.740  0.00  0.00    -0.326 OA
ATOM     22  C   UNL d   1      54.071  32.758  55.211  0.00  0.00     0.181 C 
ENDBRANCH   8  21
TORSDOF 4
ENDMDL
MODEL 5
REMARK VINA RESULT:      -7.6      2.361      3.298
REMARK  4 active torsions:
REMARK  status: ('A' for Active; 'I' for Inactive)
REMARK    1  A    between atoms: C_6  and  C_1 
REMARK       I    between atoms: N_8  and  C_6 
REMARK    2  A    between atoms: C_17  and  N_8 
REMARK    3  A    between atoms: C_9  and  C_17 
REMARK    4  A    between atoms: O_18  and  C_12 
ROOT
ATOM      1  C   UNL d   1      52.103  33.770  53.012  0.00  0.00     0.121 A 
ATOM      2  C   UNL d   1      51.745  34.140  53.644  0.00  0.00     0.305 A 
ATOM      3  O   UNL d   1      50.991  34.477  53.561  0.00  0.00    -0.271 OA
ATOM      4  C   UNL d   1      51.723  33.724  52.281  0.00  0.00     0.012 A 
ATOM      5  C   UNL d   1      50.610  34.431  52.829  0.00  0.00     0.125 A 
ATOM      6  C   UNL d   1      50.968  34.061  52.198  0.00  0.00     0.025 A 
ATOM      7  O   UNL d   1      52.132  34.183  54.380  0.00  0.00    -0.259 OA
ATOM      8  C   UNL d   1      49.867  34.762  52.746  0.00  0.00     0.117 A 
ATOM      9  C   UNL d   1      50.592  34.015  51.469  0.00  0.00     0.002 A 
ATOM     10  C   UNL d   1      49.837  34.348  51.372  0.00  0.00     0.002 A 
ATOM     11  C   UNL d   1      49.473  34.723  52.013  0.00  0.00     0.026 A 
ENDROOT
BRANCH   1  12
ATOM     12  C   UNL d   1      52.851  33.442  53.114  0.00  0.00     0.284 C 
ATOM     13  N   UNL d   1      53.171  32.684  53.164  0.00  0.00    -0.204 NA
ATOM     14  O   UNL d   1      53.514  33.938  53.195  0.00  0.00    -0.265 OA
BRANCH  13  15
ATOM     15  C   UNL d   1      52.670  32.030  53.105  0.00  0.00     0.127 C 
BRANCH  15  16
ATOM     16  C   UNL d   1      52.961  31.264  53.226  0.00  0.00     0.119 A 
ATOM     17  O   UNL d   1      53.602  31.058  53.698  0.00  0.00    -0.304 OA
ATOM     18  C   UNL d   1      53.686  30.247  53.650  0.00  0.00     0.123 A 
ATOM     19  C   UNL d   1      53.093  29.956  53.146  0.00  0.00     0.029 A 
ATOM     20  C   UNL d   1      52.648  30.582  52.886  0.00  0.00     0.028 A 
ENDBRANCH  15  16
ENDBRANCH  13  15
ENDBRANCH   1  12
BRANCH   8  21
ATOM     21  O   UNL d   1      49.507  35.134  53.380  0.00  0.00    -0.326 OA
ATOM     22  C   UNL d   1      48.788  35.514  53.286  0.00  0.00     0.181 C 
ENDBRANCH   8  21
TORSDOF 4
ENDMDL
MODEL 6
REMARK VINA RESULT:      -7.5      1.378      4.501
REMARK  4 active torsions:
REMARK  status: ('A' for Active; 'I' for Inactive)
REMARK    1  A    between atoms: C_6  and  C_1 
REMARK       I    between atoms: N_8  and  C_6 
REMARK    2  A    between atoms: C_17  and  N_8 
REMARK    3  A    between atoms: C_9  and  C_17 
REMARK    4  A    between atoms: O_18  and  C_12 
ROOT
ATOM      1  C   UNL d   1      54.001  32.123  53.813  0.00  0.00     0.121 A 
ATOM      2  C   UNL d   1      54.034  31.757  54.541  0.00  0.00     0.305 A 
ATOM      3  O   UNL d   1      53.729  30.991  54.639  0.00  0.00    -0.271 OA
ATOM      4  C   UNL d   1      53.666  31.739  53.164  0.00  0.00     0.012 A 
ATOM      5  C   UNL d   1      53.394  30.606  53.990  0.00  0.00     0.125 A 
ATOM      6  C   UNL d   1      53.362  30.973  53.262  0.00  0.00     0.025 A 
ATOM      7  O   UNL d   1      54.373  32.147  55.193  0.00  0.00    -0.259 OA
ATOM      8  C   UNL d   1      53.094  29.852  54.085  0.00  0.00     0.117 A 
ATOM      9  C   UNL d   1      53.028  30.592  52.615  0.00  0.00     0.002 A 
ATOM     10  C   UNL d   1      52.720  29.825  52.699  0.00  0.00     0.002 A 
ATOM     11  C   UNL d   1      52.753  29.454  53.437  0.00  0.00     0.026 A 
ENDROOT
BRANCH   1  12
ATOM     12  C   UNL d   1      54.308  32.882  53.735  0.00  0.00     0.284 C 
ATOM     13  N   UNL d   1      54.022  33.653  53.793  0.00  0.00    -0.204 NA
ATOM     14  O   UNL d   1      55.112  32.988  53.549  0.00  0.00    -0.265 OA
BRANCH  13  15
ATOM     15  C   UNL d   1      53.226  33.775  53.975  0.00  0.00     0.127 C 
BRANCH  15  16
ATOM     16  C   UNL d   1      52.941  34.538  54.130  0.00  0.00     0.119 A 
ATOM     17  O   UNL d   1      53.253  35.070  54.673  0.00  0.00    -0.304 OA
ATOM     18  C   UNL d   1      52.797  35.746  54.638  0.00  0.00     0.123 A 
ATOM     19  C   UNL d   1      52.202  35.626  54.070  0.00  0.00     0.029 A 
ATOM     20  C   UNL d   1      52.291  34.882  53.758  0.00  0.00     0.028 A 
ENDBRANCH  15  16
ENDBRANCH  13  15
ENDBRANCH   1  12
BRANCH   8  21
ATOM     21  O   UNL d   1      53.126  29.484  54.815  0.00  0.00    -0.326 OA
ATOM     22  C   UNL d   1      53.222  28.672  54.868  0.00  0.00     0.181 C 
ENDBRANCH   8  21
TORSDOF 4
ENDMDL
