MODEL 1
REMARK VINA RESULT:      19.0      0.000      0.000
REMARK  0 active torsions:
REMARK  status: ('A' for Active; 'I' for Inactive)
ROOT
ATOM      1  C   UNL d   1     -54.739-100.786 -37.342  0.00  0.00     0.134 A 
ATOM      2  N   UNL d   1     -54.732-100.987 -38.141  0.00  0.00    -0.234 NA
ATOM      3  C   UNL d   1     -54.749-101.387 -36.774  0.00  0.00     0.045 A 
ATOM      4  C   UNL d   1     -54.736-101.780 -38.369  0.00  0.00     0.207 A 
ATOM      5  N   UNL d   1     -54.747-102.385 -37.800  0.00  0.00    -0.244 NA
ATOM      6  C   UNL d   1     -54.753-102.184 -37.002  0.00  0.00     0.081 A 
ATOM      7  S   UNL d   1     -54.735 -99.995 -37.111  0.00  0.00    -0.058 SA
ATOM      8  C   UNL d   1     -54.756-101.189 -35.971  0.00  0.00     0.004 A 
ATOM      9  C   UNL d   1     -54.726-101.187 -38.939  0.00  0.00     0.023 A 
ATOM     10  C   UNL d   1     -54.740-102.575 -38.591  0.00  0.00     0.023 A 
ATOM     11  C   UNL d   1     -54.764-102.779 -36.427  0.00  0.00     0.019 A 
ATOM     12  C   UNL d   1     -54.766-101.781 -35.400  0.00  0.00     0.000 A 
ATOM     13  C   UNL d   1     -54.734-102.776 -39.382  0.00  0.00    -0.001 A 
ATOM     14  C   UNL d   1     -54.719-101.387 -39.738  0.00  0.00    -0.001 A 
ATOM     15  C   UNL d   1     -54.770-102.578 -35.629  0.00  0.00     0.002 A 
ATOM     16  C   UNL d   1     -54.723-102.182 -39.962  0.00  0.00    -0.000 A 
ENDROOT
TORSDOF 0
ENDMDL
