MODEL 1
REMARK VINA RESULT:      53.2      0.000      0.000
REMARK  3 active torsions:
REMARK  status: ('A' for Active; 'I' for Inactive)
REMARK    1  A    between atoms: C_8  and  C_2 
REMARK    2  A    between atoms: C_9  and  C_3 
REMARK    3  A    between atoms: N_6  and  C_8 
ROOT
ATOM      1  N   UNL d   1     -49.154  27.820  35.431  0.00  0.00    -0.121 NA
ATOM      2  C   UNL d   1     -49.379  27.361  34.198  0.00  0.00     0.222 A 
ATOM      3  C   UNL d   1     -48.772  28.324  34.904  0.00  0.00     0.204 A 
ATOM      4  O   UNL d   1     -48.914  28.035  34.138  0.00  0.00    -0.267 OA
ATOM      5  N   UNL d   1     -49.530  27.224  35.000  0.00  0.00    -0.119 NA
ENDROOT
BRANCH   2   6
ATOM      6  C   UNL d   1     -49.652  26.894  33.570  0.00  0.00     0.127 C 
BRANCH   6   7
ATOM      7  N   UNL d   1     -50.456  26.722  33.501  0.00  0.00    -0.301 N 
ATOM      8  C   UNL d   1     -50.695  25.941  33.439  0.00  0.00     0.064 A 
ATOM      9  C   UNL d   1     -51.496  25.756  33.369  0.00  0.00     0.016 A 
ATOM     10  C   UNL d   1     -50.146  25.333  33.444  0.00  0.00     0.018 A 
ATOM     11  C   UNL d   1     -51.742  24.980  33.306  0.00  0.00     0.001 A 
ATOM     12  C   UNL d   1     -52.052  26.370  33.363  0.00  0.00     0.003 A 
ATOM     13  C   UNL d   1     -51.191  24.376  33.312  0.00  0.00     0.000 A 
ATOM     14  C   UNL d   1     -50.385  24.552  33.382  0.00  0.00     0.002 A 
ATOM     15  C   UNL d   1     -51.809  27.153  33.425  0.00  0.00     0.019 A 
ATOM     16  C   UNL d   1     -51.002  27.333  33.496  0.00  0.00     0.080 A 
ENDBRANCH   6   7
ENDBRANCH   2   6
BRANCH   3  17
ATOM     17  C   UNL d   1     -48.329  28.994  35.101  0.00  0.00     0.043 A 
ATOM     18  C   UNL d   1     -47.694  28.919  35.624  0.00  0.00     0.004 A 
ATOM     19  C   UNL d   1     -47.249  29.585  35.823  0.00  0.00     0.000 A 
ATOM     20  C   UNL d   1     -47.442  30.321  35.498  0.00  0.00     0.000 A 
ATOM     21  C   UNL d   1     -48.079  30.388  34.974  0.00  0.00     0.000 A 
ATOM     22  C   UNL d   1     -48.521  29.721  34.778  0.00  0.00     0.004 A 
ENDBRANCH   3  17
TORSDOF 3
ENDMDL
