MODEL 1
REMARK VINA RESULT:      -0.8      0.000      0.000
REMARK  3 active torsions:
REMARK  status: ('A' for Active; 'I' for Inactive)
REMARK    1  A    between atoms: C_8  and  C_2 
REMARK    2  A    between atoms: N_9  and  C_8 
REMARK    3  A    between atoms: C_20  and  C_13 
ROOT
ATOM      1  C   UNL d   1     -42.429-122.421 -50.730  0.00  0.00     0.108 A 
ATOM      2  C   UNL d   1     -42.094-122.032 -51.378  0.00  0.00     0.079 A 
ATOM      3  O   UNL d   1     -43.063-122.918 -50.824  0.00  0.00    -0.273 OA
ATOM      4  C   UNL d   1     -43.400-123.310 -50.174  0.00  0.00     0.300 A 
ATOM      5  C   UNL d   1     -42.426-122.675 -49.322  0.00  0.00     0.007 A 
ATOM      6  C   UNL d   1     -42.110-122.300 -49.979  0.00  0.00     0.023 A 
ATOM      7  C   UNL d   1     -43.078-123.187 -49.416  0.00  0.00     0.064 A 
ATOM      8  C   UNL d   1     -41.463-121.795 -49.872  0.00  0.00     0.005 A 
ATOM      9  C   UNL d   1     -41.454-121.530 -51.287  0.00  0.00     0.199 A 
ATOM     10  O   UNL d   1     -44.046-123.817 -50.262  0.00  0.00    -0.259 OA
ATOM     11  C   UNL d   1     -41.136-121.409 -50.536  0.00  0.00     0.042 A 
ATOM     12  C   UNL d   1     -42.226-122.658 -48.526  0.00  0.00     0.000 A 
ATOM     13  C   UNL d   1     -43.274-123.482 -48.667  0.00  0.00     0.005 A 
ATOM     14  O   UNL d   1     -41.123-121.144 -51.934  0.00  0.00    -0.286 OA
ATOM     15  C   UNL d   1     -42.755-123.162 -48.115  0.00  0.00     0.000 A 
ENDROOT
BRANCH   2  16
ATOM     16  C   UNL d   1     -42.422-122.160 -52.133  0.00  0.00     0.085 C 
BRANCH  16  17
ATOM     17  N   UNL d   1     -42.038-122.637 -52.684  0.00  0.00    -0.304 N 
ATOM     18  C   UNL d   1     -42.172-122.518 -53.468  0.00  0.00     0.064 A 
ATOM     19  C   UNL d   1     -41.787-122.995 -54.018  0.00  0.00     0.018 A 
ATOM     20  C   UNL d   1     -41.270-123.588 -53.761  0.00  0.00     0.003 A 
ATOM     21  C   UNL d   1     -41.144-123.697 -52.975  0.00  0.00     0.019 A 
ATOM     22  C   UNL d   1     -41.529-123.220 -52.424  0.00  0.00     0.080 A 
BRANCH  18  23
ATOM     23  C   UNL d   1     -42.684-121.932 -53.726  0.00  0.00     0.018 C 
ATOM     24  C   UNL d   1     -42.768-121.765 -54.524  0.00  0.00     0.002 C 
ENDBRANCH  18  23
ENDBRANCH  16  17
ENDBRANCH   2  16
TORSDOF 3
ENDMDL
MODEL 2
REMARK VINA RESULT:       0.4      1.211      4.357
REMARK  3 active torsions:
REMARK  status: ('A' for Active; 'I' for Inactive)
REMARK    1  A    between atoms: C_8  and  C_2 
REMARK    2  A    between atoms: N_9  and  C_8 
REMARK    3  A    between atoms: C_20  and  C_13 
ROOT
ATOM      1  C   UNL d   1     -42.153-122.488 -53.452  0.00  0.00     0.108 A 
ATOM      2  C   UNL d   1     -42.027-122.836 -52.714  0.00  0.00     0.079 A 
ATOM      3  O   UNL d   1     -42.659-121.858 -53.535  0.00  0.00    -0.273 OA
ATOM      4  C   UNL d   1     -42.787-121.507 -54.276  0.00  0.00     0.300 A 
ATOM      5  C   UNL d   1     -41.869-122.456 -54.855  0.00  0.00     0.007 A 
ATOM      6  C   UNL d   1     -41.758-122.787 -54.112  0.00  0.00     0.023 A 
ATOM      7  C   UNL d   1     -42.389-121.809 -54.942  0.00  0.00     0.064 A 
ATOM      8  C   UNL d   1     -41.241-123.428 -54.038  0.00  0.00     0.005 A 
ATOM      9  C   UNL d   1     -41.517-123.471 -52.626  0.00  0.00     0.199 A 
ATOM     10  O   UNL d   1     -43.301-120.866 -54.369  0.00  0.00    -0.259 OA
ATOM     11  C   UNL d   1     -41.123-123.770 -53.286  0.00  0.00     0.042 A 
ATOM     12  C   UNL d   1     -41.557-122.636 -55.592  0.00  0.00     0.000 A 
ATOM     13  C   UNL d   1     -42.389-121.596 -55.743  0.00  0.00     0.005 A 
ATOM     14  O   UNL d   1     -41.393-123.816 -51.890  0.00  0.00    -0.286 OA
ATOM     15  C   UNL d   1     -41.881-122.099 -56.149  0.00  0.00     0.000 A 
ENDROOT
BRANCH   2  16
ATOM     16  C   UNL d   1     -42.429-122.528 -52.053  0.00  0.00     0.085 C 
BRANCH  16  17
ATOM     17  N   UNL d   1     -42.054-122.008 -51.536  0.00  0.00    -0.304 N 
ATOM     18  C   UNL d   1     -42.235-122.033 -50.753  0.00  0.00     0.064 A 
ATOM     19  C   UNL d   1     -41.860-121.514 -50.236  0.00  0.00     0.018 A 
ATOM     20  C   UNL d   1     -41.304-120.974 -50.525  0.00  0.00     0.003 A 
ATOM     21  C   UNL d   1     -41.130-120.958 -51.310  0.00  0.00     0.019 A 
ATOM     22  C   UNL d   1     -41.506-121.478 -51.827  0.00  0.00     0.080 A 
BRANCH  18  23
ATOM     23  C   UNL d   1     -42.787-122.567 -50.463  0.00  0.00     0.018 C 
ATOM     24  C   UNL d   1     -43.083-122.497 -49.701  0.00  0.00     0.002 C 
ENDBRANCH  18  23
ENDBRANCH  16  17
ENDBRANCH   2  16
TORSDOF 3
ENDMDL
MODEL 3
REMARK VINA RESULT:       2.1      1.625      2.735
REMARK  3 active torsions:
REMARK  status: ('A' for Active; 'I' for Inactive)
REMARK    1  A    between atoms: C_8  and  C_2 
REMARK    2  A    between atoms: N_9  and  C_8 
REMARK    3  A    between atoms: C_20  and  C_13 
ROOT
ATOM      1  C   UNL d   1     -41.383-122.228 -52.606  0.00  0.00     0.108 A 
ATOM      2  C   UNL d   1     -41.390-122.476 -53.394  0.00  0.00     0.079 A 
ATOM      3  O   UNL d   1     -41.500-121.448 -52.413  0.00  0.00    -0.273 OA
ATOM      4  C   UNL d   1     -41.493-121.198 -51.622  0.00  0.00     0.300 A 
ATOM      5  C   UNL d   1     -41.246-122.560 -51.220  0.00  0.00     0.007 A 
ATOM      6  C   UNL d   1     -41.257-122.784 -52.009  0.00  0.00     0.023 A 
ATOM      7  C   UNL d   1     -41.365-121.759 -51.019  0.00  0.00     0.064 A 
ATOM      8  C   UNL d   1     -41.137-123.581 -52.195  0.00  0.00     0.005 A 
ATOM      9  C   UNL d   1     -41.273-123.262 -53.592  0.00  0.00     0.199 A 
ATOM     10  O   UNL d   1     -41.611-120.406 -51.417  0.00  0.00    -0.259 OA
ATOM     11  C   UNL d   1     -41.147-123.818 -52.996  0.00  0.00     0.042 A 
ATOM     12  C   UNL d   1     -41.135-122.985 -50.527  0.00  0.00     0.000 A 
ATOM     13  C   UNL d   1     -41.326-121.700 -50.194  0.00  0.00     0.005 A 
ATOM     14  O   UNL d   1     -41.280-123.506 -54.378  0.00  0.00    -0.286 OA
ATOM     15  C   UNL d   1     -41.185-122.449 -49.884  0.00  0.00     0.000 A 
ENDROOT
BRANCH   2  16
ATOM     16  C   UNL d   1     -41.519-121.908 -53.990  0.00  0.00     0.085 C 
BRANCH  16  17
ATOM     17  N   UNL d   1     -42.109-122.016 -54.553  0.00  0.00    -0.304 N 
ATOM     18  C   UNL d   1     -41.963-121.817 -55.319  0.00  0.00     0.064 A 
ATOM     19  C   UNL d   1     -42.553-121.925 -55.882  0.00  0.00     0.018 A 
ATOM     20  C   UNL d   1     -43.286-122.235 -55.658  0.00  0.00     0.003 A 
ATOM     21  C   UNL d   1     -43.421-122.431 -54.890  0.00  0.00     0.019 A 
ATOM     22  C   UNL d   1     -42.830-122.323 -54.326  0.00  0.00     0.080 A 
BRANCH  18  23
ATOM     23  C   UNL d   1     -41.237-121.508 -55.545  0.00  0.00     0.018 C 
ATOM     24  C   UNL d   1     -41.138-121.149 -56.275  0.00  0.00     0.002 C 
ENDBRANCH  18  23
ENDBRANCH  16  17
ENDBRANCH   2  16
TORSDOF 3
ENDMDL
