MODEL 1
REMARK VINA RESULT:       6.8      0.000      0.000
REMARK  7 active torsions:
REMARK  status: ('A' for Active; 'I' for Inactive)
REMARK    1  A    between atoms: O_8  and  C_2 
REMARK    2  A    between atoms: C_10  and  C_5 
REMARK    3  A    between atoms: C_21  and  O_8 
REMARK    4  A    between atoms: N_9  and  C_10 
REMARK    5  A    between atoms: C_12  and  C_15 
REMARK    6  A    between atoms: O_26  and  C_12 
REMARK    7  A    between atoms: C_32  and  O_26 
ROOT
ATOM      1  C   UNL d   1     -42.591-122.698 -50.622  0.00  0.00     0.108 A 
ATOM      2  C   UNL d   1     -41.613-122.481 -51.947  0.00  0.00     0.161 A 
ATOM      3  C   UNL d   1     -42.592-121.967 -51.030  0.00  0.00     0.064 A 
ATOM      4  C   UNL d   1     -42.109-121.860 -51.685  0.00  0.00     0.222 A 
ATOM      5  C   UNL d   1     -43.080-122.807 -49.960  0.00  0.00     0.079 A 
ATOM      6  O   UNL d   1     -42.103-123.320 -50.875  0.00  0.00    -0.305 OA
ATOM      7  C   UNL d   1     -41.611-123.206 -51.543  0.00  0.00     0.126 A 
ATOM      8  C   UNL d   1     -43.089-121.356 -50.762  0.00  0.00     0.009 A 
ATOM      9  C   UNL d   1     -43.568-122.195 -49.702  0.00  0.00     0.199 A 
ATOM     10  O   UNL d   1     -42.108-121.139 -52.090  0.00  0.00    -0.284 OA
ATOM     11  C   UNL d   1     -43.573-121.466 -50.105  0.00  0.00     0.042 A 
ATOM     12  O   UNL d   1     -44.051-122.300 -49.049  0.00  0.00    -0.286 OA
ATOM     13  C   UNL d   1     -41.123-123.817 -51.802  0.00  0.00     0.029 C 
ENDROOT
BRANCH   2  14
ATOM     14  O   UNL d   1     -41.129-122.371 -52.605  0.00  0.00    -0.302 OA
BRANCH  14  15
ATOM     15  C   UNL d   1     -41.465-122.252 -53.346  0.00  0.00     0.100 A 
ATOM     16  C   UNL d   1     -41.885-122.861 -53.709  0.00  0.00     0.025 A 
ATOM     17  C   UNL d   1     -42.220-122.742 -54.450  0.00  0.00     0.007 A 
ATOM     18  C   UNL d   1     -42.137-122.015 -54.830  0.00  0.00     0.064 A 
ATOM     19  C   UNL d   1     -41.710-121.401 -54.459  0.00  0.00     0.007 A 
ATOM     20  C   UNL d   1     -41.379-121.523 -53.723  0.00  0.00     0.025 A 
BRANCH  18  21
ATOM     21  C   UNL d   1     -42.472-121.892 -55.575  0.00  0.00     0.300 C 
ATOM     22  O   UNL d   1     -43.292-121.901 -55.669  0.00  0.00    -0.259 OA
BRANCH  21  23
ATOM     23  O   UNL d   1     -41.992-121.759 -56.234  0.00  0.00    -0.271 OA
BRANCH  23  24
ATOM     24  C   UNL d   1     -42.328-121.748 -56.987  0.00  0.00     0.126 C 
ATOM     25  C   UNL d   1     -42.307-121.063 -57.443  0.00  0.00     0.029 C 
ENDBRANCH  23  24
ENDBRANCH  21  23
ENDBRANCH  18  21
ENDBRANCH  14  15
ENDBRANCH   2  14
BRANCH   5  26
ATOM     26  C   UNL d   1     -43.075-123.521 -49.566  0.00  0.00     0.086 C 
BRANCH  26  27
ATOM     27  N   UNL d   1     -42.680-123.591 -48.842  0.00  0.00    -0.300 N 
ATOM     28  C   UNL d   1     -43.106-123.747 -48.153  0.00  0.00     0.100 A 
ATOM     29  C   UNL d   1     -42.712-123.816 -47.437  0.00  0.00     0.100 A 
ATOM     30  N   UNL d   1     -41.895-123.730 -47.401  0.00  0.00    -0.299 N 
ATOM     31  C   UNL d   1     -41.467-123.573 -48.094  0.00  0.00     0.100 A 
ATOM     32  C   UNL d   1     -41.496-123.800 -46.676  0.00  0.00     0.100 C 
ATOM     33  C   UNL d   1     -41.863-123.504 -48.817  0.00  0.00     0.100 A 
ENDBRANCH  26  27
ENDBRANCH   5  26
TORSDOF 7
ENDMDL
