MODEL 1
REMARK VINA RESULT:      17.8      0.000      0.000
REMARK  3 active torsions:
REMARK  status: ('A' for Active; 'I' for Inactive)
REMARK    1  A    between atoms: N_6  and  C_2 
REMARK    2  A    between atoms: C_8  and  C_3 
REMARK       I    between atoms: C_7  and  N_6 
REMARK    3  A    between atoms: C_10  and  C_7 
ROOT
ATOM      1  N   UNL d   1      58.698  49.691  50.432  0.00  0.00    -0.200 NA
ATOM      2  C   UNL d   1      57.897  49.699  50.606  0.00  0.00     0.216 A 
ATOM      3  C   UNL d   1      59.117  49.695  51.150  0.00  0.00     0.172 A 
ATOM      4  N   UNL d   1      58.566  49.705  51.764  0.00  0.00    -0.187 NA
ATOM      5  S   UNL d   1      57.808  49.708  51.429  0.00  0.00     0.054 SA
ENDROOT
BRANCH   3   6
ATOM      6  C   UNL d   1      59.935  49.689  51.231  0.00  0.00     0.036 A 
ATOM      7  C   UNL d   1      60.416  49.700  50.566  0.00  0.00     0.003 A 
ATOM      8  C   UNL d   1      61.237  49.694  50.656  0.00  0.00     0.000 A 
ATOM      9  C   UNL d   1      61.572  49.676  51.410  0.00  0.00     0.000 A 
ATOM     10  C   UNL d   1      61.089  49.665  52.078  0.00  0.00     0.000 A 
ATOM     11  C   UNL d   1      60.266  49.671  51.982  0.00  0.00     0.003 A 
ENDBRANCH   3   6
BRANCH   2  12
ATOM     12  N   UNL d   1      57.284  49.699  50.055  0.00  0.00    -0.181 NA
ATOM     13  C   UNL d   1      56.647  49.186  50.153  0.00  0.00     0.281 C 
ATOM     14  O   UNL d   1      56.622  48.675  50.798  0.00  0.00    -0.265 OA
BRANCH  13  15
ATOM     15  C   UNL d   1      56.040  49.186  49.607  0.00  0.00     0.063 C 
ATOM     16  C   UNL d   1      56.075  49.674  48.941  0.00  0.00     0.005 C 
ENDBRANCH  13  15
ENDBRANCH   2  12
TORSDOF 3
ENDMDL
MODEL 2
REMARK VINA RESULT:      18.0      1.493      4.023
REMARK  3 active torsions:
REMARK  status: ('A' for Active; 'I' for Inactive)
REMARK    1  A    between atoms: N_6  and  C_2 
REMARK    2  A    between atoms: C_8  and  C_3 
REMARK       I    between atoms: C_7  and  N_6 
REMARK    3  A    between atoms: C_10  and  C_7 
ROOT
ATOM      1  N   UNL d   1      58.962  49.682  50.835  0.00  0.00    -0.200 NA
ATOM      2  C   UNL d   1      59.751  49.696  50.611  0.00  0.00     0.216 A 
ATOM      3  C   UNL d   1      58.499  49.683  50.144  0.00  0.00     0.172 A 
ATOM      4  N   UNL d   1      59.012  49.697  49.498  0.00  0.00    -0.187 NA
ATOM      5  S   UNL d   1      59.789  49.706  49.785  0.00  0.00     0.054 SA
ENDROOT
BRANCH   3   6
ATOM      6  C   UNL d   1      57.678  49.671  50.115  0.00  0.00     0.036 A 
ATOM      7  C   UNL d   1      57.240  49.688  50.808  0.00  0.00     0.003 A 
ATOM      8  C   UNL d   1      56.414  49.676  50.770  0.00  0.00     0.000 A 
ATOM      9  C   UNL d   1      56.034  49.647  50.038  0.00  0.00     0.000 A 
ATOM     10  C   UNL d   1      56.475  49.629  49.341  0.00  0.00     0.000 A 
ATOM     11  C   UNL d   1      57.301  49.642  49.385  0.00  0.00     0.003 A 
ENDBRANCH   3   6
BRANCH   2  12
ATOM     12  N   UNL d   1      60.397  49.700  51.123  0.00  0.00    -0.181 NA
ATOM     13  C   UNL d   1      60.970  49.112  51.061  0.00  0.00     0.281 C 
ATOM     14  O   UNL d   1      60.900  48.523  50.491  0.00  0.00    -0.265 OA
BRANCH  13  15
ATOM     15  C   UNL d   1      61.611  49.116  51.569  0.00  0.00     0.063 C 
ATOM     16  C   UNL d   1      61.643  49.649  52.200  0.00  0.00     0.005 C 
ENDBRANCH  13  15
ENDBRANCH   2  12
TORSDOF 3
ENDMDL
MODEL 3
REMARK VINA RESULT:      18.7      1.282      3.938
REMARK  3 active torsions:
REMARK  status: ('A' for Active; 'I' for Inactive)
REMARK    1  A    between atoms: N_6  and  C_2 
REMARK    2  A    between atoms: C_8  and  C_3 
REMARK       I    between atoms: C_7  and  N_6 
REMARK    3  A    between atoms: C_10  and  C_7 
ROOT
ATOM      1  N   UNL d   1      58.936  49.706  50.305  0.00  0.00    -0.200 NA
ATOM      2  C   UNL d   1      59.475  49.697  50.923  0.00  0.00     0.216 A 
ATOM      3  C   UNL d   1      58.171  49.691  50.631  0.00  0.00     0.172 A 
ATOM      4  N   UNL d   1      58.248  49.673  51.453  0.00  0.00    -0.187 NA
ATOM      5  S   UNL d   1      59.056  49.677  51.636  0.00  0.00     0.054 SA
ENDROOT
BRANCH   3   6
ATOM      6  C   UNL d   1      57.467  49.693  50.208  0.00  0.00     0.036 A 
ATOM      7  C   UNL d   1      57.478  49.684  49.388  0.00  0.00     0.003 A 
ATOM      8  C   UNL d   1      56.765  49.686  48.970  0.00  0.00     0.000 A 
ATOM      9  C   UNL d   1      56.047  49.698  49.376  0.00  0.00     0.000 A 
ATOM     10  C   UNL d   1      56.036  49.707  50.200  0.00  0.00     0.000 A 
ATOM     11  C   UNL d   1      56.752  49.705  50.614  0.00  0.00     0.003 A 
ENDBRANCH   3   6
BRANCH   2  12
ATOM     12  N   UNL d   1      60.295  49.708  50.846  0.00  0.00    -0.181 NA
ATOM     13  C   UNL d   1      60.767  49.445  51.469  0.00  0.00     0.281 C 
ATOM     14  O   UNL d   1      60.421  49.173  52.165  0.00  0.00    -0.265 OA
BRANCH  13  15
ATOM     15  C   UNL d   1      61.580  49.455  51.393  0.00  0.00     0.063 C 
ATOM     16  C   UNL d   1      62.062  49.587  52.051  0.00  0.00     0.005 C 
ENDBRANCH  13  15
ENDBRANCH   2  12
TORSDOF 3
ENDMDL
