MODEL 1
REMARK VINA RESULT:      80.2      0.000      0.000
REMARK  7 active torsions:
REMARK  status: ('A' for Active; 'I' for Inactive)
REMARK    1  A    between atoms: C_7  and  C_1 
REMARK    2  A    between atoms: N_5  and  C_2 
REMARK       I    between atoms: C_8  and  N_5 
REMARK    3  A    between atoms: N_9  and  C_7 
REMARK    4  A    between atoms: C_12  and  C_7 
REMARK    5  A    between atoms: C_10  and  C_8 
REMARK    6  A    between atoms: C_26  and  N_11 
REMARK    7  A    between atoms: C_30  and  C_26 
ROOT
ATOM      1  C   UNL d   1      45.233 -18.835  42.533  0.00  0.00     0.068 C 
ENDROOT
BRANCH   1   2
ATOM      2  C   UNL d   1      45.688 -18.812  43.258  0.00  0.00     0.041 A 
ATOM      3  C   UNL d   1      45.998 -18.207  43.701  0.00  0.00     0.115 A 
ATOM      4  S   UNL d   1      46.384 -18.553  44.345  0.00  0.00    -0.068 SA
ATOM      5  C   UNL d   1      46.327 -19.367  44.324  0.00  0.00     0.031 A 
ATOM      6  C   UNL d   1      45.878 -19.552  43.624  0.00  0.00     0.009 A 
ATOM      7  C   UNL d   1      46.639 -19.897  44.867  0.00  0.00     0.007 C 
ATOM      8  C   UNL d   1      45.678 -20.307  43.370  0.00  0.00     0.001 C 
BRANCH   3   9
ATOM      9  N   UNL d   1      45.947 -17.405  43.550  0.00  0.00    -0.200 NA
ATOM     10  C   UNL d   1      45.839 -16.885  44.184  0.00  0.00     0.302 C 
ATOM     11  O   UNL d   1      45.786 -17.179  44.954  0.00  0.00    -0.263 OA
BRANCH  10  12
ATOM     12  C   UNL d   1      45.784 -16.072  44.061  0.00  0.00     0.158 A 
ATOM     13  O   UNL d   1      46.385 -15.486  44.077  0.00  0.00    -0.300 OA
ATOM     14  C   UNL d   1      46.017 -14.763  43.917  0.00  0.00     0.123 A 
ATOM     15  C   UNL d   1      45.221 -14.914  43.808  0.00  0.00     0.029 A 
ATOM     16  C   UNL d   1      45.058 -15.715  43.893  0.00  0.00     0.032 A 
ENDBRANCH  10  12
ENDBRANCH   3   9
ENDBRANCH   1   2
BRANCH   1  17
ATOM     17  N   UNL d   1      45.585 -18.498  41.830  0.00  0.00    -0.301 N 
ATOM     18  C   UNL d   1      45.168 -17.908  41.436  0.00  0.00     0.100 A 
ATOM     19  C   UNL d   1      45.505 -17.583  40.759  0.00  0.00     0.100 A 
ATOM     20  N   UNL d   1      46.256 -17.847  40.478  0.00  0.00    -0.297 N 
ATOM     21  C   UNL d   1      46.644 -18.426  40.883  0.00  0.00     0.100 A 
ATOM     22  C   UNL d   1      46.336 -18.761  41.549  0.00  0.00     0.100 A 
BRANCH  20  23
ATOM     23  C   UNL d   1      46.587 -17.502  39.782  0.00  0.00     0.126 C 
BRANCH  23  24
ATOM     24  C   UNL d   1      46.102 -17.065  39.247  0.00  0.00     0.253 C 
ATOM     25  O   UNL d   1      46.443 -16.498  38.731  0.00  0.00    -0.281 OA
ENDBRANCH  23  24
ENDBRANCH  20  23
ENDBRANCH   1  17
BRANCH   1  26
ATOM     26  C   UNL d   1      44.467 -19.177  42.514  0.00  0.00     0.035 A 
ATOM     27  C   UNL d   1      43.802 -18.671  42.512  0.00  0.00     0.100 A 
ATOM     28  N   UNL d   1      43.033 -19.014  42.492  0.00  0.00    -0.242 NA
ATOM     29  C   UNL d   1      42.974 -19.843  42.475  0.00  0.00     0.099 A 
ATOM     30  C   UNL d   1      43.619 -20.327  42.477  0.00  0.00     0.021 A 
ATOM     31  C   UNL d   1      44.389 -19.984  42.497  0.00  0.00     0.005 A 
ENDBRANCH   1  26
TORSDOF 7
ENDMDL
