MODEL 1
REMARK VINA RESULT:       4.0      0.000      0.000
REMARK  6 active torsions:
REMARK  status: ('A' for Active; 'I' for Inactive)
REMARK    1  A    between atoms: N_3  and  S_1 
REMARK    2  A    between atoms: C_7  and  S_1 
REMARK    3  A    between atoms: C_2  and  N_3 
REMARK    4  A    between atoms: N_8  and  C_5 
REMARK    5  A    between atoms: C_20  and  N_8 
REMARK    6  A    between atoms: C_13  and  C_20 
ROOT
ATOM      1  C   UNL d   1     -41.718-122.176 -51.966  0.00  0.00     0.211 A 
ATOM      2  N   UNL d   1     -42.103-122.881 -51.743  0.00  0.00    -0.222 NA
ATOM      3  C   UNL d   1     -41.605-121.574 -51.400  0.00  0.00     0.200 A 
ATOM      4  N   UNL d   1     -41.874-121.686 -50.639  0.00  0.00    -0.223 NA
ATOM      5  C   UNL d   1     -42.373-122.989 -50.970  0.00  0.00     0.101 A 
ATOM      6  C   UNL d   1     -42.253-122.378 -50.415  0.00  0.00     0.101 A 
ATOM      7  C   UNL d   1     -42.529-122.483 -49.616  0.00  0.00     0.021 A 
ATOM      8  C   UNL d   1     -42.765-123.703 -50.737  0.00  0.00     0.021 A 
ATOM      9  C   UNL d   1     -42.915-123.199 -49.409  0.00  0.00     0.002 A 
ATOM     10  C   UNL d   1     -43.028-123.802 -49.975  0.00  0.00     0.002 A 
ENDROOT
BRANCH   1  11
ATOM     11  N   UNL d   1     -41.454-122.041 -52.676  0.00  0.00    -0.136 NA
BRANCH  11  12
ATOM     12  S   UNL d   1     -41.545-122.528 -53.313  0.00  0.00     0.287 S 
ATOM     13  O   UNL d   1     -41.576-123.191 -53.864  0.00  0.00    -0.198 OA
ATOM     14  O   UNL d   1     -41.274-122.993 -52.714  0.00  0.00    -0.198 OA
BRANCH  12  15
ATOM     15  C   UNL d   1     -41.802-122.356 -54.062  0.00  0.00     0.105 A 
ATOM     16  C   UNL d   1     -41.319-122.496 -54.706  0.00  0.00     0.013 A 
ATOM     17  C   UNL d   1     -41.563-122.326 -55.495  0.00  0.00     0.001 A 
ATOM     18  C   UNL d   1     -42.333-121.999 -55.615  0.00  0.00     0.000 A 
ATOM     19  C   UNL d   1     -42.824-121.855 -54.976  0.00  0.00     0.001 A 
ATOM     20  C   UNL d   1     -42.619-121.815 -56.358  0.00  0.00     0.000 C 
ATOM     21  C   UNL d   1     -42.560-122.033 -54.190  0.00  0.00     0.013 A 
ENDBRANCH  12  15
ENDBRANCH  11  12
ENDBRANCH   1  11
BRANCH   3  22
ATOM     22  N   UNL d   1     -41.236-120.921 -51.649  0.00  0.00    -0.221 NA
BRANCH  22  23
ATOM     23  C   UNL d   1     -41.139-120.218 -51.306  0.00  0.00     0.125 C 
BRANCH  23  24
ATOM     24  C   UNL d   1     -41.133-119.568 -51.753  0.00  0.00     0.119 A 
ATOM     25  O   UNL d   1     -41.127-119.539 -52.539  0.00  0.00    -0.304 OA
ATOM     26  C   UNL d   1     -41.123-118.797 -52.756  0.00  0.00     0.123 A 
ATOM     27  C   UNL d   1     -41.125-118.350 -52.107  0.00  0.00     0.029 A 
ATOM     28  C   UNL d   1     -41.132-118.827 -51.485  0.00  0.00     0.028 A 
ENDBRANCH  23  24
ENDBRANCH  22  23
ENDBRANCH   3  22
TORSDOF 6
ENDMDL
