MODEL 1
REMARK VINA RESULT:       6.3      0.000      0.000
REMARK  2 active torsions:
REMARK  status: ('A' for Active; 'I' for Inactive)
REMARK    1  A    between atoms: CA_2  and  C_1 
REMARK    2  A    between atoms: C_3  and  CA_2 
ROOT
ATOM      1  C   UNL d   1      13.898  12.091  -1.414  0.00  0.00     0.025 A 
ATOM      2  C   UNL d   1      14.426  12.411  -1.957  0.00  0.00     0.002 A 
ATOM      3  C   UNL d   1      13.173  11.780  -1.673  0.00  0.00     0.002 A 
ATOM      4  C   UNL d   1      14.236  12.422  -2.758  0.00  0.00     0.000 A 
ATOM      5  C   UNL d   1      12.983  11.791  -2.473  0.00  0.00     0.000 A 
ATOM      6  C   UNL d   1      13.511  12.111  -3.017  0.00  0.00     0.000 A 
ATOM      7  C   UNL d   1      13.322  12.123  -3.821  0.00  0.00     0.000 C 
ENDROOT
BRANCH   1   8
ATOM      8  CA  UNL d   1      14.095  12.083  -0.610  0.00  0.00     0.167 C 
ATOM      9  N   UNL d   1      13.541  11.815  -0.053  0.00  0.00    -0.142 N 
BRANCH   8  10
ATOM     10  C   UNL d   1      14.838  12.338  -0.359  0.00  0.00     0.231 C 
ATOM     11  O   UNL d   1      14.965  13.138  -0.190  0.00  0.00    -0.643 OA
ATOM     12  OXT UNL d   1      15.454  11.798  -0.276  0.00  0.00    -0.643 OA
ENDBRANCH   8  10
ENDBRANCH   1   8
TORSDOF 2
ENDMDL
