MODEL 1
REMARK VINA RESULT:      63.2      0.000      0.000
REMARK  0 active torsions:
REMARK  status: ('A' for Active; 'I' for Inactive)
REMARK       I    between atoms: N_3  and  C_1 
REMARK       I    between atoms: N_5  and  C_1 
REMARK       I    between atoms: C_2  and  N_4 
REMARK       I    between atoms: N_6  and  C_2 
ROOT
ATOM      1  C   UNL d   1      13.887  13.111  -2.880  0.00  0.00     0.339 C 
ATOM      2  C   UNL d   1      14.780  16.215  -2.202  0.00  0.00     0.340 C 
ATOM      3  N   UNL d   1      14.112  13.899  -2.711  0.00  0.00    -0.254 N 
ATOM      4  N   UNL d   1      14.555  15.440  -2.375  0.00  0.00    -0.254 N 
ATOM      5  N   UNL d   1      13.546  12.925  -3.607  0.00  0.00    -0.258 N 
ATOM      6  N   UNL d   1      15.119  16.392  -1.475  0.00  0.00    -0.253 N 
ATOM      7  O   UNL d   1      14.007  12.525  -2.320  0.00  0.00    -0.245 OA
ATOM      8  O   UNL d   1      14.665  16.816  -2.758  0.00  0.00    -0.245 OA
ATOM      9  C   UNL d   1      14.208  15.264  -3.121  0.00  0.00     0.104 A 
ATOM     10  C   UNL d   1      14.670  14.848  -1.825  0.00  0.00     0.104 A 
ATOM     11  C   UNL d   1      14.446  14.072  -1.994  0.00  0.00     0.104 A 
ATOM     12  C   UNL d   1      13.985  14.488  -3.290  0.00  0.00     0.104 A 
ATOM     13  O   UNL d   1      15.798  16.733  -0.014  0.00  0.00    -0.300 OA
ATOM     14  C   UNL d   1      15.234  15.790  -0.919  0.00  0.00     0.111 A 
ATOM     15  C   UNL d   1      15.342  17.168  -1.306  0.00  0.00     0.111 A 
ATOM     16  C   UNL d   1      13.344  12.135  -3.720  0.00  0.00     0.085 A 
ATOM     17  C   UNL d   1      13.450  13.558  -4.133  0.00  0.00     0.085 A 
ATOM     18  C   UNL d   1      15.684  17.339  -0.569  0.00  0.00     0.142 A 
ATOM     19  C   UNL d   1      15.571  15.960  -0.194  0.00  0.00     0.142 A 
ATOM     20  C   UNL d   1      12.999  11.779  -4.377  0.00  0.00     0.019 A 
ATOM     21  C   UNL d   1      13.129  13.551  -4.894  0.00  0.00     0.019 A 
ATOM     22  C   UNL d   1      12.769  12.120  -5.086  0.00  0.00     0.002 A 
ATOM     23  C   UNL d   1      12.827  12.911  -5.315  0.00  0.00     0.002 A 
ENDROOT
TORSDOF 0
ENDMDL
