MODEL 1
REMARK VINA RESULT:      16.7      0.000      0.000
REMARK  3 active torsions:
REMARK  status: ('A' for Active; 'I' for Inactive)
REMARK    1  A    between atoms: C_6  and  C_1 
REMARK    2  A    between atoms: C_7  and  C_3 
REMARK    3  A    between atoms: C_11  and  C_7 
ROOT
ATOM      1  C   UNL d   1      13.237  13.202  -3.883  0.00  0.00     0.085 A 
ATOM      2  C   UNL d   1      13.598  13.691  -3.331  0.00  0.00     0.137 A 
ATOM      3  C   UNL d   1      13.540  12.470  -2.818  0.00  0.00     0.031 A 
ATOM      4  S   UNL d   1      13.784  13.230  -2.672  0.00  0.00    -0.066 SA
ATOM      5  C   UNL d   1      13.198  12.440  -3.571  0.00  0.00     0.013 A 
ATOM      6  N   UNL d   1      13.738  14.506  -3.447  0.00  0.00    -0.141 N 
ATOM      7  C   UNL d   1      12.890  11.795  -3.921  0.00  0.00     0.001 C 
ENDROOT
BRANCH   3   8
ATOM      8  C   UNL d   1      13.581  11.779  -2.361  0.00  0.00     0.006 C 
BRANCH   8   9
ATOM      9  C   UNL d   1      13.907  11.791  -1.606  0.00  0.00     0.001 A 
ATOM     10  C   UNL d   1      14.718  11.800  -1.512  0.00  0.00     0.000 A 
ATOM     11  C   UNL d   1      15.043  11.812  -0.741  0.00  0.00     0.000 A 
ATOM     12  C   UNL d   1      14.539  11.814  -0.100  0.00  0.00     0.000 A 
ATOM     13  C   UNL d   1      13.714  11.804  -0.192  0.00  0.00     0.000 A 
ATOM     14  C   UNL d   1      13.413  11.793  -0.938  0.00  0.00     0.000 A 
ENDBRANCH   8   9
ENDBRANCH   3   8
BRANCH   1  15
ATOM     15  C   UNL d   1      12.963  13.456  -4.632  0.00  0.00     0.299 C 
ATOM     16  O   UNL d   1      12.775  14.237  -4.781  0.00  0.00    -0.264 OA
ATOM     17  N   UNL d   1      12.885  12.870  -5.243  0.00  0.00    -0.102 N 
ENDBRANCH   1  15
TORSDOF 3
ENDMDL
