MODEL 1
REMARK VINA RESULT:     114.6      0.000      0.000
REMARK  5 active torsions:
REMARK  status: ('A' for Active; 'I' for Inactive)
REMARK    1  A    between atoms: S_5  and  C_3 
REMARK    2  A    between atoms: C_13  and  S_5 
REMARK    3  A    between atoms: C_23  and  N_7 
REMARK    4  A    between atoms: C_30  and  C_23 
REMARK    5  A    between atoms: O_29  and  C_30 
ROOT
ATOM      1  C   UNL d   1     -49.133  28.041  35.730  0.00  0.00     0.155 A 
ATOM      2  C   UNL d   1     -49.089  27.903  34.927  0.00  0.00     0.092 A 
ATOM      3  C   UNL d   1     -50.105  26.925  35.039  0.00  0.00     0.124 A 
ATOM      4  N   UNL d   1     -48.651  28.597  36.082  0.00  0.00    -0.210 NA
ATOM      5  N   UNL d   1     -48.069  28.888  34.828  0.00  0.00    -0.258 N 
ATOM      6  N   UNL d   1     -49.663  27.622  36.194  0.00  0.00    -0.271 N 
ATOM      7  C   UNL d   1     -48.119  29.021  35.631  0.00  0.00     0.152 A 
ATOM      8  C   UNL d   1     -50.148  27.064  35.842  0.00  0.00     0.181 A 
ATOM      9  C   UNL d   1     -48.558  28.325  34.472  0.00  0.00     0.269 A 
ATOM     10  C   UNL d   1     -49.572  27.347  34.575  0.00  0.00     0.022 A 
ATOM     11  C   UNL d   1     -47.637  29.576  35.983  0.00  0.00     0.035 A 
ATOM     12  C   UNL d   1     -47.538  29.311  34.373  0.00  0.00     0.084 A 
ATOM     13  N   UNL d   1     -50.691  26.634  36.316  0.00  0.00    -0.128 N 
ATOM     14  O   UNL d   1     -48.507  28.189  33.647  0.00  0.00    -0.266 OA
ATOM     15  C   UNL d   1     -47.055  29.868  34.729  0.00  0.00     0.019 A 
ATOM     16  C   UNL d   1     -47.105  30.000  35.533  0.00  0.00     0.005 A 
ATOM     17  C   UNL d   1     -47.688  29.712  36.808  0.00  0.00     0.003 C 
ENDROOT
BRANCH   3  18
ATOM     18  S   UNL d   1     -50.599  26.357  34.688  0.00  0.00     0.213 S 
ATOM     19  O   UNL d   1     -50.985  26.948  34.243  0.00  0.00    -0.217 OA
ATOM     20  O   UNL d   1     -50.221  25.764  35.127  0.00  0.00    -0.217 OA
BRANCH  18  21
ATOM     21  C   UNL d   1     -51.091  25.778  34.342  0.00  0.00     0.088 A 
ATOM     22  C   UNL d   1     -50.843  25.373  33.664  0.00  0.00     0.014 A 
ATOM     23  C   UNL d   1     -51.334  24.797  33.322  0.00  0.00     0.030 A 
ATOM     24  C   UNL d   1     -52.075  24.627  33.662  0.00  0.00     0.140 A 
ATOM     25  C   UNL d   1     -52.321  25.041  34.351  0.00  0.00     0.030 A 
ATOM     26  F   UNL d   1     -52.574  24.046  33.321  0.00  0.00    -0.204 F 
ATOM     27  C   UNL d   1     -51.827  25.612  34.685  0.00  0.00     0.014 A 
ENDBRANCH  18  21
ENDBRANCH   3  18
BRANCH   6  28
ATOM     28  C   UNL d   1     -49.707  27.763  37.010  0.00  0.00     0.109 C 
BRANCH  28  29
ATOM     29  C   UNL d   1     -50.344  27.460  37.449  0.00  0.00     0.135 C 
BRANCH  29  30
ATOM     30  O   UNL d   1     -50.397  27.617  38.271  0.00  0.00    -0.325 OA
ATOM     31  C   UNL d   1     -51.141  27.629  38.644  0.00  0.00     0.182 C 
ENDBRANCH  29  30
ENDBRANCH  28  29
ENDBRANCH   6  28
TORSDOF 5
ENDMDL
MODEL 2
REMARK VINA RESULT:     115.3      2.138      5.006
REMARK  5 active torsions:
REMARK  status: ('A' for Active; 'I' for Inactive)
REMARK    1  A    between atoms: S_5  and  C_3 
REMARK    2  A    between atoms: C_13  and  S_5 
REMARK    3  A    between atoms: C_23  and  N_7 
REMARK    4  A    between atoms: C_30  and  C_23 
REMARK    5  A    between atoms: O_29  and  C_30 
ROOT
ATOM      1  C   UNL d   1     -50.644  26.883  36.499  0.00  0.00     0.155 A 
ATOM      2  C   UNL d   1     -50.310  27.340  37.087  0.00  0.00     0.092 A 
ATOM      3  C   UNL d   1     -49.438  27.923  36.138  0.00  0.00     0.124 A 
ATOM      4  N   UNL d   1     -51.246  26.361  36.672  0.00  0.00    -0.210 NA
ATOM      5  N   UNL d   1     -51.192  26.746  38.030  0.00  0.00    -0.258 N 
ATOM      6  N   UNL d   1     -50.378  26.942  35.727  0.00  0.00    -0.271 N 
ATOM      7  C   UNL d   1     -51.521  26.292  37.437  0.00  0.00     0.152 A 
ATOM      8  C   UNL d   1     -49.772  27.466  35.552  0.00  0.00     0.181 A 
ATOM      9  C   UNL d   1     -50.582  27.274  37.855  0.00  0.00     0.269 A 
ATOM     10  C   UNL d   1     -49.707  27.861  36.913  0.00  0.00     0.022 A 
ATOM     11  C   UNL d   1     -52.123  25.771  37.609  0.00  0.00     0.035 A 
ATOM     12  C   UNL d   1     -51.464  26.680  38.798  0.00  0.00     0.084 A 
ATOM     13  N   UNL d   1     -49.499  27.528  34.760  0.00  0.00    -0.128 N 
ATOM     14  O   UNL d   1     -50.244  27.739  38.464  0.00  0.00    -0.266 OA
ATOM     15  C   UNL d   1     -52.069  26.155  38.968  0.00  0.00     0.019 A 
ATOM     16  C   UNL d   1     -52.398  25.702  38.374  0.00  0.00     0.005 A 
ATOM     17  C   UNL d   1     -52.461  25.305  37.000  0.00  0.00     0.003 C 
ENDROOT
BRANCH   3  18
ATOM     18  S   UNL d   1     -48.824  28.452  35.954  0.00  0.00     0.213 S 
ATOM     19  O   UNL d   1     -48.503  27.912  35.405  0.00  0.00    -0.217 OA
ATOM     20  O   UNL d   1     -49.136  28.995  36.499  0.00  0.00    -0.217 OA
BRANCH  18  21
ATOM     21  C   UNL d   1     -48.212  28.992  35.778  0.00  0.00     0.088 A 
ATOM     22  C   UNL d   1     -47.958  29.093  34.997  0.00  0.00     0.014 A 
ATOM     23  C   UNL d   1     -47.349  29.631  34.825  0.00  0.00     0.030 A 
ATOM     24  C   UNL d   1     -46.995  30.068  35.440  0.00  0.00     0.140 A 
ATOM     25  C   UNL d   1     -47.257  29.962  36.230  0.00  0.00     0.030 A 
ATOM     26  F   UNL d   1     -46.380  30.613  35.271  0.00  0.00    -0.204 F 
ATOM     27  C   UNL d   1     -47.863  29.425  36.393  0.00  0.00     0.014 A 
ENDBRANCH  18  21
ENDBRANCH   3  18
BRANCH   6  28
ATOM     28  C   UNL d   1     -50.718  26.478  35.130  0.00  0.00     0.109 C 
BRANCH  28  29
ATOM     29  C   UNL d   1     -50.938  26.826  34.408  0.00  0.00     0.135 C 
BRANCH  29  30
ATOM     30  O   UNL d   1     -51.130  26.342  33.751  0.00  0.00    -0.325 OA
ATOM     31  C   UNL d   1     -51.815  26.498  33.306  0.00  0.00     0.182 C 
ENDBRANCH  29  30
ENDBRANCH  28  29
ENDBRANCH   6  28
TORSDOF 5
ENDMDL
MODEL 3
REMARK VINA RESULT:     116.6      1.614      3.127
REMARK  5 active torsions:
REMARK  status: ('A' for Active; 'I' for Inactive)
REMARK    1  A    between atoms: S_5  and  C_3 
REMARK    2  A    between atoms: C_13  and  S_5 
REMARK    3  A    between atoms: C_23  and  N_7 
REMARK    4  A    between atoms: C_30  and  C_23 
REMARK    5  A    between atoms: O_29  and  C_30 
ROOT
ATOM      1  C   UNL d   1     -48.931  28.269  35.748  0.00  0.00     0.155 A 
ATOM      2  C   UNL d   1     -48.981  28.444  36.544  0.00  0.00     0.092 A 
ATOM      3  C   UNL d   1     -49.985  27.460  36.696  0.00  0.00     0.124 A 
ATOM      4  N   UNL d   1     -48.406  28.670  35.269  0.00  0.00    -0.210 NA
ATOM      5  N   UNL d   1     -47.971  29.430  36.377  0.00  0.00    -0.258 N 
ATOM      6  N   UNL d   1     -49.407  27.690  35.421  0.00  0.00    -0.271 N 
ATOM      7  C   UNL d   1     -47.926  29.250  35.582  0.00  0.00     0.152 A 
ATOM      8  C   UNL d   1     -49.934  27.286  35.901  0.00  0.00     0.181 A 
ATOM      9  C   UNL d   1     -48.502  29.024  36.862  0.00  0.00     0.269 A 
ATOM     10  C   UNL d   1     -49.505  28.043  37.023  0.00  0.00     0.022 A 
ATOM     11  C   UNL d   1     -47.402  29.651  35.103  0.00  0.00     0.035 A 
ATOM     12  C   UNL d   1     -47.491  30.011  36.695  0.00  0.00     0.084 A 
ATOM     13  N   UNL d   1     -50.422  26.692  35.566  0.00  0.00    -0.128 N 
ATOM     14  O   UNL d   1     -48.547  29.209  37.678  0.00  0.00    -0.266 OA
ATOM     15  C   UNL d   1     -46.967  30.411  36.211  0.00  0.00     0.019 A 
ATOM     16  C   UNL d   1     -46.922  30.231  35.417  0.00  0.00     0.005 A 
ATOM     17  C   UNL d   1     -47.357  29.466  34.287  0.00  0.00     0.003 C 
ENDROOT
BRANCH   3  18
ATOM     18  S   UNL d   1     -50.522  27.047  37.179  0.00  0.00     0.213 S 
ATOM     19  O   UNL d   1     -50.698  26.520  36.556  0.00  0.00    -0.217 OA
ATOM     20  O   UNL d   1     -50.352  27.567  37.802  0.00  0.00    -0.217 OA
BRANCH  18  21
ATOM     21  C   UNL d   1     -51.058  26.641  37.673  0.00  0.00     0.088 A 
ATOM     22  C   UNL d   1     -51.740  26.297  37.353  0.00  0.00     0.014 A 
ATOM     23  C   UNL d   1     -52.272  25.894  37.848  0.00  0.00     0.030 A 
ATOM     24  C   UNL d   1     -52.118  25.836  38.664  0.00  0.00     0.140 A 
ATOM     25  C   UNL d   1     -51.424  26.187  38.982  0.00  0.00     0.030 A 
ATOM     26  F   UNL d   1     -52.652  25.430  39.167  0.00  0.00    -0.204 F 
ATOM     27  C   UNL d   1     -50.900  26.586  38.485  0.00  0.00     0.014 A 
ENDBRANCH  18  21
ENDBRANCH   3  18
BRANCH   6  28
ATOM     28  C   UNL d   1     -49.355  27.513  34.612  0.00  0.00     0.109 C 
BRANCH  28  29
ATOM     29  C   UNL d   1     -50.040  27.305  34.189  0.00  0.00     0.135 C 
BRANCH  29  30
ATOM     30  O   UNL d   1     -49.972  26.903  33.457  0.00  0.00    -0.325 OA
ATOM     31  C   UNL d   1     -50.438  26.230  33.307  0.00  0.00     0.182 C 
ENDBRANCH  29  30
ENDBRANCH  28  29
ENDBRANCH   6  28
TORSDOF 5
ENDMDL
