MODEL 1
REMARK VINA RESULT:      -5.2      0.000      0.000
REMARK  6 active torsions:
REMARK  status: ('A' for Active; 'I' for Inactive)
REMARK    1  A    between atoms: C_7  and  C_1 
REMARK    2  A    between atoms: C_19  and  N_2 
REMARK    3  A    between atoms: C_18  and  N_3 
REMARK    4  A    between atoms: C_13  and  C_9 
REMARK    5  A    between atoms: O_20  and  C_13 
REMARK    6  A    between atoms: C_23  and  O_20 
ROOT
ATOM      1  C   UNL d   1      52.713  32.791  53.503  0.00  0.00     0.013 A 
ATOM      2  C   UNL d   1      52.757  31.976  53.354  0.00  0.00     0.030 A 
ATOM      3  C   UNL d   1      53.355  31.520  53.683  0.00  0.00     0.163 A 
ATOM      4  O   UNL d   1      53.927  31.874  54.174  0.00  0.00    -0.302 OA
ATOM      5  C   UNL d   1      53.278  33.151  53.991  0.00  0.00     0.023 A 
ATOM      6  C   UNL d   1      53.886  32.690  54.326  0.00  0.00     0.100 A 
ATOM      7  C   UNL d   1      53.243  33.961  54.146  0.00  0.00     0.002 A 
ATOM      8  C   UNL d   1      54.453  33.052  54.815  0.00  0.00     0.025 A 
ATOM      9  C   UNL d   1      53.805  34.319  54.631  0.00  0.00     0.000 A 
ATOM     10  C   UNL d   1      54.416  33.860  54.969  0.00  0.00     0.002 A 
ENDROOT
BRANCH   1  11
ATOM     11  C   UNL d   1      52.111  33.246  53.171  0.00  0.00     0.113 A 
ATOM     12  C   UNL d   1      51.386  33.316  53.564  0.00  0.00     0.271 A 
ATOM     13  N   UNL d   1      50.783  33.768  53.237  0.00  0.00    -0.250 N 
ATOM     14  O   UNL d   1      51.269  32.929  54.284  0.00  0.00    -0.266 OA
ATOM     15  C   UNL d   1      50.901  34.152  52.520  0.00  0.00     0.196 A 
ATOM     16  N   UNL d   1      51.627  34.082  52.127  0.00  0.00    -0.250 N 
ATOM     17  S   UNL d   1      50.296  34.609  52.187  0.00  0.00    -0.039 SA
ATOM     18  C   UNL d   1      52.238  33.629  52.450  0.00  0.00     0.271 A 
ATOM     19  O   UNL d   1      52.961  33.560  52.059  0.00  0.00    -0.266 OA
BRANCH  13  20
ATOM     20  C   UNL d   1      50.061  33.837  53.628  0.00  0.00     0.085 C 
ATOM     21  C   UNL d   1      49.793  34.575  53.870  0.00  0.00     0.021 C 
ENDBRANCH  13  20
BRANCH  16  22
ATOM     22  C   UNL d   1      51.739  34.471  51.406  0.00  0.00     0.085 C 
ATOM     23  C   UNL d   1      51.187  34.394  50.802  0.00  0.00     0.021 C 
ENDBRANCH  16  22
ENDBRANCH   1  11
BRANCH   3  24
ATOM     24  C   UNL d   1      53.391  30.715  53.529  0.00  0.00     0.323 C 
ATOM     25  O   UNL d   1      53.500  30.448  52.757  0.00  0.00    -0.257 OA
BRANCH  24  26
ATOM     26  O   UNL d   1      53.319  30.174  54.144  0.00  0.00    -0.270 OA
BRANCH  26  27
ATOM     27  C   UNL d   1      53.319  29.366  53.984  0.00  0.00     0.126 C 
ATOM     28  C   UNL d   1      53.333  28.821  54.600  0.00  0.00     0.029 C 
ENDBRANCH  26  27
ENDBRANCH  24  26
ENDBRANCH   3  24
TORSDOF 6
ENDMDL
MODEL 2
REMARK VINA RESULT:      -4.8      1.963      3.481
REMARK  6 active torsions:
REMARK  status: ('A' for Active; 'I' for Inactive)
REMARK    1  A    between atoms: C_7  and  C_1 
REMARK    2  A    between atoms: C_19  and  N_2 
REMARK    3  A    between atoms: C_18  and  N_3 
REMARK    4  A    between atoms: C_13  and  C_9 
REMARK    5  A    between atoms: O_20  and  C_13 
REMARK    6  A    between atoms: C_23  and  O_20 
ROOT
ATOM      1  C   UNL d   1      53.259  32.132  53.710  0.00  0.00     0.013 A 
ATOM      2  C   UNL d   1      53.334  31.307  53.667  0.00  0.00     0.030 A 
ATOM      3  C   UNL d   1      52.711  30.842  53.402  0.00  0.00     0.163 A 
ATOM      4  O   UNL d   1      51.994  31.197  53.172  0.00  0.00    -0.302 OA
ATOM      5  C   UNL d   1      52.550  32.493  53.482  0.00  0.00     0.023 A 
ATOM      6  C   UNL d   1      51.916  32.024  53.213  0.00  0.00     0.100 A 
ATOM      7  C   UNL d   1      52.465  33.314  53.520  0.00  0.00     0.002 A 
ATOM      8  C   UNL d   1      51.203  32.386  52.985  0.00  0.00     0.025 A 
ATOM      9  C   UNL d   1      51.759  33.673  53.294  0.00  0.00     0.000 A 
ATOM     10  C   UNL d   1      51.122  33.205  53.024  0.00  0.00     0.002 A 
ENDROOT
BRANCH   1  11
ATOM     11  C   UNL d   1      53.886  32.596  53.976  0.00  0.00     0.113 A 
ATOM     12  C   UNL d   1      54.437  32.892  53.433  0.00  0.00     0.271 A 
ATOM     13  N   UNL d   1      55.063  33.355  53.694  0.00  0.00    -0.250 N 
ATOM     14  O   UNL d   1      54.354  32.721  52.629  0.00  0.00    -0.266 OA
ATOM     15  C   UNL d   1      55.143  33.524  54.494  0.00  0.00     0.196 A 
ATOM     16  N   UNL d   1      54.593  33.228  55.037  0.00  0.00    -0.250 N 
ATOM     17  S   UNL d   1      55.774  33.990  54.761  0.00  0.00    -0.039 SA
ATOM     18  C   UNL d   1      53.959  32.761  54.782  0.00  0.00     0.271 A 
ATOM     19  O   UNL d   1      53.412  32.466  55.323  0.00  0.00    -0.266 OA
BRANCH  13  20
ATOM     20  C   UNL d   1      55.611  33.650  53.153  0.00  0.00     0.085 C 
ATOM     21  C   UNL d   1      55.938  33.153  52.586  0.00  0.00     0.021 C 
ENDBRANCH  13  20
BRANCH  16  22
ATOM     22  C   UNL d   1      54.679  33.401  55.841  0.00  0.00     0.085 C 
ATOM     23  C   UNL d   1      54.511  34.155  56.124  0.00  0.00     0.021 C 
ENDBRANCH  16  22
ENDBRANCH   1  11
BRANCH   3  24
ATOM     24  C   UNL d   1      52.793  30.026  53.364  0.00  0.00     0.323 C 
ATOM     25  O   UNL d   1      52.893  29.657  52.634  0.00  0.00    -0.257 OA
BRANCH  24  26
ATOM     26  O   UNL d   1      52.776  29.576  54.052  0.00  0.00    -0.270 OA
BRANCH  26  27
ATOM     27  C   UNL d   1      53.241  28.900  54.113  0.00  0.00     0.126 C 
ATOM     28  C   UNL d   1      53.305  28.505  54.833  0.00  0.00     0.029 C 
ENDBRANCH  26  27
ENDBRANCH  24  26
ENDBRANCH   3  24
TORSDOF 6
ENDMDL
MODEL 3
REMARK VINA RESULT:      -4.6      2.016      3.906
REMARK  6 active torsions:
REMARK  status: ('A' for Active; 'I' for Inactive)
REMARK    1  A    between atoms: C_7  and  C_1 
REMARK    2  A    between atoms: C_19  and  N_2 
REMARK    3  A    between atoms: C_18  and  N_3 
REMARK    4  A    between atoms: C_13  and  C_9 
REMARK    5  A    between atoms: O_20  and  C_13 
REMARK    6  A    between atoms: C_23  and  O_20 
ROOT
ATOM      1  C   UNL d   1      53.067  32.721  53.468  0.00  0.00     0.013 A 
ATOM      2  C   UNL d   1      52.536  33.254  53.121  0.00  0.00     0.030 A 
ATOM      3  C   UNL d   1      51.868  32.985  52.726  0.00  0.00     0.163 A 
ATOM      4  O   UNL d   1      51.717  32.169  52.671  0.00  0.00    -0.302 OA
ATOM      5  C   UNL d   1      52.925  31.907  53.417  0.00  0.00     0.023 A 
ATOM      6  C   UNL d   1      52.248  31.631  53.018  0.00  0.00     0.100 A 
ATOM      7  C   UNL d   1      53.447  31.367  53.760  0.00  0.00     0.002 A 
ATOM      8  C   UNL d   1      52.105  30.813  52.967  0.00  0.00     0.025 A 
ATOM      9  C   UNL d   1      53.306  30.556  53.709  0.00  0.00     0.000 A 
ATOM     10  C   UNL d   1      52.628  30.277  53.309  0.00  0.00     0.002 A 
ENDROOT
BRANCH   1  11
ATOM     11  C   UNL d   1      53.737  32.994  53.863  0.00  0.00     0.113 A 
ATOM     12  C   UNL d   1      53.674  33.250  54.648  0.00  0.00     0.271 A 
ATOM     13  N   UNL d   1      54.338  33.524  55.046  0.00  0.00    -0.250 N 
ATOM     14  O   UNL d   1      52.941  33.231  55.029  0.00  0.00    -0.266 OA
ATOM     15  C   UNL d   1      55.066  33.542  54.665  0.00  0.00     0.196 A 
ATOM     16  N   UNL d   1      55.130  33.285  53.880  0.00  0.00    -0.250 N 
ATOM     17  S   UNL d   1      55.738  33.817  55.063  0.00  0.00    -0.039 SA
ATOM     18  C   UNL d   1      54.465  33.009  53.473  0.00  0.00     0.271 A 
ATOM     19  O   UNL d   1      54.528  32.754  52.692  0.00  0.00    -0.266 OA
BRANCH  13  20
ATOM     20  C   UNL d   1      54.275  33.779  55.827  0.00  0.00     0.085 C 
ATOM     21  C   UNL d   1      54.059  34.555  55.990  0.00  0.00     0.021 C 
ENDBRANCH  13  20
BRANCH  16  22
ATOM     22  C   UNL d   1      55.865  33.306  53.502  0.00  0.00     0.085 C 
ATOM     23  C   UNL d   1      55.938  33.641  52.754  0.00  0.00     0.021 C 
ENDBRANCH  16  22
ENDBRANCH   1  11
BRANCH   3  24
ATOM     24  C   UNL d   1      51.347  33.521  52.385  0.00  0.00     0.323 C 
ATOM     25  O   UNL d   1      51.486  33.800  51.623  0.00  0.00    -0.257 OA
BRANCH  24  26
ATOM     26  O   UNL d   1      50.687  33.778  52.803  0.00  0.00    -0.270 OA
BRANCH  26  27
ATOM     27  C   UNL d   1      50.219  34.384  52.501  0.00  0.00     0.126 C 
ATOM     28  C   UNL d   1      49.586  34.676  52.938  0.00  0.00     0.029 C 
ENDBRANCH  26  27
ENDBRANCH  24  26
ENDBRANCH   3  24
TORSDOF 6
ENDMDL
MODEL 4
REMARK VINA RESULT:      -4.2      1.932      3.870
REMARK  6 active torsions:
REMARK  status: ('A' for Active; 'I' for Inactive)
REMARK    1  A    between atoms: C_7  and  C_1 
REMARK    2  A    between atoms: C_19  and  N_2 
REMARK    3  A    between atoms: C_18  and  N_3 
REMARK    4  A    between atoms: C_13  and  C_9 
REMARK    5  A    between atoms: O_20  and  C_13 
REMARK    6  A    between atoms: C_23  and  O_20 
ROOT
ATOM      1  C   UNL d   1      52.345  33.489  53.174  0.00  0.00     0.013 A 
ATOM      2  C   UNL d   1      51.809  33.585  52.548  0.00  0.00     0.030 A 
ATOM      3  C   UNL d   1      51.352  34.264  52.487  0.00  0.00     0.163 A 
ATOM      4  O   UNL d   1      51.423  34.867  53.056  0.00  0.00    -0.302 OA
ATOM      5  C   UNL d   1      52.422  34.084  53.745  0.00  0.00     0.023 A 
ATOM      6  C   UNL d   1      51.959  34.774  53.685  0.00  0.00     0.100 A 
ATOM      7  C   UNL d   1      52.953  33.999  54.372  0.00  0.00     0.002 A 
ATOM      8  C   UNL d   1      52.036  35.372  54.258  0.00  0.00     0.025 A 
ATOM      9  C   UNL d   1      53.029  34.591  54.940  0.00  0.00     0.000 A 
ATOM     10  C   UNL d   1      52.566  35.284  54.883  0.00  0.00     0.002 A 
ENDROOT
BRANCH   1  11
ATOM     11  C   UNL d   1      52.803  32.806  53.233  0.00  0.00     0.113 A 
ATOM     12  C   UNL d   1      52.453  32.098  53.483  0.00  0.00     0.271 A 
ATOM     13  N   UNL d   1      52.905  31.415  53.543  0.00  0.00    -0.250 N 
ATOM     14  O   UNL d   1      51.649  32.081  53.671  0.00  0.00    -0.266 OA
ATOM     15  C   UNL d   1      53.705  31.434  53.354  0.00  0.00     0.196 A 
ATOM     16  N   UNL d   1      54.055  32.142  53.104  0.00  0.00    -0.250 N 
ATOM     17  S   UNL d   1      54.164  30.747  53.414  0.00  0.00    -0.039 SA
ATOM     18  C   UNL d   1      53.606  32.834  53.041  0.00  0.00     0.271 A 
ATOM     19  O   UNL d   1      53.954  33.538  52.792  0.00  0.00    -0.266 OA
BRANCH  13  20
ATOM     20  C   UNL d   1      52.557  30.711  53.792  0.00  0.00     0.085 C 
ATOM     21  C   UNL d   1      52.399  30.115  53.249  0.00  0.00     0.021 C 
ENDBRANCH  13  20
BRANCH  16  22
ATOM     22  C   UNL d   1      54.860  32.154  52.916  0.00  0.00     0.085 C 
ATOM     23  C   UNL d   1      55.381  32.620  53.350  0.00  0.00     0.021 C 
ENDBRANCH  16  22
ENDBRANCH   1  11
BRANCH   3  24
ATOM     24  C   UNL d   1      50.824  34.351  51.864  0.00  0.00     0.323 C 
ATOM     25  O   UNL d   1      51.103  34.375  51.089  0.00  0.00    -0.257 OA
BRANCH  24  26
ATOM     26  O   UNL d   1      50.018  34.413  52.013  0.00  0.00    -0.270 OA
BRANCH  26  27
ATOM     27  C   UNL d   1      49.486  34.454  51.386  0.00  0.00     0.126 C 
ATOM     28  C   UNL d   1      48.703  34.669  51.519  0.00  0.00     0.029 C 
ENDBRANCH  26  27
ENDBRANCH  24  26
ENDBRANCH   3  24
TORSDOF 6
ENDMDL
MODEL 5
REMARK VINA RESULT:      -4.1      2.234      5.192
REMARK  6 active torsions:
REMARK  status: ('A' for Active; 'I' for Inactive)
REMARK    1  A    between atoms: C_7  and  C_1 
REMARK    2  A    between atoms: C_19  and  N_2 
REMARK    3  A    between atoms: C_18  and  N_3 
REMARK    4  A    between atoms: C_13  and  C_9 
REMARK    5  A    between atoms: O_20  and  C_13 
REMARK    6  A    between atoms: C_23  and  O_20 
ROOT
ATOM      1  C   UNL d   1      49.983  34.692  52.938  0.00  0.00     0.013 A 
ATOM      2  C   UNL d   1      49.594  35.135  53.522  0.00  0.00     0.030 A 
ATOM      3  C   UNL d   1      48.881  35.508  53.360  0.00  0.00     0.163 A 
ATOM      4  O   UNL d   1      48.540  35.446  52.604  0.00  0.00    -0.302 OA
ATOM      5  C   UNL d   1      49.651  34.626  52.183  0.00  0.00     0.023 A 
ATOM      6  C   UNL d   1      48.928  35.004  52.016  0.00  0.00     0.100 A 
ATOM      7  C   UNL d   1      50.030  34.188  51.594  0.00  0.00     0.002 A 
ATOM      8  C   UNL d   1      48.593  34.937  51.257  0.00  0.00     0.025 A 
ATOM      9  C   UNL d   1      49.699  34.121  50.842  0.00  0.00     0.000 A 
ATOM     10  C   UNL d   1      48.974  34.499  50.672  0.00  0.00     0.002 A 
ENDROOT
BRANCH   1  11
ATOM     11  C   UNL d   1      50.699  34.319  53.103  0.00  0.00     0.113 A 
ATOM     12  C   UNL d   1      51.401  34.758  53.105  0.00  0.00     0.271 A 
ATOM     13  N   UNL d   1      52.116  34.390  53.269  0.00  0.00    -0.250 N 
ATOM     14  O   UNL d   1      51.379  35.567  52.941  0.00  0.00    -0.266 OA
ATOM     15  C   UNL d   1      52.136  33.585  53.432  0.00  0.00     0.196 A 
ATOM     16  N   UNL d   1      51.434  33.145  53.431  0.00  0.00    -0.250 N 
ATOM     17  S   UNL d   1      52.855  33.210  53.598  0.00  0.00    -0.039 SA
ATOM     18  C   UNL d   1      50.709  33.509  53.266  0.00  0.00     0.271 A 
ATOM     19  O   UNL d   1      50.011  33.071  53.265  0.00  0.00    -0.266 OA
BRANCH  13  20
ATOM     20  C   UNL d   1      52.814  34.828  53.270  0.00  0.00     0.085 C 
ATOM     21  C   UNL d   1      53.077  35.182  53.963  0.00  0.00     0.021 C 
ENDBRANCH  13  20
BRANCH  16  22
ATOM     22  C   UNL d   1      51.460  32.335  53.595  0.00  0.00     0.085 C 
ATOM     23  C   UNL d   1      51.899  31.828  53.120  0.00  0.00     0.021 C 
ENDBRANCH  16  22
ENDBRANCH   1  11
BRANCH   3  24
ATOM     24  C   UNL d   1      48.502  35.944  53.944  0.00  0.00     0.323 C 
ATOM     25  O   UNL d   1      48.839  36.645  54.216  0.00  0.00    -0.257 OA
BRANCH  24  26
ATOM     26  O   UNL d   1      47.789  35.682  54.257  0.00  0.00    -0.270 OA
BRANCH  26  27
ATOM     27  C   UNL d   1      47.297  36.208  54.657  0.00  0.00     0.126 C 
ATOM     28  C   UNL d   1      46.574  35.953  54.956  0.00  0.00     0.029 C 
ENDBRANCH  26  27
ENDBRANCH  24  26
ENDBRANCH   3  24
TORSDOF 6
ENDMDL
MODEL 6
REMARK VINA RESULT:      -4.1      1.988      4.126
REMARK  6 active torsions:
REMARK  status: ('A' for Active; 'I' for Inactive)
REMARK    1  A    between atoms: C_7  and  C_1 
REMARK    2  A    between atoms: C_19  and  N_2 
REMARK    3  A    between atoms: C_18  and  N_3 
REMARK    4  A    between atoms: C_13  and  C_9 
REMARK    5  A    between atoms: O_20  and  C_13 
REMARK    6  A    between atoms: C_23  and  O_20 
ROOT
ATOM      1  C   UNL d   1      52.980  32.297  53.640  0.00  0.00     0.013 A 
ATOM      2  C   UNL d   1      52.213  32.602  53.555  0.00  0.00     0.030 A 
ATOM      3  C   UNL d   1      52.087  33.413  53.511  0.00  0.00     0.163 A 
ATOM      4  O   UNL d   1      52.730  33.938  53.550  0.00  0.00    -0.302 OA
ATOM      5  C   UNL d   1      53.626  32.814  53.681  0.00  0.00     0.023 A 
ATOM      6  C   UNL d   1      53.500  33.636  53.636  0.00  0.00     0.100 A 
ATOM      7  C   UNL d   1      54.393  32.520  53.766  0.00  0.00     0.002 A 
ATOM      8  C   UNL d   1      54.149  34.155  53.677  0.00  0.00     0.025 A 
ATOM      9  C   UNL d   1      55.036  33.034  53.806  0.00  0.00     0.000 A 
ATOM     10  C   UNL d   1      54.913  33.859  53.761  0.00  0.00     0.002 A 
ENDROOT
BRANCH   1  11
ATOM     11  C   UNL d   1      53.105  31.484  53.685  0.00  0.00     0.113 A 
ATOM     12  C   UNL d   1      53.086  31.028  52.994  0.00  0.00     0.271 A 
ATOM     13  N   UNL d   1      53.209  30.217  53.033  0.00  0.00    -0.250 N 
ATOM     14  O   UNL d   1      52.943  31.390  52.266  0.00  0.00    -0.266 OA
ATOM     15  C   UNL d   1      53.351  29.858  53.759  0.00  0.00     0.196 A 
ATOM     16  N   UNL d   1      53.370  30.314  54.450  0.00  0.00    -0.250 N 
ATOM     17  S   UNL d   1      53.476  29.040  53.803  0.00  0.00    -0.039 SA
ATOM     18  C   UNL d   1      53.247  31.131  54.418  0.00  0.00     0.271 A 
ATOM     19  O   UNL d   1      53.266  31.585  55.106  0.00  0.00    -0.266 OA
BRANCH  13  20
ATOM     20  C   UNL d   1      53.191  29.763  52.346  0.00  0.00     0.085 C 
ATOM     21  C   UNL d   1      52.532  29.302  52.174  0.00  0.00     0.021 C 
ENDBRANCH  13  20
BRANCH  16  22
ATOM     22  C   UNL d   1      53.514  29.947  55.177  0.00  0.00     0.085 C 
ATOM     23  C   UNL d   1      52.949  29.452  55.512  0.00  0.00     0.021 C 
ENDBRANCH  16  22
ENDBRANCH   1  11
BRANCH   3  24
ATOM     24  C   UNL d   1      51.324  33.706  53.426  0.00  0.00     0.323 C 
ATOM     25  O   UNL d   1      50.809  33.700  54.069  0.00  0.00    -0.257 OA
BRANCH  24  26
ATOM     26  O   UNL d   1      51.075  34.005  52.702  0.00  0.00    -0.270 OA
BRANCH  26  27
ATOM     27  C   UNL d   1      50.302  34.275  52.613  0.00  0.00     0.126 C 
ATOM     28  C   UNL d   1      49.998  34.420  51.862  0.00  0.00     0.029 C 
ENDBRANCH  26  27
ENDBRANCH  24  26
ENDBRANCH   3  24
TORSDOF 6
ENDMDL
MODEL 7
REMARK VINA RESULT:      -3.7      0.812      2.427
REMARK  6 active torsions:
REMARK  status: ('A' for Active; 'I' for Inactive)
REMARK    1  A    between atoms: C_7  and  C_1 
REMARK    2  A    between atoms: C_19  and  N_2 
REMARK    3  A    between atoms: C_18  and  N_3 
REMARK    4  A    between atoms: C_13  and  C_9 
REMARK    5  A    between atoms: O_20  and  C_13 
REMARK    6  A    between atoms: C_23  and  O_20 
ROOT
ATOM      1  C   UNL d   1      52.801  32.704  53.568  0.00  0.00     0.013 A 
ATOM      2  C   UNL d   1      53.309  33.043  54.129  0.00  0.00     0.030 A 
ATOM      3  C   UNL d   1      53.896  32.595  54.489  0.00  0.00     0.163 A 
ATOM      4  O   UNL d   1      53.987  31.792  54.293  0.00  0.00    -0.302 OA
ATOM      5  C   UNL d   1      52.885  31.905  53.367  0.00  0.00     0.023 A 
ATOM      6  C   UNL d   1      53.479  31.449  53.731  0.00  0.00     0.100 A 
ATOM      7  C   UNL d   1      52.384  31.558  52.809  0.00  0.00     0.002 A 
ATOM      8  C   UNL d   1      53.563  30.646  53.529  0.00  0.00     0.025 A 
ATOM      9  C   UNL d   1      52.468  30.763  52.609  0.00  0.00     0.000 A 
ATOM     10  C   UNL d   1      53.062  30.303  52.972  0.00  0.00     0.002 A 
ENDROOT
BRANCH   1  11
ATOM     11  C   UNL d   1      52.214  33.156  53.208  0.00  0.00     0.113 A 
ATOM     12  C   UNL d   1      51.456  33.183  53.541  0.00  0.00     0.271 A 
ATOM     13  N   UNL d   1      50.867  33.632  53.186  0.00  0.00    -0.250 N 
ATOM     14  O   UNL d   1      51.294  32.758  54.230  0.00  0.00    -0.266 OA
ATOM     15  C   UNL d   1      51.030  34.055  52.500  0.00  0.00     0.196 A 
ATOM     16  N   UNL d   1      51.787  34.028  52.167  0.00  0.00    -0.250 N 
ATOM     17  S   UNL d   1      50.438  34.509  52.139  0.00  0.00    -0.039 SA
ATOM     18  C   UNL d   1      52.386  33.578  52.519  0.00  0.00     0.271 A 
ATOM     19  O   UNL d   1      53.140  33.551  52.188  0.00  0.00    -0.266 OA
BRANCH  13  20
ATOM     20  C   UNL d   1      50.113  33.659  53.517  0.00  0.00     0.085 C 
ATOM     21  C   UNL d   1      49.825  34.363  53.829  0.00  0.00     0.021 C 
ENDBRANCH  13  20
BRANCH  16  22
ATOM     22  C   UNL d   1      51.945  34.455  51.477  0.00  0.00     0.085 C 
ATOM     23  C   UNL d   1      51.420  34.432  50.845  0.00  0.00     0.021 C 
ENDBRANCH  16  22
ENDBRANCH   1  11
BRANCH   3  24
ATOM     24  C   UNL d   1      54.395  32.939  55.044  0.00  0.00     0.323 C 
ATOM     25  O   UNL d   1      54.185  32.937  55.841  0.00  0.00    -0.257 OA
BRANCH  24  26
ATOM     26  O   UNL d   1      55.101  33.285  54.805  0.00  0.00    -0.270 OA
BRANCH  26  27
ATOM     27  C   UNL d   1      55.440  33.883  55.258  0.00  0.00     0.126 C 
ATOM     28  C   UNL d   1      55.938  34.437  54.908  0.00  0.00     0.029 C 
ENDBRANCH  26  27
ENDBRANCH  24  26
ENDBRANCH   3  24
TORSDOF 6
ENDMDL
