MODEL 1
REMARK VINA RESULT:      -5.2      0.000      0.000
REMARK  2 active torsions:
REMARK  status: ('A' for Active; 'I' for Inactive)
REMARK    1  A    between atoms: C_2  and  C_1 
REMARK       I    between atoms: N_3  and  C_1 
REMARK    2  A    between atoms: C_5  and  N_4 
ROOT
ATOM      1  C   UNL d   1     -41.414-121.900 -53.156  0.00  0.00     0.267 C 
ATOM      2  N   UNL d   1     -41.506-122.149 -52.375  0.00  0.00    -0.269 N 
ATOM      3  N   UNL d   1     -41.689-122.647 -50.811  0.00  0.00    -0.301 N 
ATOM      4  O   UNL d   1     -41.123-121.149 -53.319  0.00  0.00    -0.267 OA
ATOM      5  C   UNL d   1     -41.306-121.647 -51.754  0.00  0.00     0.102 A 
ATOM      6  C   UNL d   1     -41.799-122.902 -52.211  0.00  0.00     0.102 A 
ATOM      7  C   UNL d   1     -41.890-123.151 -51.430  0.00  0.00     0.100 A 
ATOM      8  C   UNL d   1     -41.397-121.896 -50.972  0.00  0.00     0.100 A 
ENDROOT
BRANCH   1   9
ATOM      9  C   UNL d   1     -41.616-122.404 -53.777  0.00  0.00     0.084 A 
ATOM     10  C   UNL d   1     -42.230-122.202 -54.292  0.00  0.00     0.145 A 
ATOM     11  F   UNL d   1     -42.644-121.497 -54.186  0.00  0.00    -0.204 F 
ATOM     12  C   UNL d   1     -42.431-122.712 -54.915  0.00  0.00     0.030 A 
ATOM     13  C   UNL d   1     -42.018-123.414 -55.019  0.00  0.00     0.002 A 
ATOM     14  C   UNL d   1     -41.403-123.615 -54.504  0.00  0.00     0.000 A 
ATOM     15  C   UNL d   1     -41.201-123.115 -53.886  0.00  0.00     0.007 A 
ENDBRANCH   1   9
BRANCH   3  16
ATOM     16  C   UNL d   1     -41.780-122.897 -50.027  0.00  0.00     0.064 A 
ATOM     17  C   UNL d   1     -42.510-122.830 -49.658  0.00  0.00     0.016 A 
ATOM     18  C   UNL d   1     -42.602-123.080 -48.875  0.00  0.00     0.001 A 
ATOM     19  C   UNL d   1     -43.154-122.515 -50.066  0.00  0.00     0.002 C 
ATOM     20  C   UNL d   1     -41.963-123.395 -48.464  0.00  0.00     0.000 A 
ATOM     21  C   UNL d   1     -41.231-123.461 -48.836  0.00  0.00     0.002 A 
ATOM     22  C   UNL d   1     -42.054-123.644 -47.683  0.00  0.00     0.000 C 
ATOM     23  C   UNL d   1     -41.139-123.211 -49.619  0.00  0.00     0.018 A 
ENDBRANCH   3  16
TORSDOF 2
ENDMDL
MODEL 2
REMARK VINA RESULT:      -3.6      1.167      1.747
REMARK  2 active torsions:
REMARK  status: ('A' for Active; 'I' for Inactive)
REMARK    1  A    between atoms: C_2  and  C_1 
REMARK       I    between atoms: N_3  and  C_1 
REMARK    2  A    between atoms: C_5  and  N_4 
ROOT
ATOM      1  C   UNL d   1     -41.506-123.206 -54.346  0.00  0.00     0.267 C 
ATOM      2  N   UNL d   1     -41.511-123.189 -53.521  0.00  0.00    -0.269 N 
ATOM      3  N   UNL d   1     -41.521-123.155 -51.869  0.00  0.00    -0.301 N 
ATOM      4  O   UNL d   1     -41.123-123.815 -54.744  0.00  0.00    -0.267 OA
ATOM      5  C   UNL d   1     -41.133-123.781 -53.091  0.00  0.00     0.102 A 
ATOM      6  C   UNL d   1     -41.895-122.578 -53.121  0.00  0.00     0.102 A 
ATOM      7  C   UNL d   1     -41.900-122.561 -52.296  0.00  0.00     0.100 A 
ATOM      8  C   UNL d   1     -41.138-123.764 -52.266  0.00  0.00     0.100 A 
ENDROOT
BRANCH   1   9
ATOM      9  C   UNL d   1     -41.885-122.613 -54.773  0.00  0.00     0.084 A 
ATOM     10  C   UNL d   1     -42.539-122.795 -55.245  0.00  0.00     0.145 A 
ATOM     11  F   UNL d   1     -42.813-123.571 -55.289  0.00  0.00    -0.204 F 
ATOM     12  C   UNL d   1     -42.918-122.195 -55.675  0.00  0.00     0.030 A 
ATOM     13  C   UNL d   1     -42.643-121.423 -55.630  0.00  0.00     0.002 A 
ATOM     14  C   UNL d   1     -41.989-121.240 -55.158  0.00  0.00     0.000 A 
ATOM     15  C   UNL d   1     -41.611-121.830 -54.732  0.00  0.00     0.007 A 
ENDBRANCH   1   9
BRANCH   3  16
ATOM     16  C   UNL d   1     -41.526-123.138 -51.041  0.00  0.00     0.064 A 
ATOM     17  C   UNL d   1     -41.328-122.448 -50.644  0.00  0.00     0.016 A 
ATOM     18  C   UNL d   1     -41.333-122.430 -49.818  0.00  0.00     0.001 A 
ATOM     19  C   UNL d   1     -41.123-121.770 -51.067  0.00  0.00     0.002 C 
ATOM     20  C   UNL d   1     -41.536-123.104 -49.392  0.00  0.00     0.000 A 
ATOM     21  C   UNL d   1     -41.736-123.796 -49.792  0.00  0.00     0.002 A 
ATOM     22  C   UNL d   1     -41.542-123.087 -48.567  0.00  0.00     0.000 C 
ATOM     23  C   UNL d   1     -41.731-123.813 -50.619  0.00  0.00     0.018 A 
ENDBRANCH   3  16
TORSDOF 2
ENDMDL
MODEL 3
REMARK VINA RESULT:      -2.8      1.629      4.640
REMARK  2 active torsions:
REMARK  status: ('A' for Active; 'I' for Inactive)
REMARK    1  A    between atoms: C_2  and  C_1 
REMARK       I    between atoms: N_3  and  C_1 
REMARK    2  A    between atoms: C_5  and  N_4 
ROOT
ATOM      1  C   UNL d   1     -41.629-122.341 -49.889  0.00  0.00     0.267 C 
ATOM      2  N   UNL d   1     -41.630-122.360 -50.714  0.00  0.00    -0.269 N 
ATOM      3  N   UNL d   1     -41.631-122.399 -52.365  0.00  0.00    -0.301 N 
ATOM      4  O   UNL d   1     -41.123-121.833 -49.488  0.00  0.00    -0.267 OA
ATOM      5  C   UNL d   1     -41.124-121.871 -51.140  0.00  0.00     0.102 A 
ATOM      6  C   UNL d   1     -42.138-122.870 -51.116  0.00  0.00     0.102 A 
ATOM      7  C   UNL d   1     -42.139-122.889 -51.941  0.00  0.00     0.100 A 
ATOM      8  C   UNL d   1     -41.124-121.890 -51.965  0.00  0.00     0.100 A 
ENDROOT
BRANCH   1   9
ATOM      9  C   UNL d   1     -42.137-122.832 -49.464  0.00  0.00     0.084 A 
ATOM     10  C   UNL d   1     -41.909-123.123 -48.724  0.00  0.00     0.145 A 
ATOM     11  F   UNL d   1     -41.174-122.924 -48.410  0.00  0.00    -0.204 F 
ATOM     12  C   UNL d   1     -42.423-123.618 -48.299  0.00  0.00     0.030 A 
ATOM     13  C   UNL d   1     -43.155-123.815 -48.613  0.00  0.00     0.002 A 
ATOM     14  C   UNL d   1     -43.382-123.524 -49.353  0.00  0.00     0.000 A 
ATOM     15  C   UNL d   1     -42.878-123.035 -49.777  0.00  0.00     0.007 A 
ENDBRANCH   1   9
BRANCH   3  16
ATOM     16  C   UNL d   1     -41.632-122.418 -53.193  0.00  0.00     0.064 A 
ATOM     17  C   UNL d   1     -41.378-123.091 -53.588  0.00  0.00     0.016 A 
ATOM     18  C   UNL d   1     -41.379-123.110 -54.414  0.00  0.00     0.001 A 
ATOM     19  C   UNL d   1     -41.123-123.749 -53.162  0.00  0.00     0.002 C 
ATOM     20  C   UNL d   1     -41.633-122.456 -54.842  0.00  0.00     0.000 A 
ATOM     21  C   UNL d   1     -41.887-121.780 -54.445  0.00  0.00     0.002 A 
ATOM     22  C   UNL d   1     -41.634-122.475 -55.667  0.00  0.00     0.000 C 
ATOM     23  C   UNL d   1     -41.887-121.761 -53.618  0.00  0.00     0.018 A 
ENDBRANCH   3  16
TORSDOF 2
ENDMDL
