MODEL 1
REMARK VINA RESULT:       2.5      0.000      0.000
REMARK  2 active torsions:
REMARK  status: ('A' for Active; 'I' for Inactive)
REMARK    1  A    between atoms: N_4  and  C_1 
REMARK    2  A    between atoms: C_11  and  C_3 
ROOT
ATOM      1  C   UNL d   1     -41.615-122.242 -52.750  0.00  0.00     0.148 A 
ATOM      2  N   UNL d   1     -41.437-121.463 -52.640  0.00  0.00    -0.228 NA
ATOM      3  C   UNL d   1     -41.673-122.400 -51.324  0.00  0.00     0.004 A 
ATOM      4  C   UNL d   1     -41.735-122.718 -52.082  0.00  0.00     0.037 A 
ATOM      5  C   UNL d   1     -41.489-121.597 -51.240  0.00  0.00     0.018 A 
ATOM      6  C   UNL d   1     -41.369-121.121 -51.908  0.00  0.00     0.083 A 
ATOM      7  C   UNL d   1     -41.428-121.282 -50.484  0.00  0.00     0.002 A 
ATOM      8  C   UNL d   1     -41.192-120.346 -51.801  0.00  0.00     0.019 A 
ATOM      9  C   UNL d   1     -41.243-120.476 -50.398  0.00  0.00     0.000 A 
ATOM     10  C   UNL d   1     -41.123-120.000 -51.067  0.00  0.00     0.002 A 
ENDROOT
BRANCH   1  11
ATOM     11  N   UNL d   1     -41.682-122.578 -53.477  0.00  0.00    -0.286 N 
ATOM     12  C   UNL d   1     -41.395-123.335 -53.667  0.00  0.00     0.101 A 
ATOM     13  C   UNL d   1     -41.461-123.674 -54.397  0.00  0.00     0.100 A 
ATOM     14  N   UNL d   1     -41.837-123.245 -54.998  0.00  0.00    -0.299 N 
ATOM     15  C   UNL d   1     -42.124-122.502 -54.835  0.00  0.00     0.100 A 
ATOM     16  C   UNL d   1     -41.908-123.580 -55.739  0.00  0.00     0.100 C 
ATOM     17  C   UNL d   1     -42.057-122.148 -54.079  0.00  0.00     0.101 A 
ENDBRANCH   1  11
BRANCH   3  18
ATOM     18  C   UNL d   1     -41.789-122.862 -50.675  0.00  0.00     0.000 A 
ATOM     19  C   UNL d   1     -42.510-122.850 -50.273  0.00  0.00     0.000 A 
ATOM     20  C   UNL d   1     -42.624-123.305 -49.635  0.00  0.00     0.000 A 
ATOM     21  C   UNL d   1     -42.027-123.806 -49.348  0.00  0.00     0.000 A 
ATOM     22  C   UNL d   1     -41.301-123.813 -49.759  0.00  0.00     0.000 A 
ATOM     23  C   UNL d   1     -41.186-123.358 -50.398  0.00  0.00     0.000 A 
ENDBRANCH   3  18
TORSDOF 2
ENDMDL
MODEL 2
REMARK VINA RESULT:       5.1      1.532      4.198
REMARK  2 active torsions:
REMARK  status: ('A' for Active; 'I' for Inactive)
REMARK    1  A    between atoms: N_4  and  C_1 
REMARK    2  A    between atoms: C_11  and  C_3 
ROOT
ATOM      1  C   UNL d   1     -41.842-122.881 -50.569  0.00  0.00     0.148 A 
ATOM      2  N   UNL d   1     -41.753-123.438 -51.145  0.00  0.00    -0.228 NA
ATOM      3  C   UNL d   1     -41.505-121.871 -51.533  0.00  0.00     0.004 A 
ATOM      4  C   UNL d   1     -41.717-122.085 -50.766  0.00  0.00     0.037 A 
ATOM      5  C   UNL d   1     -41.420-122.464 -52.105  0.00  0.00     0.018 A 
ATOM      6  C   UNL d   1     -41.545-123.259 -51.908  0.00  0.00     0.083 A 
ATOM      7  C   UNL d   1     -41.209-122.248 -52.869  0.00  0.00     0.002 A 
ATOM      8  C   UNL d   1     -41.456-123.815 -52.481  0.00  0.00     0.019 A 
ATOM      9  C   UNL d   1     -41.123-122.842 -53.445  0.00  0.00     0.000 A 
ATOM     10  C   UNL d   1     -41.248-123.638 -53.248  0.00  0.00     0.002 A 
ENDROOT
BRANCH   1  11
ATOM     11  N   UNL d   1     -42.048-123.061 -49.814  0.00  0.00    -0.286 N 
ATOM     12  C   UNL d   1     -41.500-123.221 -49.208  0.00  0.00     0.101 A 
ATOM     13  C   UNL d   1     -41.705-123.403 -48.449  0.00  0.00     0.100 A 
ATOM     14  N   UNL d   1     -42.510-123.433 -48.254  0.00  0.00    -0.299 N 
ATOM     15  C   UNL d   1     -43.063-123.281 -48.830  0.00  0.00     0.100 A 
ATOM     16  C   UNL d   1     -42.725-123.616 -47.488  0.00  0.00     0.100 C 
ATOM     17  C   UNL d   1     -42.853-123.092 -49.619  0.00  0.00     0.101 A 
ENDBRANCH   1  11
BRANCH   3  18
ATOM     18  C   UNL d   1     -41.383-121.099 -51.725  0.00  0.00     0.000 A 
ATOM     19  C   UNL d   1     -41.395-120.853 -52.512  0.00  0.00     0.000 A 
ATOM     20  C   UNL d   1     -41.275-120.093 -52.700  0.00  0.00     0.000 A 
ATOM     21  C   UNL d   1     -41.134-119.519 -52.116  0.00  0.00     0.000 A 
ATOM     22  C   UNL d   1     -41.124-119.775 -51.321  0.00  0.00     0.000 A 
ATOM     23  C   UNL d   1     -41.244-120.535 -51.133  0.00  0.00     0.000 A 
ENDBRANCH   3  18
TORSDOF 2
ENDMDL
