MODEL 1
REMARK VINA RESULT:      -4.0      0.000      0.000
REMARK  6 active torsions:
REMARK  status: ('A' for Active; 'I' for Inactive)
REMARK    1  A    between atoms: N_4  and  C_1 
REMARK    2  A    between atoms: N_8  and  C_1 
REMARK       I    between atoms: C_2  and  N_3 
REMARK    3  A    between atoms: C_6  and  C_2 
REMARK    4  A    between atoms: N_3  and  N_4 
REMARK    5  A    between atoms: C_17  and  N_8 
REMARK    6  A    between atoms: C_11  and  C_17 
ROOT
ATOM      1  C   UNL d   1      58.454   0.098  29.067  0.00  0.00     0.297 C 
ATOM      2  N   UNL d   1      57.954   0.258  29.723  0.00  0.00    -0.103 NA
ATOM      3  O   UNL d   1      58.496   0.639  28.455  0.00  0.00    -0.264 OA
ENDROOT
BRANCH   1   4
ATOM      4  C   UNL d   1      58.903  -0.610  29.044  0.00  0.00     0.059 A 
ATOM      5  C   UNL d   1      58.565  -1.283  28.729  0.00  0.00     0.005 A 
ATOM      6  C   UNL d   1      58.999  -1.985  28.702  0.00  0.00     0.007 A 
ATOM      7  C   UNL d   1      59.765  -2.003  28.991  0.00  0.00     0.035 A 
ATOM      8  C   UNL d   1      60.116  -1.321  29.313  0.00  0.00     0.007 A 
ATOM      9 BR   UNL d   1      60.214  -2.724  28.964  0.00  0.00    -0.049 Br
ATOM     10  C   UNL d   1      59.669  -0.628  29.333  0.00  0.00     0.005 A 
ENDBRANCH   1   4
BRANCH   2  11
ATOM     11  N   UNL d   1      57.911  -0.296  30.349  0.00  0.00    -0.114 NA
BRANCH  11  12
ATOM     12  C   UNL d   1      57.438  -0.150  30.991  0.00  0.00     0.241 C 
ATOM     13  S   UNL d   1      57.375   0.618  31.296  0.00  0.00    -0.035 SA
BRANCH  12  14
ATOM     14  N   UNL d   1      57.011  -0.774  31.351  0.00  0.00    -0.215 NA
BRANCH  14  15
ATOM     15  C   UNL d   1      56.646  -0.651  32.085  0.00  0.00     0.102 C 
BRANCH  15  16
ATOM     16  C   UNL d   1      56.234  -1.268  32.444  0.00  0.00     0.021 C 
ATOM     17  C   UNL d   1      55.781  -1.130  33.109  0.00  0.00     0.002 C 
ENDBRANCH  15  16
ENDBRANCH  14  15
ENDBRANCH  12  14
ENDBRANCH  11  12
ENDBRANCH   2  11
TORSDOF 6
ENDMDL
MODEL 2
REMARK VINA RESULT:      -2.9      2.815      4.957
REMARK  6 active torsions:
REMARK  status: ('A' for Active; 'I' for Inactive)
REMARK    1  A    between atoms: N_4  and  C_1 
REMARK    2  A    between atoms: N_8  and  C_1 
REMARK       I    between atoms: C_2  and  N_3 
REMARK    3  A    between atoms: C_6  and  C_2 
REMARK    4  A    between atoms: N_3  and  N_4 
REMARK    5  A    between atoms: C_17  and  N_8 
REMARK    6  A    between atoms: C_11  and  C_17 
ROOT
ATOM      1  C   UNL d   1      56.266  -1.245  32.480  0.00  0.00     0.297 C 
ATOM      2  N   UNL d   1      56.797  -0.925  31.914  0.00  0.00    -0.103 NA
ATOM      3  O   UNL d   1      56.061  -2.036  32.433  0.00  0.00    -0.264 OA
ENDROOT
BRANCH   1   4
ATOM      4  C   UNL d   1      55.951  -0.757  33.085  0.00  0.00     0.059 A 
ATOM      5  C   UNL d   1      56.284  -0.785  33.829  0.00  0.00     0.005 A 
ATOM      6  C   UNL d   1      55.982  -0.308  34.431  0.00  0.00     0.007 A 
ATOM      7  C   UNL d   1      55.350   0.190  34.280  0.00  0.00     0.035 A 
ATOM      8  C   UNL d   1      55.005   0.224  33.523  0.00  0.00     0.007 A 
ATOM      9 BR   UNL d   1      55.036   0.682  34.897  0.00  0.00    -0.049 Br
ATOM     10  C   UNL d   1      55.319  -0.259  32.933  0.00  0.00     0.005 A 
ENDBRANCH   1   4
BRANCH   2  11
ATOM     11  N   UNL d   1      57.007  -0.116  31.962  0.00  0.00    -0.114 NA
BRANCH  11  12
ATOM     12  C   UNL d   1      57.580   0.188  31.476  0.00  0.00     0.241 C 
ATOM     13  S   UNL d   1      58.169   0.682  31.786  0.00  0.00    -0.035 SA
BRANCH  12  14
ATOM     14  N   UNL d   1      57.581   0.005  30.659  0.00  0.00    -0.215 NA
BRANCH  14  15
ATOM     15  C   UNL d   1      58.152   0.347  30.164  0.00  0.00     0.102 C 
BRANCH  15  16
ATOM     16  C   UNL d   1      58.099   0.241  29.348  0.00  0.00     0.021 C 
ATOM     17  C   UNL d   1      58.582   0.666  28.845  0.00  0.00     0.002 C 
ENDBRANCH  15  16
ENDBRANCH  14  15
ENDBRANCH  12  14
ENDBRANCH  11  12
ENDBRANCH   2  11
TORSDOF 6
ENDMDL
MODEL 3
REMARK VINA RESULT:      -2.1      1.040      1.331
REMARK  6 active torsions:
REMARK  status: ('A' for Active; 'I' for Inactive)
REMARK    1  A    between atoms: N_4  and  C_1 
REMARK    2  A    between atoms: N_8  and  C_1 
REMARK       I    between atoms: C_2  and  N_3 
REMARK    3  A    between atoms: C_6  and  C_2 
REMARK    4  A    between atoms: N_3  and  N_4 
REMARK    5  A    between atoms: C_17  and  N_8 
REMARK    6  A    between atoms: C_11  and  C_17 
ROOT
ATOM      1  C   UNL d   1      59.714  -0.806  28.967  0.00  0.00     0.297 C 
ATOM      2  N   UNL d   1      59.269  -0.302  29.471  0.00  0.00    -0.103 NA
ATOM      3  O   UNL d   1      60.330  -0.491  28.531  0.00  0.00    -0.264 OA
ENDROOT
BRANCH   1   4
ATOM      4  C   UNL d   1      59.526  -1.621  28.915  0.00  0.00     0.059 A 
ATOM      5  C   UNL d   1      58.853  -1.847  28.512  0.00  0.00     0.005 A 
ATOM      6  C   UNL d   1      58.659  -2.647  28.455  0.00  0.00     0.007 A 
ATOM      7  C   UNL d   1      59.141  -3.211  28.803  0.00  0.00     0.035 A 
ATOM      8  C   UNL d   1      59.829  -2.988  29.216  0.00  0.00     0.007 A 
ATOM      9 BR   UNL d   1      58.945  -4.035  28.746  0.00  0.00    -0.049 Br
ATOM     10  C   UNL d   1      60.008  -2.184  29.263  0.00  0.00     0.005 A 
ENDBRANCH   1   4
BRANCH   2  11
ATOM     11  N   UNL d   1      58.638  -0.624  29.917  0.00  0.00    -0.114 NA
BRANCH  11  12
ATOM     12  C   UNL d   1      58.151  -0.139  30.346  0.00  0.00     0.241 C 
ATOM     13  S   UNL d   1      58.265   0.682  30.334  0.00  0.00    -0.035 SA
BRANCH  12  14
ATOM     14  N   UNL d   1      57.529  -0.462  30.804  0.00  0.00    -0.215 NA
BRANCH  14  15
ATOM     15  C   UNL d   1      57.271  -0.064  31.484  0.00  0.00     0.102 C 
BRANCH  15  16
ATOM     16  C   UNL d   1      57.029  -0.496  32.142  0.00  0.00     0.021 C 
ATOM     17  C   UNL d   1      56.282  -0.828  32.167  0.00  0.00     0.002 C 
ENDBRANCH  15  16
ENDBRANCH  14  15
ENDBRANCH  12  14
ENDBRANCH  11  12
ENDBRANCH   2  11
TORSDOF 6
ENDMDL
MODEL 4
REMARK VINA RESULT:      -2.0      2.158      3.782
REMARK  6 active torsions:
REMARK  status: ('A' for Active; 'I' for Inactive)
REMARK    1  A    between atoms: N_4  and  C_1 
REMARK    2  A    between atoms: N_8  and  C_1 
REMARK       I    between atoms: C_2  and  N_3 
REMARK    3  A    between atoms: C_6  and  C_2 
REMARK    4  A    between atoms: N_3  and  N_4 
REMARK    5  A    between atoms: C_17  and  N_8 
REMARK    6  A    between atoms: C_11  and  C_17 
ROOT
ATOM      1  C   UNL d   1      58.238   0.233  29.241  0.00  0.00     0.297 C 
ATOM      2  N   UNL d   1      58.874  -0.228  28.944  0.00  0.00    -0.103 NA
ATOM      3  O   UNL d   1      57.793   0.682  28.722  0.00  0.00    -0.264 OA
ENDROOT
BRANCH   1   4
ATOM      4  C   UNL d   1      58.065   0.231  30.062  0.00  0.00     0.059 A 
ATOM      5  C   UNL d   1      58.528   0.676  30.566  0.00  0.00     0.005 A 
ATOM      6  C   UNL d   1      58.366   0.680  31.375  0.00  0.00     0.007 A 
ATOM      7  C   UNL d   1      57.742   0.239  31.669  0.00  0.00     0.035 A 
ATOM      8  C   UNL d   1      57.265  -0.218  31.161  0.00  0.00     0.007 A 
ATOM      9 BR   UNL d   1      57.572   0.241  32.501  0.00  0.00    -0.049 Br
ATOM     10  C   UNL d   1      57.441  -0.211  30.356  0.00  0.00     0.005 A 
ENDBRANCH   1   4
BRANCH   2  11
ATOM     11  N   UNL d   1      59.330  -0.687  29.475  0.00  0.00    -0.114 NA
BRANCH  11  12
ATOM     12  C   UNL d   1      59.926  -1.161  29.199  0.00  0.00     0.241 C 
ATOM     13  S   UNL d   1      60.624  -0.824  28.906  0.00  0.00    -0.035 SA
BRANCH  12  14
ATOM     14  N   UNL d   1      59.841  -1.994  29.206  0.00  0.00    -0.215 NA
BRANCH  14  15
ATOM     15  C   UNL d   1      60.516  -2.475  29.189  0.00  0.00     0.102 C 
BRANCH  15  16
ATOM     16  C   UNL d   1      60.437  -3.284  29.055  0.00  0.00     0.021 C 
ATOM     17  C   UNL d   1      60.935  -3.815  29.425  0.00  0.00     0.002 C 
ENDBRANCH  15  16
ENDBRANCH  14  15
ENDBRANCH  12  14
ENDBRANCH  11  12
ENDBRANCH   2  11
TORSDOF 6
ENDMDL
