MODEL 1
REMARK VINA RESULT:      24.9      0.000      0.000
REMARK  4 active torsions:
REMARK  status: ('A' for Active; 'I' for Inactive)
REMARK    1  A    between atoms: N_2  and  S_1 
REMARK    2  A    between atoms: C_3  and  S_1 
REMARK    3  A    between atoms: C_5  and  N_4 
REMARK    4  A    between atoms: O_16  and  C_13 
ROOT
ATOM      1  N   UNL d   1      44.777 -15.147  44.493  0.00  0.00    -0.226 N 
ATOM      2  N   UNL d   1      45.526 -16.607  44.368  0.00  0.00    -0.300 N 
ATOM      3  C   UNL d   1      45.452 -15.307  44.947  0.00  0.00     0.111 A 
ATOM      4  C   UNL d   1      44.478 -15.717  43.978  0.00  0.00     0.111 A 
ATOM      5  C   UNL d   1      45.831 -16.040  44.886  0.00  0.00     0.100 A 
ATOM      6  C   UNL d   1      44.856 -16.451  43.917  0.00  0.00     0.100 A 
ENDROOT
BRANCH   1   7
ATOM      7  S   UNL d   1      44.412 -14.426  44.558  0.00  0.00     0.272 S 
ATOM      8  O   UNL d   1      44.048 -13.708  44.623  0.00  0.00    -0.200 OA
ATOM      9  O   UNL d   1      43.734 -14.792  44.804  0.00  0.00    -0.200 OA
BRANCH   7  10
ATOM     10  C   UNL d   1      45.096 -14.057  44.310  0.00  0.00     0.106 A 
ATOM     11  C   UNL d   1      45.180 -13.844  43.518  0.00  0.00     0.043 A 
ATOM     12  C   UNL d   1      45.871 -13.471  43.267  0.00  0.00     0.141 A 
ATOM     13  F   UNL d   1      45.959 -13.258  42.486  0.00  0.00    -0.204 F 
ATOM     14  C   UNL d   1      46.471 -13.315  43.811  0.00  0.00     0.030 A 
ATOM     15  C   UNL d   1      46.379 -13.528  44.585  0.00  0.00     0.003 A 
ATOM     16  C   UNL d   1      45.688 -13.901  44.836  0.00  0.00     0.013 A 
ENDBRANCH   7  10
ENDBRANCH   1   7
BRANCH   2  17
ATOM     17  C   UNL d   1      45.896 -17.336  44.302  0.00  0.00     0.086 A 
ATOM     18  C   UNL d   1      46.242 -17.554  43.586  0.00  0.00     0.110 A 
ATOM     19  C   UNL d   1      46.615 -18.290  43.519  0.00  0.00     0.026 A 
ATOM     20  C   UNL d   1      46.642 -18.809  44.169  0.00  0.00     0.002 A 
ATOM     21  C   UNL d   1      46.294 -18.586  44.885  0.00  0.00     0.002 A 
ATOM     22  C   UNL d   1      45.921 -17.850  44.952  0.00  0.00     0.019 A 
BRANCH  18  23
ATOM     23  O   UNL d   1      46.216 -17.046  42.947  0.00  0.00    -0.327 OA
ATOM     24  C   UNL d   1      46.227 -17.307  42.309  0.00  0.00     0.181 C 
ENDBRANCH  18  23
ENDBRANCH   2  17
TORSDOF 4
ENDMDL
MODEL 2
REMARK VINA RESULT:      26.1      1.210      1.508
REMARK  4 active torsions:
REMARK  status: ('A' for Active; 'I' for Inactive)
REMARK    1  A    between atoms: N_2  and  S_1 
REMARK    2  A    between atoms: C_3  and  S_1 
REMARK    3  A    between atoms: C_5  and  N_4 
REMARK    4  A    between atoms: O_16  and  C_13 
ROOT
ATOM      1  N   UNL d   1      45.901 -14.924  44.294  0.00  0.00    -0.226 N 
ATOM      2  N   UNL d   1      46.025 -16.563  44.247  0.00  0.00    -0.300 N 
ATOM      3  C   UNL d   1      46.256 -15.330  44.923  0.00  0.00     0.111 A 
ATOM      4  C   UNL d   1      45.609 -15.336  43.643  0.00  0.00     0.111 A 
ATOM      5  C   UNL d   1      46.319 -16.156  44.901  0.00  0.00     0.100 A 
ATOM      6  C   UNL d   1      45.672 -16.161  43.621  0.00  0.00     0.100 A 
ENDROOT
BRANCH   1   7
ATOM      7  S   UNL d   1      45.842 -14.115  44.322  0.00  0.00     0.272 S 
ATOM      8  O   UNL d   1      45.784 -13.310  44.351  0.00  0.00    -0.200 OA
ATOM      9  O   UNL d   1      46.647 -14.055  44.275  0.00  0.00    -0.200 OA
BRANCH   7  10
ATOM     10  C   UNL d   1      45.030 -14.176  44.370  0.00  0.00     0.106 A 
ATOM     11  C   UNL d   1      44.557 -13.724  43.868  0.00  0.00     0.043 A 
ATOM     12  C   UNL d   1      43.736 -13.785  43.916  0.00  0.00     0.141 A 
ATOM     13  F   UNL d   1      43.264 -13.341  43.423  0.00  0.00    -0.204 F 
ATOM     14  C   UNL d   1      43.397 -14.298  44.466  0.00  0.00     0.030 A 
ATOM     15  C   UNL d   1      43.869 -14.736  44.954  0.00  0.00     0.003 A 
ATOM     16  C   UNL d   1      44.689 -14.675  44.906  0.00  0.00     0.013 A 
ENDBRANCH   7  10
ENDBRANCH   1   7
BRANCH   2  17
ATOM     17  C   UNL d   1      46.085 -17.381  44.218  0.00  0.00     0.086 A 
ATOM     18  C   UNL d   1      46.171 -17.758  43.489  0.00  0.00     0.110 A 
ATOM     19  C   UNL d   1      46.231 -18.583  43.460  0.00  0.00     0.026 A 
ATOM     20  C   UNL d   1      46.204 -19.032  44.160  0.00  0.00     0.002 A 
ATOM     21  C   UNL d   1      46.117 -18.650  44.888  0.00  0.00     0.002 A 
ATOM     22  C   UNL d   1      46.057 -17.825  44.917  0.00  0.00     0.019 A 
BRANCH  18  23
ATOM     23  O   UNL d   1      46.198 -17.318  42.802  0.00  0.00    -0.327 OA
ATOM     24  C   UNL d   1      46.292 -17.641  42.200  0.00  0.00     0.181 C 
ENDBRANCH  18  23
ENDBRANCH   2  17
TORSDOF 4
ENDMDL
MODEL 3
REMARK VINA RESULT:      27.1      2.064      4.268
REMARK  4 active torsions:
REMARK  status: ('A' for Active; 'I' for Inactive)
REMARK    1  A    between atoms: N_2  and  S_1 
REMARK    2  A    between atoms: C_3  and  S_1 
REMARK    3  A    between atoms: C_5  and  N_4 
REMARK    4  A    between atoms: O_16  and  C_13 
ROOT
ATOM      1  N   UNL d   1      46.166 -17.998  44.233  0.00  0.00    -0.226 N 
ATOM      2  N   UNL d   1      45.970 -16.372  44.382  0.00  0.00    -0.300 N 
ATOM      3  C   UNL d   1      45.655 -17.594  43.720  0.00  0.00     0.111 A 
ATOM      4  C   UNL d   1      46.577 -17.590  44.818  0.00  0.00     0.111 A 
ATOM      5  C   UNL d   1      45.555 -16.775  43.793  0.00  0.00     0.100 A 
ATOM      6  C   UNL d   1      46.477 -16.771  44.892  0.00  0.00     0.100 A 
ENDROOT
BRANCH   1   7
ATOM      7  S   UNL d   1      46.259 -18.800  44.155  0.00  0.00     0.272 S 
ATOM      8  O   UNL d   1      46.351 -19.599  44.077  0.00  0.00    -0.200 OA
ATOM      9  O   UNL d   1      46.158 -18.889  44.951  0.00  0.00    -0.200 OA
BRANCH   7  10
ATOM     10  C   UNL d   1      46.360 -18.710  43.350  0.00  0.00     0.106 A 
ATOM     11  C   UNL d   1      46.274 -19.362  42.852  0.00  0.00     0.043 A 
ATOM     12  C   UNL d   1      46.377 -19.271  42.040  0.00  0.00     0.141 A 
ATOM     13  F   UNL d   1      46.293 -19.912  41.544  0.00  0.00    -0.204 F 
ATOM     14  C   UNL d   1      46.565 -18.529  41.733  0.00  0.00     0.030 A 
ATOM     15  C   UNL d   1      46.647 -17.896  42.228  0.00  0.00     0.003 A 
ATOM     16  C   UNL d   1      46.544 -17.987  43.040  0.00  0.00     0.013 A 
ENDBRANCH   7  10
ENDBRANCH   1   7
BRANCH   2  17
ATOM     17  C   UNL d   1      45.876 -15.561  44.461  0.00  0.00     0.086 A 
ATOM     18  C   UNL d   1      45.164 -15.259  44.747  0.00  0.00     0.110 A 
ATOM     19  C   UNL d   1      45.069 -14.440  44.827  0.00  0.00     0.026 A 
ATOM     20  C   UNL d   1      45.686 -13.923  44.620  0.00  0.00     0.002 A 
ATOM     21  C   UNL d   1      46.398 -14.230  44.333  0.00  0.00     0.002 A 
ATOM     22  C   UNL d   1      46.493 -15.049  44.253  0.00  0.00     0.019 A 
BRANCH  18  23
ATOM     23  O   UNL d   1      44.557 -15.766  44.951  0.00  0.00    -0.327 OA
ATOM     24  C   UNL d   1      43.905 -15.547  44.901  0.00  0.00     0.181 C 
ENDBRANCH  18  23
ENDBRANCH   2  17
TORSDOF 4
ENDMDL
