MODEL 1
REMARK VINA RESULT:      -9.1      0.000      0.000
REMARK  1 active torsions:
REMARK  status: ('A' for Active; 'I' for Inactive)
REMARK    1  A    between atoms: C_6  and  C_1 
ROOT
ATOM      1  C   UNL d   1      52.393  33.673  53.588  0.00  0.00     0.162 A 
ATOM      2  N   UNL d   1      52.778  32.986  53.687  0.00  0.00    -0.225 NA
ATOM      3  N   UNL d   1      52.780  34.245  54.048  0.00  0.00    -0.225 NA
ATOM      4  C   UNL d   1      53.408  33.090  54.199  0.00  0.00     0.101 A 
ATOM      5  C   UNL d   1      53.409  33.884  54.426  0.00  0.00     0.101 A 
ATOM      6  C   UNL d   1      53.953  32.573  54.468  0.00  0.00     0.021 A 
ATOM      7  C   UNL d   1      53.955  34.149  54.920  0.00  0.00     0.021 A 
ATOM      8  C   UNL d   1      54.534  32.861  54.994  0.00  0.00     0.002 A 
ATOM      9  C   UNL d   1      54.535  33.655  55.222  0.00  0.00     0.002 A 
ENDROOT
BRANCH   1  10
ATOM     10  C   UNL d   1      51.773  33.854  53.165  0.00  0.00     0.036 A 
ATOM     11  C   UNL d   1      51.872  34.134  52.396  0.00  0.00     0.005 A 
ATOM     12  C   UNL d   1      51.195  34.329  51.940  0.00  0.00     0.021 A 
ATOM     13  C   UNL d   1      50.432  34.227  52.296  0.00  0.00     0.103 A 
ATOM     14  C   UNL d   1      50.350  33.956  53.040  0.00  0.00     0.021 A 
ATOM     15  N   UNL d   1      49.725  34.407  51.884  0.00  0.00    -0.148 N 
ATOM     16  C   UNL d   1      51.027  33.761  53.497  0.00  0.00     0.005 A 
ENDBRANCH   1  10
TORSDOF 1
ENDMDL
MODEL 2
REMARK VINA RESULT:      -9.1      1.771      2.852
REMARK  1 active torsions:
REMARK  status: ('A' for Active; 'I' for Inactive)
REMARK    1  A    between atoms: C_6  and  C_1 
ROOT
ATOM      1  C   UNL d   1      53.199  32.712  53.744  0.00  0.00     0.162 A 
ATOM      2  N   UNL d   1      53.716  32.162  53.991  0.00  0.00    -0.225 NA
ATOM      3  N   UNL d   1      52.651  32.336  53.249  0.00  0.00    -0.225 NA
ATOM      4  C   UNL d   1      53.521  31.434  53.672  0.00  0.00     0.101 A 
ATOM      5  C   UNL d   1      52.850  31.544  53.204  0.00  0.00     0.101 A 
ATOM      6  C   UNL d   1      53.867  30.719  53.753  0.00  0.00     0.021 A 
ATOM      7  C   UNL d   1      52.534  30.937  52.824  0.00  0.00     0.021 A 
ATOM      8  C   UNL d   1      53.526  30.075  53.347  0.00  0.00     0.002 A 
ATOM      9  C   UNL d   1      52.854  30.185  52.878  0.00  0.00     0.002 A 
ENDROOT
BRANCH   1  10
ATOM     10  C   UNL d   1      53.151  33.468  53.892  0.00  0.00     0.036 A 
ATOM     11  C   UNL d   1      52.900  33.984  53.299  0.00  0.00     0.005 A 
ATOM     12  C   UNL d   1      52.850  34.806  53.464  0.00  0.00     0.021 A 
ATOM     13  C   UNL d   1      53.061  35.069  54.241  0.00  0.00     0.103 A 
ATOM     14  C   UNL d   1      53.302  34.561  54.806  0.00  0.00     0.021 A 
ATOM     15  N   UNL d   1      53.028  35.878  54.458  0.00  0.00    -0.148 N 
ATOM     16  C   UNL d   1      53.353  33.739  54.641  0.00  0.00     0.005 A 
ENDBRANCH   1  10
TORSDOF 1
ENDMDL
MODEL 3
REMARK VINA RESULT:      -8.9      1.741      3.080
REMARK  1 active torsions:
REMARK  status: ('A' for Active; 'I' for Inactive)
REMARK    1  A    between atoms: C_6  and  C_1 
ROOT
ATOM      1  C   UNL d   1      53.066  32.704  53.609  0.00  0.00     0.162 A 
ATOM      2  N   UNL d   1      52.828  33.297  53.139  0.00  0.00    -0.225 NA
ATOM      3  N   UNL d   1      53.304  33.036  54.331  0.00  0.00    -0.225 NA
ATOM      4  C   UNL d   1      52.903  34.012  53.531  0.00  0.00     0.101 A 
ATOM      5  C   UNL d   1      53.204  33.847  54.283  0.00  0.00     0.101 A 
ATOM      6  C   UNL d   1      52.739  34.756  53.296  0.00  0.00     0.021 A 
ATOM      7  C   UNL d   1      53.335  34.429  54.788  0.00  0.00     0.021 A 
ATOM      8  C   UNL d   1      52.881  35.374  53.839  0.00  0.00     0.002 A 
ATOM      9  C   UNL d   1      53.181  35.209  54.590  0.00  0.00     0.002 A 
ENDROOT
BRANCH   1  10
ATOM     10  C   UNL d   1      53.098  31.942  53.491  0.00  0.00     0.036 A 
ATOM     11  C   UNL d   1      53.710  31.503  53.828  0.00  0.00     0.005 A 
ATOM     12  C   UNL d   1      53.741  30.674  53.696  0.00  0.00     0.021 A 
ATOM     13  C   UNL d   1      53.136  30.324  53.218  0.00  0.00     0.103 A 
ATOM     14  C   UNL d   1      52.550  30.759  52.897  0.00  0.00     0.021 A 
ATOM     15  N   UNL d   1      53.121  29.502  53.055  0.00  0.00    -0.148 N 
ATOM     16  C   UNL d   1      52.518  31.588  53.029  0.00  0.00     0.005 A 
ENDBRANCH   1  10
TORSDOF 1
ENDMDL
MODEL 4
REMARK VINA RESULT:      -8.5      0.959      3.705
REMARK  1 active torsions:
REMARK  status: ('A' for Active; 'I' for Inactive)
REMARK    1  A    between atoms: C_6  and  C_1 
ROOT
ATOM      1  C   UNL d   1      52.708  33.724  53.755  0.00  0.00     0.162 A 
ATOM      2  N   UNL d   1      51.999  33.401  53.908  0.00  0.00    -0.225 NA
ATOM      3  N   UNL d   1      52.635  34.168  53.058  0.00  0.00    -0.225 NA
ATOM      4  C   UNL d   1      51.462  33.620  53.331  0.00  0.00     0.101 A 
ATOM      5  C   UNL d   1      51.863  34.103  52.795  0.00  0.00     0.101 A 
ATOM      6  C   UNL d   1      50.690  33.439  53.241  0.00  0.00     0.021 A 
ATOM      7  C   UNL d   1      51.486  34.399  52.177  0.00  0.00     0.021 A 
ATOM      8  C   UNL d   1      50.292  33.757  52.580  0.00  0.00     0.002 A 
ATOM      9  C   UNL d   1      50.693  34.241  52.044  0.00  0.00     0.002 A 
ENDROOT
BRANCH   1  10
ATOM     10  C   UNL d   1      53.380  33.681  54.132  0.00  0.00     0.036 A 
ATOM     11  C   UNL d   1      53.918  33.087  53.939  0.00  0.00     0.005 A 
ATOM     12  C   UNL d   1      54.648  33.044  54.352  0.00  0.00     0.021 A 
ATOM     13  C   UNL d   1      54.798  33.620  54.955  0.00  0.00     0.103 A 
ATOM     14  C   UNL d   1      54.270  34.189  55.133  0.00  0.00     0.021 A 
ATOM     15  N   UNL d   1      55.510  33.622  55.397  0.00  0.00    -0.148 N 
ATOM     16  C   UNL d   1      53.540  34.232  54.719  0.00  0.00     0.005 A 
ENDBRANCH   1  10
TORSDOF 1
ENDMDL
