MODEL 1
REMARK VINA RESULT:      45.7      0.000      0.000
REMARK  9 active torsions:
REMARK  status: ('A' for Active; 'I' for Inactive)
REMARK    1  A    between atoms: C_8  and  S_1 
REMARK    2  A    between atoms: C_2  and  N_3 
REMARK    3  A    between atoms: N_4  and  C_2 
REMARK    4  A    between atoms: C_6  and  C_2 
REMARK    5  A    between atoms: N_3  and  C_5 
REMARK       I    between atoms: C_7  and  N_4 
REMARK    6  A    between atoms: C_5  and  N_9 
REMARK    7  A    between atoms: C_13  and  C_7 
REMARK    8  A    between atoms: N_9  and  C_23 
REMARK    9  A    between atoms: O_29  and  C_24 
ROOT
ATOM      1  C   UNL d   1      13.591  13.552  -4.346  0.00  0.00     0.238 C 
ENDROOT
BRANCH   1   2
ATOM      2  N   UNL d   1      13.671  14.307  -3.997  0.00  0.00    -0.188 NA
BRANCH   2   3
ATOM      3  C   UNL d   1      13.513  15.090  -4.212  0.00  0.00     0.223 C 
ATOM      4  S   UNL d   1      12.786  15.308  -4.439  0.00  0.00    -0.037 SA
BRANCH   3   5
ATOM      5  N   UNL d   1      14.136  15.622  -4.179  0.00  0.00    -0.217 NA
BRANCH   5   6
ATOM      6  C   UNL d   1      14.407  15.922  -3.462  0.00  0.00     0.084 A 
ATOM      7  C   UNL d   1      14.944  16.537  -3.428  0.00  0.00     0.020 A 
ATOM      8  C   UNL d   1      15.219  16.842  -2.720  0.00  0.00     0.015 A 
ATOM      9  C   UNL d   1      14.946  16.518  -2.017  0.00  0.00     0.107 A 
ATOM     10  C   UNL d   1      14.401  15.894  -2.014  0.00  0.00     0.015 A 
ATOM     11  C   UNL d   1      14.142  15.607  -2.742  0.00  0.00     0.020 A 
BRANCH   9  12
ATOM     12  S   UNL d   1      15.223  16.825  -1.287  0.00  0.00     0.302 S 
ATOM     13  O   UNL d   1      14.498  17.206  -1.174  0.00  0.00    -0.197 OA
ATOM     14  O   UNL d   1      15.949  16.437  -1.411  0.00  0.00    -0.197 OA
ATOM     15  N   UNL d   1      15.502  17.126  -0.566  0.00  0.00    -0.043 N 
ENDBRANCH   9  12
ENDBRANCH   5   6
ENDBRANCH   3   5
ENDBRANCH   2   3
ENDBRANCH   1   2
BRANCH   1  16
ATOM     16  N   UNL d   1      13.485  13.049  -3.975  0.00  0.00    -0.346 NA
ATOM     17  C   UNL d   1      13.266  12.331  -3.592  0.00  0.00     0.329 C 
ATOM     18  O   UNL d   1      12.769  11.780  -4.007  0.00  0.00    -0.251 OA
BRANCH  17  19
ATOM     19  C   UNL d   1      13.533  12.192  -2.847  0.00  0.00     0.071 A 
ATOM     20  C   UNL d   1      14.383  12.331  -2.678  0.00  0.00     0.008 A 
ATOM     21  C   UNL d   1      14.684  12.194  -1.913  0.00  0.00     0.024 A 
ATOM     22  C   UNL d   1      14.172  11.923  -1.306  0.00  0.00     0.094 A 
ATOM     23  C   UNL d   1      13.388  11.806  -1.501  0.00  0.00     0.024 A 
ATOM     24  C   UNL d   1      13.066  11.938  -2.265  0.00  0.00     0.008 A 
BRANCH  22  25
ATOM     25  O   UNL d   1      14.502  11.794  -0.548  0.00  0.00    -0.328 OA
ATOM     26  C   UNL d   1      14.985  12.379  -0.187  0.00  0.00     0.181 C 
ENDBRANCH  22  25
ENDBRANCH  17  19
ENDBRANCH   1  16
BRANCH   1  27
ATOM     27  C   UNL d   1      13.652  13.473  -5.156  0.00  0.00     0.262 C 
ATOM     28 CL   UNL d   1      13.707  13.393  -5.968  0.00  0.00    -0.074 Cl
ATOM     29 CL   UNL d   1      14.493  13.584  -5.106  0.00  0.00    -0.074 Cl
ATOM     30 CL   UNL d   1      12.833  13.365  -5.202  0.00  0.00    -0.074 Cl
ENDBRANCH   1  27
TORSDOF 9
ENDMDL
