MODEL 1
REMARK VINA RESULT:      51.0      0.000      0.000
REMARK  3 active torsions:
REMARK  status: ('A' for Active; 'I' for Inactive)
REMARK    1  A    between atoms: C_5  and  C_3 
REMARK       I    between atoms: N_10  and  C_5 
REMARK    2  A    between atoms: C_13  and  N_10 
REMARK    3  A    between atoms: C_15  and  C_13 
ROOT
ATOM      1  N   UNL d   1     -54.897-101.690 -37.994  0.00  0.00    -0.254 N 
ATOM      2  C   UNL d   1     -54.835-101.249 -38.693  0.00  0.00     0.272 A 
ATOM      3  C   UNL d   1     -54.890-101.622 -39.429  0.00  0.00     0.133 A 
ATOM      4  C   UNL d   1     -55.014-102.505 -38.041  0.00  0.00     0.182 A 
ATOM      5  N   UNL d   1     -55.069-102.879 -38.772  0.00  0.00    -0.220 NA
ATOM      6  C   UNL d   1     -55.007-102.438 -39.469  0.00  0.00     0.111 A 
ATOM      7  S   UNL d   1     -55.055-102.802 -37.272  0.00  0.00    -0.048 SA
ATOM      8  C   UNL d   1     -54.865-101.480 -37.204  0.00  0.00     0.075 A 
ATOM      9  C   UNL d   1     -54.962-102.157 -36.752  0.00  0.00     0.056 A 
ATOM     10  O   UNL d   1     -54.717-100.433 -38.646  0.00  0.00    -0.266 OA
ATOM     11  C   UNL d   1     -54.756-100.722 -36.908  0.00  0.00     0.020 C 
ENDROOT
BRANCH   3  12
ATOM     12  C   UNL d   1     -54.826-101.168 -40.120  0.00  0.00     0.285 C 
ATOM     13  N   UNL d   1     -54.878-101.542 -40.852  0.00  0.00    -0.208 NA
ATOM     14  O   UNL d   1     -54.712-100.360 -40.077  0.00  0.00    -0.265 OA
BRANCH  13  15
ATOM     15  C   UNL d   1     -54.816-101.101 -41.544  0.00  0.00     0.085 C 
ATOM     16  C   UNL d   1     -54.777-100.285 -41.515  0.00  0.00     0.021 C 
BRANCH  15  17
ATOM     17  C   UNL d   1     -54.793-101.492 -42.270  0.00  0.00     0.018 A 
ATOM     18  C   UNL d   1     -54.735-101.041 -42.962  0.00  0.00     0.002 A 
ATOM     19  C   UNL d   1     -54.712-101.432 -43.688  0.00  0.00     0.000 A 
ATOM     20  C   UNL d   1     -54.747-102.265 -43.731  0.00  0.00     0.000 A 
ATOM     21  C   UNL d   1     -54.805-102.702 -43.031  0.00  0.00     0.000 A 
ATOM     22  C   UNL d   1     -54.828-102.322 -42.300  0.00  0.00     0.002 A 
ENDBRANCH  15  17
ENDBRANCH  13  15
ENDBRANCH   3  12
TORSDOF 3
ENDMDL
