MODEL 1
REMARK VINA RESULT:      27.6      0.000      0.000
REMARK  8 active torsions:
REMARK  status: ('A' for Active; 'I' for Inactive)
REMARK    1  A    between atoms: N_2  and  S_1 
REMARK    2  A    between atoms: C_3  and  S_1 
REMARK    3  A    between atoms: C_4  and  C_7 
REMARK    4  A    between atoms: O_17  and  C_4 
REMARK    5  A    between atoms: C_23  and  O_17 
REMARK    6  A    between atoms: C_18  and  C_24 
REMARK    7  A    between atoms: C_27  and  C_23 
REMARK    8  A    between atoms: C_24  and  C_27 
ROOT
ATOM      1  C   UNL d   1      46.090 -17.582  43.303  0.00  0.00     0.104 A 
ATOM      2  C   UNL d   1      45.809 -16.252  44.224  0.00  0.00     0.064 A 
ATOM      3  C   UNL d   1      46.030 -17.640  44.115  0.00  0.00     0.013 A 
ATOM      4  C   UNL d   1      46.007 -16.837  42.940  0.00  0.00     0.013 A 
ATOM      5  C   UNL d   1      45.891 -16.992  44.587  0.00  0.00     0.006 A 
ATOM      6  C   UNL d   1      45.867 -16.178  43.402  0.00  0.00     0.006 A 
ENDROOT
BRANCH   2   7
ATOM      7  C   UNL d   1      45.668 -15.592  44.702  0.00  0.00     0.300 C 
ATOM      8  O   UNL d   1      44.871 -15.447  44.920  0.00  0.00    -0.259 OA
BRANCH   7   9
ATOM      9  O   UNL d   1      46.245 -15.105  44.955  0.00  0.00    -0.271 OA
BRANCH   9  10
ATOM     10  C   UNL d   1      46.241 -14.295  44.796  0.00  0.00     0.126 C 
BRANCH  10  11
ATOM     11  C   UNL d   1      45.554 -13.884  44.580  0.00  0.00     0.027 C 
BRANCH  11  12
ATOM     12  C   UNL d   1      45.559 -13.082  44.476  0.00  0.00     0.002 C 
BRANCH  12  13
ATOM     13  C   UNL d   1      45.315 -12.746  43.751  0.00  0.00     0.003 A 
ATOM     14  C   UNL d   1      44.558 -12.446  43.684  0.00  0.00     0.021 A 
ATOM     15  C   UNL d   1      44.310 -12.114  42.977  0.00  0.00     0.099 A 
ATOM     16  N   UNL d   1      44.827 -12.082  42.325  0.00  0.00    -0.242 NA
ATOM     17  C   UNL d   1      45.583 -12.383  42.396  0.00  0.00     0.099 A 
ATOM     18  C   UNL d   1      45.810 -12.712  43.118  0.00  0.00     0.021 A 
ENDBRANCH  12  13
ENDBRANCH  11  12
ENDBRANCH  10  11
ENDBRANCH   9  10
ENDBRANCH   7   9
ENDBRANCH   2   7
BRANCH   1  19
ATOM     19  S   UNL d   1      46.232 -18.258  42.838  0.00  0.00     0.272 S 
ATOM     20  O   UNL d   1      46.538 -18.661  43.504  0.00  0.00    -0.200 OA
ATOM     21  O   UNL d   1      45.931 -17.877  42.154  0.00  0.00    -0.200 OA
BRANCH  19  22
ATOM     22  N   UNL d   1      46.371 -18.930  42.362  0.00  0.00    -0.225 N 
ATOM     23  C   UNL d   1      46.437 -19.676  42.689  0.00  0.00     0.118 A 
ATOM     24  C   UNL d   1      46.575 -20.330  42.194  0.00  0.00     0.142 A 
ATOM     25  O   UNL d   1      46.647 -20.233  41.382  0.00  0.00    -0.300 OA
ATOM     26  C   UNL d   1      46.580 -19.476  41.058  0.00  0.00     0.142 A 
ATOM     27  C   UNL d   1      46.445 -18.827  41.521  0.00  0.00     0.118 A 
ENDBRANCH  19  22
ENDBRANCH   1  19
TORSDOF 8
ENDMDL
MODEL 2
REMARK VINA RESULT:      27.9      3.561      4.896
REMARK  8 active torsions:
REMARK  status: ('A' for Active; 'I' for Inactive)
REMARK    1  A    between atoms: N_2  and  S_1 
REMARK    2  A    between atoms: C_3  and  S_1 
REMARK    3  A    between atoms: C_4  and  C_7 
REMARK    4  A    between atoms: O_17  and  C_4 
REMARK    5  A    between atoms: C_23  and  O_17 
REMARK    6  A    between atoms: C_18  and  C_24 
REMARK    7  A    between atoms: C_27  and  C_23 
REMARK    8  A    between atoms: C_24  and  C_27 
ROOT
ATOM      1  C   UNL d   1      46.266 -18.690  41.843  0.00  0.00     0.104 A 
ATOM      2  C   UNL d   1      46.076 -18.105  40.321  0.00  0.00     0.064 A 
ATOM      3  C   UNL d   1      46.116 -17.898  41.714  0.00  0.00     0.013 A 
ATOM      4  C   UNL d   1      46.322 -19.205  41.192  0.00  0.00     0.013 A 
ATOM      5  C   UNL d   1      46.020 -17.591  40.967  0.00  0.00     0.006 A 
ATOM      6  C   UNL d   1      46.226 -18.910  40.436  0.00  0.00     0.006 A 
ENDROOT
BRANCH   2   7
ATOM      7  C   UNL d   1      45.978 -17.795  39.561  0.00  0.00     0.300 C 
ATOM      8  O   UNL d   1      46.550 -18.011  38.987  0.00  0.00    -0.259 OA
BRANCH   7   9
ATOM      9  O   UNL d   1      45.376 -17.312  39.360  0.00  0.00    -0.271 OA
BRANCH   9  10
ATOM     10  C   UNL d   1      45.101 -17.248  38.585  0.00  0.00     0.126 C 
BRANCH  10  11
ATOM     11  C   UNL d   1      44.648 -16.605  38.322  0.00  0.00     0.027 C 
BRANCH  11  12
ATOM     12  C   UNL d   1      44.628 -16.397  37.540  0.00  0.00     0.002 C 
BRANCH  12  13
ATOM     13  C   UNL d   1      44.982 -15.686  37.280  0.00  0.00     0.003 A 
ATOM     14  C   UNL d   1      45.736 -15.707  36.966  0.00  0.00     0.021 A 
ATOM     15  C   UNL d   1      46.091 -15.015  36.709  0.00  0.00     0.099 A 
ATOM     16  N   UNL d   1      45.686 -14.289  36.766  0.00  0.00    -0.242 NA
ATOM     17  C   UNL d   1      44.932 -14.273  37.080  0.00  0.00     0.099 A 
ATOM     18  C   UNL d   1      44.595 -14.983  37.333  0.00  0.00     0.021 A 
ENDBRANCH  12  13
ENDBRANCH  11  12
ENDBRANCH  10  11
ENDBRANCH   9  10
ENDBRANCH   7   9
ENDBRANCH   2   7
BRANCH   1  19
ATOM     19  S   UNL d   1      46.362 -18.984  42.616  0.00  0.00     0.272 S 
ATOM     20  O   UNL d   1      46.493 -19.754  42.314  0.00  0.00    -0.200 OA
ATOM     21  O   UNL d   1      46.234 -18.224  42.945  0.00  0.00    -0.200 OA
BRANCH  19  22
ATOM     22  N   UNL d   1      46.456 -19.270  43.395  0.00  0.00    -0.225 N 
ATOM     23  C   UNL d   1      46.467 -20.071  43.556  0.00  0.00     0.118 A 
ATOM     24  C   UNL d   1      46.563 -20.330  44.341  0.00  0.00     0.142 A 
ATOM     25  O   UNL d   1      46.646 -19.791  44.953  0.00  0.00    -0.300 OA
ATOM     26  C   UNL d   1      46.635 -18.982  44.783  0.00  0.00     0.142 A 
ATOM     27  C   UNL d   1      46.543 -18.708  44.028  0.00  0.00     0.118 A 
ENDBRANCH  19  22
ENDBRANCH   1  19
TORSDOF 8
ENDMDL
