MODEL 1
REMARK VINA RESULT:     -10.8      0.000      0.000
REMARK  3 active torsions:
REMARK  status: ('A' for Active; 'I' for Inactive)
REMARK    1  A    between atoms: C_2  and  C_1 
REMARK       I    between atoms: N_8  and  C_2 
REMARK    2  A    between atoms: C_12  and  C_4 
REMARK    3  A    between atoms: C_9  and  N_8 
ROOT
ATOM      1  C   UNL d   1      53.371  31.839  53.415  0.00  0.00     0.106 A 
ATOM      2  C   UNL d   1      52.959  31.179  52.983  0.00  0.00     0.093 A 
ATOM      3  C   UNL d   1      53.724  31.751  54.041  0.00  0.00     0.093 A 
ATOM      4  C   UNL d   1      53.416  30.371  54.061  0.00  0.00     0.369 A 
ATOM      5  N   UNL d   1      53.007  30.454  53.345  0.00  0.00    -0.191 NA
ATOM      6  N   UNL d   1      53.775  31.019  54.409  0.00  0.00    -0.191 NA
ATOM      7  O   UNL d   1      53.461  29.628  54.424  0.00  0.00    -0.242 OA
ATOM      8  C   UNL d   1      52.566  31.305  52.278  0.00  0.00     0.021 C 
ENDROOT
BRANCH   1   9
ATOM      9  C   UNL d   1      53.346  32.590  53.083  0.00  0.00     0.331 C 
ATOM     10  N   UNL d   1      52.645  33.008  53.052  0.00  0.00    -0.365 NA
ATOM     11  O   UNL d   1      54.035  32.921  52.781  0.00  0.00    -0.251 OA
BRANCH  10  12
ATOM     12  C   UNL d   1      51.884  33.431  53.032  0.00  0.00     0.135 A 
ATOM     13  C   UNL d   1      51.804  34.196  52.602  0.00  0.00     0.030 A 
ATOM     14  C   UNL d   1      52.507  34.532  52.190  0.00  0.00     0.003 C 
ATOM     15  C   UNL d   1      51.050  34.614  52.582  0.00  0.00     0.003 A 
ATOM     16  C   UNL d   1      50.344  34.281  52.993  0.00  0.00     0.000 A 
ATOM     17  C   UNL d   1      50.419  33.522  53.421  0.00  0.00     0.003 A 
ATOM     18  C   UNL d   1      51.183  33.096  53.442  0.00  0.00     0.032 A 
ENDBRANCH  10  12
ENDBRANCH   1   9
BRANCH   3  19
ATOM     19  C   UNL d   1      54.083  32.402  54.387  0.00  0.00     0.018 A 
ATOM     20  C   UNL d   1      54.764  32.731  54.056  0.00  0.00     0.002 A 
ATOM     21  C   UNL d   1      55.112  33.380  54.409  0.00  0.00     0.000 A 
ATOM     22  C   UNL d   1      54.788  33.705  55.089  0.00  0.00     0.000 A 
ATOM     23  C   UNL d   1      54.116  33.380  55.416  0.00  0.00     0.000 A 
ATOM     24  C   UNL d   1      53.759  32.733  55.073  0.00  0.00     0.002 A 
ENDBRANCH   3  19
TORSDOF 3
ENDMDL
MODEL 2
REMARK VINA RESULT:      -9.8      1.240      3.657
REMARK  3 active torsions:
REMARK  status: ('A' for Active; 'I' for Inactive)
REMARK    1  A    between atoms: C_2  and  C_1 
REMARK       I    between atoms: N_8  and  C_2 
REMARK    2  A    between atoms: C_12  and  C_4 
REMARK    3  A    between atoms: C_9  and  N_8 
ROOT
ATOM      1  C   UNL d   1      53.344  33.331  53.790  0.00  0.00     0.106 A 
ATOM      2  C   UNL d   1      54.116  33.344  54.233  0.00  0.00     0.093 A 
ATOM      3  C   UNL d   1      52.799  33.790  53.920  0.00  0.00     0.093 A 
ATOM      4  C   UNL d   1      53.536  34.435  54.939  0.00  0.00     0.369 A 
ATOM      5  N   UNL d   1      54.171  33.918  54.805  0.00  0.00    -0.191 NA
ATOM      6  N   UNL d   1      52.851  34.371  54.496  0.00  0.00    -0.191 NA
ATOM      7  O   UNL d   1      53.600  35.017  55.524  0.00  0.00    -0.242 OA
ATOM      8  C   UNL d   1      54.717  32.814  54.068  0.00  0.00     0.021 C 
ENDROOT
BRANCH   1   9
ATOM      9  C   UNL d   1      53.247  32.765  53.203  0.00  0.00     0.331 C 
ATOM     10  N   UNL d   1      53.212  31.971  53.392  0.00  0.00    -0.365 NA
ATOM     11  O   UNL d   1      53.186  33.003  52.418  0.00  0.00    -0.251 OA
BRANCH  10  12
ATOM     12  C   UNL d   1      53.178  31.132  53.622  0.00  0.00     0.135 A 
ATOM     13  C   UNL d   1      53.105  30.499  53.013  0.00  0.00     0.030 A 
ATOM     14  C   UNL d   1      53.067  30.726  52.161  0.00  0.00     0.003 C 
ATOM     15  C   UNL d   1      53.072  29.668  53.241  0.00  0.00     0.003 A 
ATOM     16  C   UNL d   1      53.110  29.438  54.092  0.00  0.00     0.000 A 
ATOM     17  C   UNL d   1      53.182  30.062  54.700  0.00  0.00     0.003 A 
ATOM     18  C   UNL d   1      53.216  30.906  54.470  0.00  0.00     0.032 A 
ENDBRANCH  10  12
ENDBRANCH   1   9
BRANCH   3  19
ATOM     19  C   UNL d   1      52.114  33.723  53.474  0.00  0.00     0.018 A 
ATOM     20  C   UNL d   1      51.459  33.316  53.770  0.00  0.00     0.002 A 
ATOM     21  C   UNL d   1      50.782  33.256  53.318  0.00  0.00     0.000 A 
ATOM     22  C   UNL d   1      50.750  33.597  52.573  0.00  0.00     0.000 A 
ATOM     23  C   UNL d   1      51.396  33.999  52.280  0.00  0.00     0.000 A 
ATOM     24  C   UNL d   1      52.077  34.066  52.722  0.00  0.00     0.002 A 
ENDBRANCH   3  19
TORSDOF 3
ENDMDL
MODEL 3
REMARK VINA RESULT:      -8.7      1.240      2.281
REMARK  3 active torsions:
REMARK  status: ('A' for Active; 'I' for Inactive)
REMARK    1  A    between atoms: C_2  and  C_1 
REMARK       I    between atoms: N_8  and  C_2 
REMARK    2  A    between atoms: C_12  and  C_4 
REMARK    3  A    between atoms: C_9  and  N_8 
ROOT
ATOM      1  C   UNL d   1      53.647  33.267  53.955  0.00  0.00     0.106 A 
ATOM      2  C   UNL d   1      53.806  34.056  54.333  0.00  0.00     0.093 A 
ATOM      3  C   UNL d   1      53.803  32.633  54.268  0.00  0.00     0.093 A 
ATOM      4  C   UNL d   1      54.317  33.283  55.413  0.00  0.00     0.369 A 
ATOM      5  N   UNL d   1      54.145  34.019  55.070  0.00  0.00    -0.191 NA
ATOM      6  N   UNL d   1      54.146  32.591  55.012  0.00  0.00    -0.191 NA
ATOM      7  O   UNL d   1      54.663  33.253  56.164  0.00  0.00    -0.242 OA
ATOM      8  C   UNL d   1      53.620  34.759  53.959  0.00  0.00     0.021 C 
ENDROOT
BRANCH   1   9
ATOM      9  C   UNL d   1      53.304  33.260  53.209  0.00  0.00     0.331 C 
ATOM     10  N   UNL d   1      52.530  33.498  53.105  0.00  0.00    -0.365 NA
ATOM     11  O   UNL d   1      53.746  33.010  52.563  0.00  0.00    -0.251 OA
BRANCH  10  12
ATOM     12  C   UNL d   1      51.702  33.758  53.024  0.00  0.00     0.135 A 
ATOM     13  C   UNL d   1      51.418  34.131  52.278  0.00  0.00     0.030 A 
ATOM     14  C   UNL d   1      51.983  34.240  51.610  0.00  0.00     0.003 C 
ATOM     15  C   UNL d   1      50.598  34.388  52.198  0.00  0.00     0.003 A 
ATOM     16  C   UNL d   1      50.030  34.281  52.865  0.00  0.00     0.000 A 
ATOM     17  C   UNL d   1      50.308  33.911  53.607  0.00  0.00     0.003 A 
ATOM     18  C   UNL d   1      51.140  33.650  53.690  0.00  0.00     0.032 A 
ENDBRANCH  10  12
ENDBRANCH   1   9
BRANCH   3  19
ATOM     19  C   UNL d   1      53.631  31.940  53.864  0.00  0.00     0.018 A 
ATOM     20  C   UNL d   1      54.118  31.680  53.251  0.00  0.00     0.002 A 
ATOM     21  C   UNL d   1      53.936  30.988  52.856  0.00  0.00     0.000 A 
ATOM     22  C   UNL d   1      53.273  30.554  53.064  0.00  0.00     0.000 A 
ATOM     23  C   UNL d   1      52.791  30.811  53.669  0.00  0.00     0.000 A 
ATOM     24  C   UNL d   1      52.962  31.499  54.072  0.00  0.00     0.002 A 
ENDBRANCH   3  19
TORSDOF 3
ENDMDL
MODEL 4
REMARK VINA RESULT:      -8.4      1.360      3.050
REMARK  3 active torsions:
REMARK  status: ('A' for Active; 'I' for Inactive)
REMARK    1  A    between atoms: C_2  and  C_1 
REMARK       I    between atoms: N_8  and  C_2 
REMARK    2  A    between atoms: C_12  and  C_4 
REMARK    3  A    between atoms: C_9  and  N_8 
ROOT
ATOM      1  C   UNL d   1      53.019  33.547  53.400  0.00  0.00     0.106 A 
ATOM      2  C   UNL d   1      52.351  33.689  52.830  0.00  0.00     0.093 A 
ATOM      3  C   UNL d   1      53.131  33.946  53.994  0.00  0.00     0.093 A 
ATOM      4  C   UNL d   1      52.006  34.752  53.710  0.00  0.00     0.369 A 
ATOM      5  N   UNL d   1      51.862  34.307  53.025  0.00  0.00    -0.191 NA
ATOM      6  N   UNL d   1      52.640  34.571  54.195  0.00  0.00    -0.191 NA
ATOM      7  O   UNL d   1      51.504  35.382  53.903  0.00  0.00    -0.242 OA
ATOM      8  C   UNL d   1      52.245  33.225  52.165  0.00  0.00     0.021 C 
ENDROOT
BRANCH   1   9
ATOM      9  C   UNL d   1      53.537  32.931  53.239  0.00  0.00     0.331 C 
ATOM     10  N   UNL d   1      53.285  32.155  53.280  0.00  0.00    -0.365 NA
ATOM     11  O   UNL d   1      54.316  33.099  53.037  0.00  0.00    -0.251 OA
BRANCH  10  12
ATOM     12  C   UNL d   1      52.988  31.338  53.331  0.00  0.00     0.135 A 
ATOM     13  C   UNL d   1      53.522  30.654  53.176  0.00  0.00     0.030 A 
ATOM     14  C   UNL d   1      54.365  30.806  52.967  0.00  0.00     0.003 C 
ATOM     15  C   UNL d   1      53.228  29.844  53.226  0.00  0.00     0.003 A 
ATOM     16  C   UNL d   1      52.385  29.688  53.435  0.00  0.00     0.000 A 
ATOM     17  C   UNL d   1      51.852  30.364  53.590  0.00  0.00     0.003 A 
ATOM     18  C   UNL d   1      52.148  31.186  53.539  0.00  0.00     0.032 A 
ENDBRANCH  10  12
ENDBRANCH   1   9
BRANCH   3  19
ATOM     19  C   UNL d   1      53.768  33.762  54.477  0.00  0.00     0.018 A 
ATOM     20  C   UNL d   1      54.530  34.007  54.278  0.00  0.00     0.002 A 
ATOM     21  C   UNL d   1      55.157  33.818  54.767  0.00  0.00     0.000 A 
ATOM     22  C   UNL d   1      55.032  33.386  55.453  0.00  0.00     0.000 A 
ATOM     23  C   UNL d   1      54.279  33.144  55.650  0.00  0.00     0.000 A 
ATOM     24  C   UNL d   1      53.645  33.326  55.171  0.00  0.00     0.002 A 
ENDBRANCH   3  19
TORSDOF 3
ENDMDL
MODEL 5
REMARK VINA RESULT:      -8.1      0.920      2.992
REMARK  3 active torsions:
REMARK  status: ('A' for Active; 'I' for Inactive)
REMARK    1  A    between atoms: C_2  and  C_1 
REMARK       I    between atoms: N_8  and  C_2 
REMARK    2  A    between atoms: C_12  and  C_4 
REMARK    3  A    between atoms: C_9  and  N_8 
ROOT
ATOM      1  C   UNL d   1      52.902  31.769  53.171  0.00  0.00     0.106 A 
ATOM      2  C   UNL d   1      53.298  30.981  53.286  0.00  0.00     0.093 A 
ATOM      3  C   UNL d   1      52.183  31.860  53.168  0.00  0.00     0.093 A 
ATOM      4  C   UNL d   1      51.970  30.479  53.382  0.00  0.00     0.369 A 
ATOM      5  N   UNL d   1      52.791  30.355  53.389  0.00  0.00    -0.191 NA
ATOM      6  N   UNL d   1      51.667  31.231  53.272  0.00  0.00    -0.191 NA
ATOM      7  O   UNL d   1      51.459  29.837  53.488  0.00  0.00    -0.242 OA
ATOM      8  C   UNL d   1      54.112  30.903  53.285  0.00  0.00     0.021 C 
ENDROOT
BRANCH   1   9
ATOM      9  C   UNL d   1      53.379  32.428  53.063  0.00  0.00     0.331 C 
ATOM     10  N   UNL d   1      53.809  32.736  53.686  0.00  0.00    -0.365 NA
ATOM     11  O   UNL d   1      53.423  32.778  52.321  0.00  0.00    -0.251 OA
BRANCH  10  12
ATOM     12  C   UNL d   1      54.256  33.043  54.368  0.00  0.00     0.135 A 
ATOM     13  C   UNL d   1      55.007  33.490  54.251  0.00  0.00     0.030 A 
ATOM     14  C   UNL d   1      55.303  33.624  53.431  0.00  0.00     0.003 C 
ATOM     15  C   UNL d   1      55.449  33.794  54.926  0.00  0.00     0.003 A 
ATOM     16  C   UNL d   1      55.156  33.661  55.747  0.00  0.00     0.000 A 
ATOM     17  C   UNL d   1      54.412  33.218  55.868  0.00  0.00     0.003 A 
ATOM     18  C   UNL d   1      53.961  32.909  55.184  0.00  0.00     0.032 A 
ENDBRANCH  10  12
ENDBRANCH   1   9
BRANCH   3  19
ATOM     19  C   UNL d   1      51.882  32.614  53.057  0.00  0.00     0.018 A 
ATOM     20  C   UNL d   1      51.929  32.981  52.319  0.00  0.00     0.002 A 
ATOM     21  C   UNL d   1      51.626  33.733  52.220  0.00  0.00     0.000 A 
ATOM     22  C   UNL d   1      51.276  34.124  52.850  0.00  0.00     0.000 A 
ATOM     23  C   UNL d   1      51.230  33.763  53.579  0.00  0.00     0.000 A 
ATOM     24  C   UNL d   1      51.528  33.013  53.691  0.00  0.00     0.002 A 
ENDBRANCH   3  19
TORSDOF 3
ENDMDL
MODEL 6
REMARK VINA RESULT:      -8.0      1.271      3.418
REMARK  3 active torsions:
REMARK  status: ('A' for Active; 'I' for Inactive)
REMARK    1  A    between atoms: C_2  and  C_1 
REMARK       I    between atoms: N_8  and  C_2 
REMARK    2  A    between atoms: C_12  and  C_4 
REMARK    3  A    between atoms: C_9  and  N_8 
ROOT
ATOM      1  C   UNL d   1      52.475  32.965  53.109  0.00  0.00     0.106 A 
ATOM      2  C   UNL d   1      52.153  33.794  53.071  0.00  0.00     0.093 A 
ATOM      3  C   UNL d   1      52.061  32.377  53.191  0.00  0.00     0.093 A 
ATOM      4  C   UNL d   1      50.887  33.163  53.232  0.00  0.00     0.369 A 
ATOM      5  N   UNL d   1      51.345  33.848  53.137  0.00  0.00    -0.191 NA
ATOM      6  N   UNL d   1      51.245  32.428  53.259  0.00  0.00    -0.191 NA
ATOM      7  O   UNL d   1      50.065  33.227  53.298  0.00  0.00    -0.242 OA
ATOM      8  C   UNL d   1      52.641  34.442  52.977  0.00  0.00     0.021 C 
ENDROOT
BRANCH   1   9
ATOM      9  C   UNL d   1      53.287  32.865  53.045  0.00  0.00     0.331 C 
ATOM     10  N   UNL d   1      53.783  33.096  53.652  0.00  0.00    -0.365 NA
ATOM     11  O   UNL d   1      53.602  32.529  52.364  0.00  0.00    -0.251 OA
BRANCH  10  12
ATOM     12  C   UNL d   1      54.287  33.352  54.315  0.00  0.00     0.135 A 
ATOM     13  C   UNL d   1      55.156  33.456  54.207  0.00  0.00     0.030 A 
ATOM     14  C   UNL d   1      55.512  33.297  53.416  0.00  0.00     0.003 C 
ATOM     15  C   UNL d   1      55.655  33.709  54.863  0.00  0.00     0.003 A 
ATOM     16  C   UNL d   1      55.303  33.869  55.656  0.00  0.00     0.000 A 
ATOM     17  C   UNL d   1      54.441  33.767  55.768  0.00  0.00     0.003 A 
ATOM     18  C   UNL d   1      53.933  33.510  55.103  0.00  0.00     0.032 A 
ENDBRANCH  10  12
ENDBRANCH   1   9
BRANCH   3  19
ATOM     19  C   UNL d   1      52.423  31.641  53.218  0.00  0.00     0.018 A 
ATOM     20  C   UNL d   1      52.672  31.271  52.524  0.00  0.00     0.002 A 
ATOM     21  C   UNL d   1      53.032  30.538  52.562  0.00  0.00     0.000 A 
ATOM     22  C   UNL d   1      53.144  30.170  53.286  0.00  0.00     0.000 A 
ATOM     23  C   UNL d   1      52.898  30.535  53.972  0.00  0.00     0.000 A 
ATOM     24  C   UNL d   1      52.538  31.266  53.947  0.00  0.00     0.002 A 
ENDBRANCH   3  19
TORSDOF 3
ENDMDL
