MODEL 1
REMARK VINA RESULT:      38.5      0.000      0.000
REMARK  6 active torsions:
REMARK  status: ('A' for Active; 'I' for Inactive)
REMARK       I    between atoms: C_6  and  N_1 
REMARK    1  A    between atoms: C_7  and  C_3 
REMARK    2  A    between atoms: C_8  and  C_4 
REMARK    3  A    between atoms: C_11  and  C_6 
REMARK    4  A    between atoms: C_9  and  C_17 
REMARK    5  A    between atoms: C_17  and  C_11 
REMARK    6  A    between atoms: O_26  and  C_19 
ROOT
ATOM      1  N   UNL d   1      45.893 -16.991  43.026  0.00  0.00    -0.195 N 
ATOM      2  N   UNL d   1      45.786 -16.179  43.034  0.00  0.00    -0.163 NA
ATOM      3  C   UNL d   1      45.722 -15.917  43.790  0.00  0.00     0.103 A 
ATOM      4  C   UNL d   1      45.897 -17.240  43.799  0.00  0.00     0.088 A 
ATOM      5  C   UNL d   1      45.794 -16.602  44.272  0.00  0.00     0.040 A 
ATOM      6  C   UNL d   1      45.981 -17.458  42.345  0.00  0.00     0.281 C 
ATOM      7  O   UNL d   1      46.088 -18.296  42.440  0.00  0.00    -0.265 OA
ENDROOT
BRANCH   3   8
ATOM      8  C   UNL d   1      45.613 -15.132  43.943  0.00  0.00     0.019 A 
ATOM      9  C   UNL d   1      46.236 -14.600  43.776  0.00  0.00     0.004 A 
ATOM     10  C   UNL d   1      46.133 -13.780  43.931  0.00  0.00     0.024 A 
ATOM     11  C   UNL d   1      45.424 -13.499  44.245  0.00  0.00     0.094 A 
ATOM     12  C   UNL d   1      44.800 -14.030  44.412  0.00  0.00     0.024 A 
ATOM     13  C   UNL d   1      44.905 -14.851  44.257  0.00  0.00     0.004 A 
BRANCH  11  14
ATOM     14  O   UNL d   1      45.352 -12.689  44.386  0.00  0.00    -0.328 OA
ATOM     15  C   UNL d   1      45.973 -12.247  44.730  0.00  0.00     0.181 C 
ENDBRANCH  11  14
ENDBRANCH   3   8
BRANCH   4  16
ATOM     16  C   UNL d   1      45.989 -18.028  44.096  0.00  0.00     0.018 A 
ATOM     17  C   UNL d   1      45.505 -18.640  43.808  0.00  0.00     0.002 A 
ATOM     18  C   UNL d   1      45.595 -19.406  44.096  0.00  0.00     0.007 A 
ATOM     19  C   UNL d   1      46.162 -19.564  44.667  0.00  0.00     0.035 A 
ATOM     20  C   UNL d   1      46.646 -18.952  44.954  0.00  0.00     0.007 A 
ATOM     21 BR   UNL d   1      46.251 -20.330  44.954  0.00  0.00    -0.049 Br
ATOM     22  C   UNL d   1      46.564 -18.180  44.673  0.00  0.00     0.002 A 
ENDBRANCH   4  16
BRANCH   6  23
ATOM     23  C   UNL d   1      45.969 -17.149  41.588  0.00  0.00     0.069 C 
BRANCH  23  24
ATOM     24  C   UNL d   1      46.521 -17.367  41.030  0.00  0.00     0.075 C 
BRANCH  24  25
ATOM     25  C   UNL d   1      46.346 -17.911  40.446  0.00  0.00     0.211 C 
ATOM     26  O   UNL d   1      46.493 -18.715  40.550  0.00  0.00    -0.644 OA
ATOM     27  O   UNL d   1      46.018 -17.671  39.734  0.00  0.00    -0.644 OA
ENDBRANCH  24  25
ENDBRANCH  23  24
ENDBRANCH   6  23
TORSDOF 6
ENDMDL
