MODEL 1
REMARK VINA RESULT:      -3.6      0.000      0.000
REMARK  8 active torsions:
REMARK  status: ('A' for Active; 'I' for Inactive)
REMARK    1  A    between atoms: N_5  and  S_1 
REMARK    2  A    between atoms: C_8  and  S_1 
REMARK    3  A    between atoms: C_2  and  N_10 
REMARK    4  A    between atoms: C_9  and  N_5 
REMARK    5  A    between atoms: C_13  and  C_9 
REMARK    6  A    between atoms: N_10  and  O_14 
REMARK    7  A    between atoms: C_17  and  C_13 
REMARK    8  A    between atoms: O_14  and  C_17 
ROOT
ATOM      1  C   UNL d   1      32.882  19.618 -22.848  0.00  0.00     0.193 C 
ENDROOT
BRANCH   1   2
ATOM      2  O   UNL d   1      33.122  20.409 -22.836  0.00  0.00    -0.206 OA
BRANCH   2   3
ATOM      3  N   UNL d   1      33.203  20.807 -22.111  0.00  0.00    -0.126 NA
BRANCH   3   4
ATOM      4  C   UNL d   1      33.021  21.611 -22.059  0.00  0.00     0.108 A 
ATOM      5  C   UNL d   1      33.040  22.160 -22.682  0.00  0.00     0.020 A 
ATOM      6  C   UNL d   1      32.819  22.891 -22.375  0.00  0.00     0.002 A 
ATOM      7  C   UNL d   1      33.231  22.075 -23.472  0.00  0.00     0.002 A 
ATOM      8  C   UNL d   1      32.788  23.552 -22.878  0.00  0.00     0.000 A 
ATOM      9  C   UNL d   1      32.662  22.808 -21.576  0.00  0.00     0.002 A 
ATOM     10  C   UNL d   1      32.979  23.469 -23.673  0.00  0.00     0.000 A 
ATOM     11  C   UNL d   1      33.202  22.728 -23.976  0.00  0.00     0.000 A 
ATOM     12  C   UNL d   1      32.786  22.016 -21.374  0.00  0.00     0.020 A 
ATOM     13  C   UNL d   1      32.423  23.342 -21.001  0.00  0.00     0.000 A 
ATOM     14  C   UNL d   1      32.672  21.759 -20.601  0.00  0.00     0.002 A 
ATOM     15  C   UNL d   1      32.430  22.302 -20.021  0.00  0.00     0.000 A 
ATOM     16  C   UNL d   1      32.307  23.093 -20.226  0.00  0.00     0.000 A 
ENDBRANCH   3   4
ENDBRANCH   2   3
ENDBRANCH   1   2
BRANCH   1  17
ATOM     17  C   UNL d   1      32.909  19.191 -23.549  0.00  0.00     0.240 C 
ATOM     18  O   UNL d   1      33.159  19.556 -24.246  0.00  0.00    -0.283 OA
BRANCH  17  19
ATOM     19  C   UNL d   1      32.818  18.514 -24.021  0.00  0.00     0.136 C 
BRANCH  19  20
ATOM     20  N   UNL d   1      32.659  17.787 -23.655  0.00  0.00    -0.225 N 
ATOM     21  C   UNL d   1      32.983  17.421 -22.995  0.00  0.00     0.111 C 
BRANCH  20  22
ATOM     22  S   UNL d   1      32.076  17.289 -23.963  0.00  0.00     0.272 S 
ATOM     23  O   UNL d   1      32.604  17.353 -24.603  0.00  0.00    -0.200 OA
ATOM     24  O   UNL d   1      31.446  17.101 -23.466  0.00  0.00    -0.200 OA
BRANCH  22  25
ATOM     25  C   UNL d   1      31.394  16.829 -24.033  0.00  0.00     0.104 A 
ATOM     26  C   UNL d   1      31.116  16.405 -23.381  0.00  0.00     0.013 A 
ATOM     27  C   UNL d   1      30.438  15.947 -23.449  0.00  0.00     0.007 A 
ATOM     28  C   UNL d   1      30.032  15.911 -24.174  0.00  0.00     0.035 A 
ATOM     29  C   UNL d   1      30.353  16.356 -24.800  0.00  0.00     0.007 A 
ATOM     30 BR   UNL d   1      29.351  15.459 -24.267  0.00  0.00    -0.049 Br
ATOM     31  C   UNL d   1      31.030  16.826 -24.769  0.00  0.00     0.013 A 
ENDBRANCH  22  25
ENDBRANCH  20  22
ENDBRANCH  19  20
ENDBRANCH  17  19
ENDBRANCH   1  17
TORSDOF 8
ENDMDL
MODEL 2
REMARK VINA RESULT:      -1.9      2.862      6.329
REMARK  8 active torsions:
REMARK  status: ('A' for Active; 'I' for Inactive)
REMARK    1  A    between atoms: N_5  and  S_1 
REMARK    2  A    between atoms: C_8  and  S_1 
REMARK    3  A    between atoms: C_2  and  N_10 
REMARK    4  A    between atoms: C_9  and  N_5 
REMARK    5  A    between atoms: C_13  and  C_9 
REMARK    6  A    between atoms: N_10  and  O_14 
REMARK    7  A    between atoms: C_17  and  C_13 
REMARK    8  A    between atoms: O_14  and  C_17 
ROOT
ATOM      1  C   UNL d   1      33.233  20.051 -21.994  0.00  0.00     0.193 C 
ENDROOT
BRANCH   1   2
ATOM      2  O   UNL d   1      32.791  19.743 -22.621  0.00  0.00    -0.206 OA
BRANCH   2   3
ATOM      3  N   UNL d   1      33.132  19.183 -23.132  0.00  0.00    -0.126 NA
BRANCH   3   4
ATOM      4  C   UNL d   1      32.698  18.520 -23.366  0.00  0.00     0.108 A 
ATOM      5  C   UNL d   1      32.763  17.754 -23.052  0.00  0.00     0.020 A 
ATOM      6  C   UNL d   1      32.226  17.275 -23.451  0.00  0.00     0.002 A 
ATOM      7  C   UNL d   1      33.241  17.450 -22.462  0.00  0.00     0.002 A 
ATOM      8  C   UNL d   1      32.170  16.471 -23.251  0.00  0.00     0.000 A 
ATOM      9  C   UNL d   1      31.829  17.726 -24.006  0.00  0.00     0.002 A 
ATOM     10  C   UNL d   1      32.649  16.164 -22.658  0.00  0.00     0.000 A 
ATOM     11  C   UNL d   1      33.189  16.652 -22.258  0.00  0.00     0.000 A 
ATOM     12  C   UNL d   1      32.117  18.499 -23.959  0.00  0.00     0.020 A 
ATOM     13  C   UNL d   1      31.243  17.543 -24.551  0.00  0.00     0.000 A 
ATOM     14  C   UNL d   1      31.821  19.087 -24.453  0.00  0.00     0.002 A 
ATOM     15  C   UNL d   1      31.229  18.899 -25.003  0.00  0.00     0.000 A 
ATOM     16  C   UNL d   1      30.943  18.125 -25.048  0.00  0.00     0.000 A 
ENDBRANCH   3   4
ENDBRANCH   2   3
ENDBRANCH   1   2
BRANCH   1  17
ATOM     17  C   UNL d   1      33.173  20.847 -21.801  0.00  0.00     0.240 C 
ATOM     18  O   UNL d   1      33.084  21.412 -22.398  0.00  0.00    -0.283 OA
BRANCH  17  19
ATOM     19  C   UNL d   1      33.148  21.495 -21.284  0.00  0.00     0.136 C 
BRANCH  19  20
ATOM     20  N   UNL d   1      33.131  21.357 -20.466  0.00  0.00    -0.225 N 
ATOM     21  C   UNL d   1      33.241  20.675 -20.022  0.00  0.00     0.111 C 
BRANCH  20  22
ATOM     22  S   UNL d   1      32.981  21.981 -19.945  0.00  0.00     0.272 S 
ATOM     23  O   UNL d   1      32.883  22.348 -20.686  0.00  0.00    -0.200 OA
ATOM     24  O   UNL d   1      33.030  21.813 -19.140  0.00  0.00    -0.200 OA
BRANCH  22  25
ATOM     25  C   UNL d   1      32.880  22.415 -19.251  0.00  0.00     0.104 A 
ATOM     26  C   UNL d   1      32.446  23.118 -19.266  0.00  0.00     0.013 A 
ATOM     27  C   UNL d   1      32.345  23.551 -18.576  0.00  0.00     0.007 A 
ATOM     28  C   UNL d   1      32.678  23.282 -17.863  0.00  0.00     0.035 A 
ATOM     29  C   UNL d   1      33.106  22.569 -17.902  0.00  0.00     0.007 A 
ATOM     30 BR   UNL d   1      32.590  23.699 -17.159  0.00  0.00    -0.049 Br
ATOM     31  C   UNL d   1      33.228  22.108 -18.574  0.00  0.00     0.013 A 
ENDBRANCH  22  25
ENDBRANCH  20  22
ENDBRANCH  19  20
ENDBRANCH  17  19
ENDBRANCH   1  17
TORSDOF 8
ENDMDL
