MODEL 1
REMARK VINA RESULT:      -4.2      0.000      0.000
REMARK  6 active torsions:
REMARK  status: ('A' for Active; 'I' for Inactive)
REMARK    1  A    between atoms: S_5  and  C_2 
REMARK    2  A    between atoms: C_15  and  S_5 
REMARK    3  A    between atoms: N_11  and  C_8 
REMARK    4  A    between atoms: C_16  and  N_11 
REMARK    5  A    between atoms: C_17  and  N_12 
REMARK    6  A    between atoms: C_24  and  C_17 
ROOT
ATOM      1  C   UNL d   1     -40.117  14.849  18.181  0.00  0.00     0.197 A 
ATOM      2  C   UNL d   1     -40.896  14.754  18.404  0.00  0.00     0.227 A 
ATOM      3  N   UNL d   1     -40.105  15.046  17.378  0.00  0.00    -0.192 N 
ATOM      4  N   UNL d   1     -39.405  14.783  18.600  0.00  0.00    -0.206 NA
ATOM      5  N   UNL d   1     -41.368  14.890  17.750  0.00  0.00    -0.115 NA
ATOM      6  N   UNL d   1     -40.877  15.072  17.108  0.00  0.00    -0.058 NA
ATOM      7  C   UNL d   1     -38.689  14.914  18.218  0.00  0.00     0.166 A 
ATOM      8  C   UNL d   1     -38.677  15.111  17.415  0.00  0.00     0.054 A 
ATOM      9  C   UNL d   1     -39.381  15.177  16.997  0.00  0.00     0.089 A 
ATOM     10  C   UNL d   1     -37.957  15.242  17.034  0.00  0.00     0.005 A 
ATOM     11  C   UNL d   1     -39.369  15.375  16.190  0.00  0.00     0.019 A 
ATOM     12  C   UNL d   1     -37.945  15.440  16.227  0.00  0.00     0.000 A 
ATOM     13  C   UNL d   1     -38.653  15.506  15.808  0.00  0.00     0.002 A 
ENDROOT
BRANCH   7  14
ATOM     14  N   UNL d   1     -37.981  14.845  18.649  0.00  0.00    -0.227 NA
BRANCH  14  15
ATOM     15  C   UNL d   1     -37.974  14.974  19.470  0.00  0.00     0.086 A 
ATOM     16  C   UNL d   1     -37.947  14.330  19.991  0.00  0.00     0.038 A 
ATOM     17  C   UNL d   1     -37.940  14.462  20.807  0.00  0.00     0.082 A 
ATOM     18  N   UNL d   1     -37.960  15.237  21.100  0.00  0.00    -0.302 N 
ATOM     19  C   UNL d   1     -37.986  15.873  20.580  0.00  0.00     0.082 A 
ATOM     20  C   UNL d   1     -37.993  15.741  19.763  0.00  0.00     0.038 A 
BRANCH  18  21
ATOM     21  C   UNL d   1     -37.953  15.372  21.911  0.00  0.00     0.080 C 
BRANCH  21  22
ATOM     22  C   UNL d   1     -38.289  14.817  22.423  0.00  0.00     0.018 A 
ATOM     23  C   UNL d   1     -38.782  15.069  23.032  0.00  0.00     0.002 A 
ATOM     24  C   UNL d   1     -39.120  14.523  23.545  0.00  0.00     0.000 A 
ATOM     25  C   UNL d   1     -38.963  13.707  23.446  0.00  0.00     0.000 A 
ATOM     26  C   UNL d   1     -38.470  13.464  22.834  0.00  0.00     0.000 A 
ATOM     27  C   UNL d   1     -38.131  14.013  22.320  0.00  0.00     0.002 A 
ENDBRANCH  21  22
ENDBRANCH  18  21
ENDBRANCH  14  15
ENDBRANCH   7  14
BRANCH   2  28
ATOM     28  S   UNL d   1     -41.165  14.555  19.160  0.00  0.00     0.231 S 
ATOM     29  O   UNL d   1     -41.089  13.752  18.975  0.00  0.00    -0.215 OA
ATOM     30  O   UNL d   1     -41.244  15.353  19.351  0.00  0.00    -0.215 OA
BRANCH  28  31
ATOM     31  C   UNL d   1     -41.433  14.348  19.911  0.00  0.00     0.090 A 
ATOM     32  C   UNL d   1     -41.553  13.561  20.098  0.00  0.00     0.011 A 
ATOM     33  C   UNL d   1     -41.821  13.350  20.850  0.00  0.00     0.001 A 
ATOM     34  C   UNL d   1     -41.968  13.933  21.414  0.00  0.00     0.000 A 
ATOM     35  C   UNL d   1     -41.846  14.718  21.223  0.00  0.00     0.001 A 
ATOM     36  C   UNL d   1     -41.580  14.926  20.476  0.00  0.00     0.011 A 
ENDBRANCH  28  31
ENDBRANCH   2  28
TORSDOF 6
ENDMDL
MODEL 2
REMARK VINA RESULT:      -2.5      7.036      9.530
REMARK  6 active torsions:
REMARK  status: ('A' for Active; 'I' for Inactive)
REMARK    1  A    between atoms: S_5  and  C_2 
REMARK    2  A    between atoms: C_15  and  S_5 
REMARK    3  A    between atoms: N_11  and  C_8 
REMARK    4  A    between atoms: C_16  and  N_11 
REMARK    5  A    between atoms: C_17  and  N_12 
REMARK    6  A    between atoms: C_24  and  C_17 
ROOT
ATOM      1  C   UNL d   1     -46.825  11.529  22.871  0.00  0.00     0.197 A 
ATOM      2  C   UNL d   1     -47.471  11.079  23.085  0.00  0.00     0.227 A 
ATOM      3  N   UNL d   1     -46.144  11.092  23.044  0.00  0.00    -0.192 N 
ATOM      4  N   UNL d   1     -46.756  12.285  22.539  0.00  0.00    -0.206 NA
ATOM      5  N   UNL d   1     -47.201  10.369  23.388  0.00  0.00    -0.115 NA
ATOM      6  N   UNL d   1     -46.373  10.374  23.364  0.00  0.00    -0.058 NA
ATOM      7  C   UNL d   1     -46.013  12.599  22.381  0.00  0.00     0.166 A 
ATOM      8  C   UNL d   1     -45.333  12.163  22.554  0.00  0.00     0.054 A 
ATOM      9  C   UNL d   1     -45.397  11.413  22.884  0.00  0.00     0.089 A 
ATOM     10  C   UNL d   1     -44.588  12.480  22.396  0.00  0.00     0.005 A 
ATOM     11  C   UNL d   1     -44.713  10.974  23.058  0.00  0.00     0.019 A 
ATOM     12  C   UNL d   1     -43.904  12.041  22.569  0.00  0.00     0.000 A 
ATOM     13  C   UNL d   1     -43.971  11.289  22.901  0.00  0.00     0.002 A 
ENDROOT
BRANCH   7  14
ATOM     14  N   UNL d   1     -45.956  13.359  22.048  0.00  0.00    -0.227 NA
BRANCH  14  15
ATOM     15  C   UNL d   1     -46.508  13.947  22.246  0.00  0.00     0.086 A 
ATOM     16  C   UNL d   1     -46.465  14.327  22.981  0.00  0.00     0.038 A 
ATOM     17  C   UNL d   1     -47.017  14.912  23.175  0.00  0.00     0.082 A 
ATOM     18  N   UNL d   1     -47.609  15.116  22.632  0.00  0.00    -0.302 N 
ATOM     19  C   UNL d   1     -47.648  14.737  21.904  0.00  0.00     0.082 A 
ATOM     20  C   UNL d   1     -47.097  14.152  21.710  0.00  0.00     0.038 A 
BRANCH  18  21
ATOM     21  C   UNL d   1     -48.159  15.698  22.821  0.00  0.00     0.080 C 
BRANCH  21  22
ATOM     22  C   UNL d   1     -48.966  15.522  22.801  0.00  0.00     0.018 A 
ATOM     23  C   UNL d   1     -49.282  15.127  22.152  0.00  0.00     0.002 A 
ATOM     24  C   UNL d   1     -50.084  14.948  22.124  0.00  0.00     0.000 A 
ATOM     25  C   UNL d   1     -50.581  15.170  22.760  0.00  0.00     0.000 A 
ATOM     26  C   UNL d   1     -50.257  15.564  23.405  0.00  0.00     0.000 A 
ATOM     27  C   UNL d   1     -49.452  15.743  23.431  0.00  0.00     0.002 A 
ENDBRANCH  21  22
ENDBRANCH  18  21
ENDBRANCH  14  15
ENDBRANCH   7  14
BRANCH   2  28
ATOM     28  S   UNL d   1     -48.264  11.301  23.009  0.00  0.00     0.231 S 
ATOM     29  O   UNL d   1     -48.325  10.845  22.321  0.00  0.00    -0.215 OA
ATOM     30  O   UNL d   1     -48.211  11.757  23.694  0.00  0.00    -0.215 OA
BRANCH  28  31
ATOM     31  C   UNL d   1     -49.055  11.517  22.926  0.00  0.00     0.090 A 
ATOM     32  C   UNL d   1     -49.482  11.760  23.580  0.00  0.00     0.011 A 
ATOM     33  C   UNL d   1     -50.274  11.977  23.500  0.00  0.00     0.001 A 
ATOM     34  C   UNL d   1     -50.637  11.949  22.761  0.00  0.00     0.000 A 
ATOM     35  C   UNL d   1     -50.207  11.704  22.110  0.00  0.00     0.001 A 
ATOM     36  C   UNL d   1     -49.420  11.489  22.191  0.00  0.00     0.011 A 
ENDBRANCH  28  31
ENDBRANCH   2  28
TORSDOF 6
ENDMDL
MODEL 3
REMARK VINA RESULT:      -1.5      1.855      4.155
REMARK  6 active torsions:
REMARK  status: ('A' for Active; 'I' for Inactive)
REMARK    1  A    between atoms: S_5  and  C_2 
REMARK    2  A    between atoms: C_15  and  S_5 
REMARK    3  A    between atoms: N_11  and  C_8 
REMARK    4  A    between atoms: C_16  and  N_11 
REMARK    5  A    between atoms: C_17  and  N_12 
REMARK    6  A    between atoms: C_24  and  C_17 
ROOT
ATOM      1  C   UNL d   1     -39.223  14.281  19.894  0.00  0.00     0.197 A 
ATOM      2  C   UNL d   1     -38.590  14.080  20.370  0.00  0.00     0.227 A 
ATOM      3  N   UNL d   1     -38.961  14.277  19.110  0.00  0.00    -0.192 N 
ATOM      4  N   UNL d   1     -40.012  14.469  20.064  0.00  0.00    -0.206 NA
ATOM      5  N   UNL d   1     -37.940  13.952  19.891  0.00  0.00    -0.115 NA
ATOM      6  N   UNL d   1     -38.167  14.075  19.104  0.00  0.00    -0.058 NA
ATOM      7  C   UNL d   1     -40.532  14.651  19.455  0.00  0.00     0.166 A 
ATOM      8  C   UNL d   1     -40.270  14.648  18.670  0.00  0.00     0.054 A 
ATOM      9  C   UNL d   1     -39.488  14.462  18.498  0.00  0.00     0.089 A 
ATOM     10  C   UNL d   1     -40.794  14.831  18.060  0.00  0.00     0.005 A 
ATOM     11  C   UNL d   1     -39.225  14.458  17.710  0.00  0.00     0.019 A 
ATOM     12  C   UNL d   1     -40.531  14.828  17.272  0.00  0.00     0.000 A 
ATOM     13  C   UNL d   1     -39.745  14.641  17.101  0.00  0.00     0.002 A 
ENDROOT
BRANCH   7  14
ATOM     14  N   UNL d   1     -41.321  14.838  19.637  0.00  0.00    -0.227 NA
BRANCH  14  15
ATOM     15  C   UNL d   1     -41.753  14.368  20.169  0.00  0.00     0.086 A 
ATOM     16  C   UNL d   1     -42.013  13.615  19.941  0.00  0.00     0.038 A 
ATOM     17  C   UNL d   1     -42.442  13.150  20.473  0.00  0.00     0.082 A 
ATOM     18  N   UNL d   1     -42.609  13.439  21.232  0.00  0.00    -0.302 N 
ATOM     19  C   UNL d   1     -42.349  14.186  21.454  0.00  0.00     0.082 A 
ATOM     20  C   UNL d   1     -41.920  14.651  20.922  0.00  0.00     0.038 A 
BRANCH  18  21
ATOM     21  C   UNL d   1     -43.036  12.979  21.764  0.00  0.00     0.080 C 
BRANCH  21  22
ATOM     22  C   UNL d   1     -43.860  13.032  21.784  0.00  0.00     0.018 A 
ATOM     23  C   UNL d   1     -44.221  13.640  22.205  0.00  0.00     0.002 A 
ATOM     24  C   UNL d   1     -45.040  13.700  22.229  0.00  0.00     0.000 A 
ATOM     25  C   UNL d   1     -45.510  13.138  21.824  0.00  0.00     0.000 A 
ATOM     26  C   UNL d   1     -45.141  12.533  21.406  0.00  0.00     0.000 A 
ATOM     27  C   UNL d   1     -44.318  12.475  21.382  0.00  0.00     0.002 A 
ENDBRANCH  21  22
ENDBRANCH  18  21
ENDBRANCH  14  15
ENDBRANCH   7  14
BRANCH   2  28
ATOM     28  S   UNL d   1     -38.603  14.017  21.194  0.00  0.00     0.231 S 
ATOM     29  O   UNL d   1     -38.503  14.835  21.258  0.00  0.00    -0.215 OA
ATOM     30  O   UNL d   1     -38.703  13.200  21.138  0.00  0.00    -0.215 OA
BRANCH  28  31
ATOM     31  C   UNL d   1     -38.615  13.962  22.016  0.00  0.00     0.090 A 
ATOM     32  C   UNL d   1     -38.414  14.611  22.470  0.00  0.00     0.011 A 
ATOM     33  C   UNL d   1     -38.424  14.560  23.294  0.00  0.00     0.001 A 
ATOM     34  C   UNL d   1     -38.637  13.854  23.661  0.00  0.00     0.000 A 
ATOM     35  C   UNL d   1     -38.838  13.207  23.202  0.00  0.00     0.001 A 
ATOM     36  C   UNL d   1     -38.827  13.260  22.384  0.00  0.00     0.011 A 
ENDBRANCH  28  31
ENDBRANCH   2  28
TORSDOF 6
ENDMDL
