MODEL 1
REMARK VINA RESULT:      -0.7      0.000      0.000
REMARK  5 active torsions:
REMARK  status: ('A' for Active; 'I' for Inactive)
REMARK    1  A    between atoms: C_5  and  C_1 
REMARK    2  A    between atoms: C_4  and  C_9 
REMARK    3  A    between atoms: N_7  and  C_5 
REMARK    4  A    between atoms: C_10  and  C_5 
REMARK    5  A    between atoms: C_12  and  N_7 
ROOT
ATOM      1  C   UNL d   1     -41.237-122.313 -51.622  0.00  0.00     0.086 C 
ENDROOT
BRANCH   1   2
ATOM      2  C   UNL d   1     -41.348-122.668 -52.358  0.00  0.00     0.058 A 
ATOM      3  C   UNL d   1     -41.681-122.234 -52.978  0.00  0.00     0.214 A 
ATOM      4  C   UNL d   1     -41.789-122.596 -53.716  0.00  0.00     0.120 A 
ATOM      5  O   UNL d   1     -41.904-121.460 -52.877  0.00  0.00    -0.285 OA
ATOM      6  N   UNL d   1     -42.123-122.170 -54.344  0.00  0.00    -0.242 NA
ATOM      7  C   UNL d   1     -41.566-123.381 -53.829  0.00  0.00     0.021 A 
ATOM      8  C   UNL d   1     -42.232-122.525 -55.078  0.00  0.00     0.082 A 
ATOM      9  C   UNL d   1     -42.564-122.098 -55.701  0.00  0.00     0.021 C 
ATOM     10  C   UNL d   1     -42.007-123.318 -55.192  0.00  0.00     0.019 A 
ATOM     11  C   UNL d   1     -41.672-123.745 -54.560  0.00  0.00     0.003 A 
ATOM     12  C   UNL d   1     -41.232-123.816 -53.207  0.00  0.00     0.002 A 
ATOM     13  C   UNL d   1     -41.123-123.460 -52.473  0.00  0.00     0.005 A 
ENDBRANCH   1   2
BRANCH   1  14
ATOM     14  N   UNL d   1     -41.142-122.858 -51.009  0.00  0.00    -0.245 NA
BRANCH  14  15
ATOM     15  C   UNL d   1     -41.761-123.047 -50.523  0.00  0.00     0.081 A 
ATOM     16  C   UNL d   1     -41.637-123.156 -49.724  0.00  0.00     0.023 A 
ATOM     17  C   UNL d   1     -42.270-123.349 -49.223  0.00  0.00     0.073 A 
ATOM     18  C   UNL d   1     -43.034-123.432 -49.541  0.00  0.00     0.004 A 
ATOM     19  C   UNL d   1     -43.153-123.321 -50.347  0.00  0.00     0.002 A 
ATOM     20  C   UNL d   1     -42.515-123.129 -50.833  0.00  0.00     0.019 A 
BRANCH  17  21
ATOM     21  C   UNL d   1     -42.136-123.457 -48.419  0.00  0.00     0.419 C 
ATOM     22  F   UNL d   1     -42.003-123.554 -47.686  0.00  0.00    -0.166 F 
ATOM     23  F   UNL d   1     -41.389-123.462 -48.000  0.00  0.00    -0.166 F 
ATOM     24  F   UNL d   1     -42.695-123.592 -47.786  0.00  0.00    -0.166 F 
ENDBRANCH  17  21
ENDBRANCH  14  15
ENDBRANCH   1  14
BRANCH   1  25
ATOM     25  C   UNL d   1     -41.200-121.536 -51.354  0.00  0.00     0.037 A 
ATOM     26  C   UNL d   1     -41.160-120.912 -51.902  0.00  0.00     0.100 A 
ATOM     27  N   UNL d   1     -41.123-120.135 -51.622  0.00  0.00    -0.242 NA
ATOM     28  C   UNL d   1     -41.125-119.981 -50.826  0.00  0.00     0.099 A 
ATOM     29  C   UNL d   1     -41.163-120.596 -50.285  0.00  0.00     0.021 A 
ATOM     30  C   UNL d   1     -41.201-121.373 -50.544  0.00  0.00     0.005 A 
ENDBRANCH   1  25
TORSDOF 5
ENDMDL
