MODEL 1
REMARK VINA RESULT:      -5.3      0.000      0.000
REMARK  7 active torsions:
REMARK  status: ('A' for Active; 'I' for Inactive)
REMARK    1  A    between atoms: C_6  and  C_2 
REMARK    2  A    between atoms: S_7  and  C_4 
REMARK    3  A    between atoms: C_12  and  S_7 
REMARK    4  A    between atoms: C_8  and  C_12 
REMARK    5  A    between atoms: O_16  and  C_8 
REMARK    6  A    between atoms: O_17  and  C_13 
REMARK    7  A    between atoms: C_18  and  O_16 
ROOT
ATOM      1  N   UNL d   1     -41.568-123.125 -51.294  0.00  0.00    -0.212 NA
ATOM      2  C   UNL d   1     -41.615-122.695 -50.599  0.00  0.00     0.171 A 
ATOM      3  N   UNL d   1     -41.340-121.928 -50.748  0.00  0.00    -0.188 NA
ATOM      4  C   UNL d   1     -41.264-122.636 -51.886  0.00  0.00     0.160 A 
ATOM      5  S   UNL d   1     -41.123-121.892 -51.544  0.00  0.00     0.041 SA
ENDROOT
BRANCH   2   6
ATOM      6  C   UNL d   1     -41.890-122.969 -49.868  0.00  0.00     0.037 A 
ATOM      7  C   UNL d   1     -41.364-123.284 -49.302  0.00  0.00     0.005 A 
ATOM      8  C   UNL d   1     -41.639-123.553 -48.583  0.00  0.00     0.024 A 
ATOM      9  C   UNL d   1     -42.443-123.513 -48.414  0.00  0.00     0.094 A 
ATOM     10  C   UNL d   1     -42.972-123.200 -48.972  0.00  0.00     0.024 A 
ATOM     11  C   UNL d   1     -42.685-122.933 -49.692  0.00  0.00     0.005 A 
BRANCH   9  12
ATOM     12  O   UNL d   1     -42.729-123.782 -47.691  0.00  0.00    -0.328 OA
ATOM     13  C   UNL d   1     -42.306-123.637 -47.004  0.00  0.00     0.181 C 
ENDBRANCH   9  12
ENDBRANCH   2   6
BRANCH   4  14
ATOM     14  S   UNL d   1     -41.122-122.840 -52.675  0.00  0.00    -0.054 SA
BRANCH  14  15
ATOM     15  C   UNL d   1     -41.650-122.613 -53.259  0.00  0.00     0.106 C 
BRANCH  15  16
ATOM     16  C   UNL d   1     -41.475-122.738 -54.056  0.00  0.00     0.307 C 
ATOM     17  O   UNL d   1     -41.124-123.452 -54.292  0.00  0.00    -0.258 OA
BRANCH  16  18
ATOM     18  O   UNL d   1     -41.647-122.158 -54.619  0.00  0.00    -0.271 OA
BRANCH  18  19
ATOM     19  C   UNL d   1     -42.160-122.326 -55.252  0.00  0.00     0.126 C 
ATOM     20  C   UNL d   1     -42.249-121.785 -55.867  0.00  0.00     0.029 C 
ENDBRANCH  18  19
ENDBRANCH  16  18
ENDBRANCH  15  16
ENDBRANCH  14  15
ENDBRANCH   4  14
TORSDOF 7
ENDMDL
MODEL 2
REMARK VINA RESULT:      -4.8      0.925      5.318
REMARK  7 active torsions:
REMARK  status: ('A' for Active; 'I' for Inactive)
REMARK    1  A    between atoms: C_6  and  C_2 
REMARK    2  A    between atoms: S_7  and  C_4 
REMARK    3  A    between atoms: C_12  and  S_7 
REMARK    4  A    between atoms: C_8  and  C_12 
REMARK    5  A    between atoms: O_16  and  C_8 
REMARK    6  A    between atoms: O_17  and  C_13 
REMARK    7  A    between atoms: C_18  and  O_16 
ROOT
ATOM      1  N   UNL d   1     -41.709-122.926 -51.878  0.00  0.00    -0.212 NA
ATOM      2  C   UNL d   1     -41.481-122.347 -52.410  0.00  0.00     0.171 A 
ATOM      3  N   UNL d   1     -41.126-121.731 -51.987  0.00  0.00    -0.188 NA
ATOM      4  C   UNL d   1     -41.501-122.681 -51.117  0.00  0.00     0.160 A 
ATOM      5  S   UNL d   1     -41.138-121.937 -51.188  0.00  0.00     0.041 SA
ENDROOT
BRANCH   2   6
ATOM      6  C   UNL d   1     -41.582-122.366 -53.231  0.00  0.00     0.037 A 
ATOM      7  C   UNL d   1     -41.123-122.870 -53.711  0.00  0.00     0.005 A 
ATOM      8  C   UNL d   1     -41.226-122.885 -54.519  0.00  0.00     0.024 A 
ATOM      9  C   UNL d   1     -41.790-122.397 -54.866  0.00  0.00     0.094 A 
ATOM     10  C   UNL d   1     -42.252-121.892 -54.395  0.00  0.00     0.024 A 
ATOM     11  C   UNL d   1     -42.139-121.885 -53.584  0.00  0.00     0.005 A 
BRANCH   9  12
ATOM     12  O   UNL d   1     -41.902-122.405 -55.682  0.00  0.00    -0.328 OA
ATOM     13  C   UNL d   1     -42.277-121.775 -56.048  0.00  0.00     0.181 C 
ENDBRANCH   9  12
ENDBRANCH   2   6
BRANCH   4  14
ATOM     14  S   UNL d   1     -41.627-123.093 -50.411  0.00  0.00    -0.054 SA
BRANCH  14  15
ATOM     15  C   UNL d   1     -42.051-122.746 -49.803  0.00  0.00     0.106 C 
BRANCH  15  16
ATOM     16  C   UNL d   1     -42.282-123.188 -49.145  0.00  0.00     0.307 C 
ATOM     17  O   UNL d   1     -42.929-123.703 -49.204  0.00  0.00    -0.258 OA
BRANCH  16  18
ATOM     18  O   UNL d   1     -41.874-123.119 -48.429  0.00  0.00    -0.271 OA
BRANCH  18  19
ATOM     19  C   UNL d   1     -42.284-123.153 -47.707  0.00  0.00     0.126 C 
ATOM     20  C   UNL d   1     -41.887-123.014 -46.998  0.00  0.00     0.029 C 
ENDBRANCH  18  19
ENDBRANCH  16  18
ENDBRANCH  15  16
ENDBRANCH  14  15
ENDBRANCH   4  14
TORSDOF 7
ENDMDL
