MODEL 1
REMARK VINA RESULT:      -9.2      0.000      0.000
REMARK  2 active torsions:
REMARK  status: ('A' for Active; 'I' for Inactive)
REMARK    1  A    between atoms: C_2  and  N_1 
REMARK    2  A    between atoms: N_8  and  C_3 
REMARK       I    between atoms: C_12  and  N_8 
ROOT
ATOM      1  N   UNL d   1      52.987  33.053  53.704  0.00  0.00    -0.189 N 
ATOM      2  C   UNL d   1      53.296  32.290  53.624  0.00  0.00     0.171 A 
ATOM      3  N   UNL d   1      53.439  33.462  54.265  0.00  0.00    -0.162 NA
ATOM      4  C   UNL d   1      53.942  32.229  54.138  0.00  0.00     0.060 A 
ATOM      5  C   UNL d   1      54.030  32.947  54.531  0.00  0.00     0.105 A 
ATOM      6  C   UNL d   1      54.610  33.122  55.095  0.00  0.00     0.023 C 
ENDROOT
BRANCH   1   7
ATOM      7  C   UNL d   1      52.352  33.383  53.318  0.00  0.00     0.197 A 
ATOM      8  N   UNL d   1      51.624  33.442  53.702  0.00  0.00    -0.221 NA
ATOM      9  C   UNL d   1      51.087  33.801  53.170  0.00  0.00     0.090 A 
ATOM     10  C   UNL d   1      50.303  34.002  53.225  0.00  0.00     0.020 A 
ATOM     11  C   UNL d   1      51.510  33.949  52.474  0.00  0.00     0.050 A 
ATOM     12  C   UNL d   1      49.911  34.359  52.591  0.00  0.00     0.002 A 
ATOM     13  C   UNL d   1      50.330  34.505  51.907  0.00  0.00     0.001 A 
ATOM     14  C   UNL d   1      51.127  34.303  51.841  0.00  0.00     0.008 A 
ATOM     15  S   UNL d   1      52.282  33.690  52.576  0.00  0.00    -0.047 SA
ENDBRANCH   1   7
BRANCH   2  16
ATOM     16  N   UNL d   1      53.015  31.693  53.123  0.00  0.00    -0.189 NA
ATOM     17  C   UNL d   1      53.230  30.925  53.270  0.00  0.00     0.281 C 
ATOM     18  O   UNL d   1      52.951  30.326  52.772  0.00  0.00    -0.265 OA
ATOM     19  C   UNL d   1      53.715  30.723  53.898  0.00  0.00     0.068 C 
ENDBRANCH   2  16
TORSDOF 2
ENDMDL
MODEL 2
REMARK VINA RESULT:      -8.9      1.289      2.017
REMARK  2 active torsions:
REMARK  status: ('A' for Active; 'I' for Inactive)
REMARK    1  A    between atoms: C_2  and  N_1 
REMARK    2  A    between atoms: N_8  and  C_3 
REMARK       I    between atoms: C_12  and  N_8 
ROOT
ATOM      1  N   UNL d   1      52.802  32.646  53.489  0.00  0.00    -0.189 N 
ATOM      2  C   UNL d   1      53.403  32.893  54.002  0.00  0.00     0.171 A 
ATOM      3  N   UNL d   1      52.941  31.856  53.282  0.00  0.00    -0.162 NA
ATOM      4  C   UNL d   1      53.914  32.251  54.110  0.00  0.00     0.060 A 
ATOM      5  C   UNL d   1      53.633  31.616  53.670  0.00  0.00     0.105 A 
ATOM      6  C   UNL d   1      53.980  30.866  53.623  0.00  0.00     0.023 C 
ENDROOT
BRANCH   1   7
ATOM      7  C   UNL d   1      52.168  33.073  53.213  0.00  0.00     0.197 A 
ATOM      8  N   UNL d   1      52.186  33.387  52.450  0.00  0.00    -0.221 NA
ATOM      9  C   UNL d   1      51.464  33.792  52.328  0.00  0.00     0.090 A 
ATOM     10  C   UNL d   1      51.160  34.207  51.700  0.00  0.00     0.020 A 
ATOM     11  C   UNL d   1      51.027  33.710  53.026  0.00  0.00     0.050 A 
ATOM     12  C   UNL d   1      50.411  34.554  51.743  0.00  0.00     0.002 A 
ATOM     13  C   UNL d   1      49.983  34.472  52.431  0.00  0.00     0.001 A 
ATOM     14  C   UNL d   1      50.283  34.052  53.076  0.00  0.00     0.008 A 
ATOM     15  S   UNL d   1      51.467  33.268  53.560  0.00  0.00    -0.047 SA
ENDBRANCH   1   7
BRANCH   2  16
ATOM     16  N   UNL d   1      53.482  33.642  54.346  0.00  0.00    -0.189 NA
ATOM     17  C   UNL d   1      54.137  33.798  54.798  0.00  0.00     0.281 C 
ATOM     18  O   UNL d   1      54.219  34.545  55.144  0.00  0.00    -0.265 OA
ATOM     19  C   UNL d   1      54.720  33.237  54.925  0.00  0.00     0.068 C 
ENDBRANCH   2  16
TORSDOF 2
ENDMDL
MODEL 3
REMARK VINA RESULT:      -8.9      1.887      3.392
REMARK  2 active torsions:
REMARK  status: ('A' for Active; 'I' for Inactive)
REMARK    1  A    between atoms: C_2  and  N_1 
REMARK    2  A    between atoms: N_8  and  C_3 
REMARK       I    between atoms: C_12  and  N_8 
ROOT
ATOM      1  N   UNL d   1      53.893  32.801  54.274  0.00  0.00    -0.189 N 
ATOM      2  C   UNL d   1      53.506  33.532  54.243  0.00  0.00     0.171 A 
ATOM      3  N   UNL d   1      54.607  32.899  54.682  0.00  0.00    -0.162 NA
ATOM      4  C   UNL d   1      53.986  34.082  54.635  0.00  0.00     0.060 A 
ATOM      5  C   UNL d   1      54.660  33.695  54.904  0.00  0.00     0.105 A 
ATOM      6  C   UNL d   1      55.284  34.042  55.324  0.00  0.00     0.023 C 
ENDROOT
BRANCH   1   7
ATOM      7  C   UNL d   1      53.649  32.088  53.969  0.00  0.00     0.197 A 
ATOM      8  N   UNL d   1      53.573  31.434  54.467  0.00  0.00    -0.221 NA
ATOM      9  C   UNL d   1      53.316  30.790  53.998  0.00  0.00     0.090 A 
ATOM     10  C   UNL d   1      53.146  30.015  54.166  0.00  0.00     0.020 A 
ATOM     11  C   UNL d   1      53.242  31.077  53.225  0.00  0.00     0.050 A 
ATOM     12  C   UNL d   1      52.896  29.497  53.571  0.00  0.00     0.002 A 
ATOM     13  C   UNL d   1      52.824  29.782  52.812  0.00  0.00     0.001 A 
ATOM     14  C   UNL d   1      52.995  30.569  52.630  0.00  0.00     0.008 A 
ATOM     15  S   UNL d   1      53.448  31.872  53.219  0.00  0.00    -0.047 SA
ENDBRANCH   1   7
BRANCH   2  16
ATOM     16  N   UNL d   1      52.775  33.690  53.888  0.00  0.00    -0.189 NA
ATOM     17  C   UNL d   1      52.527  34.460  53.828  0.00  0.00     0.281 C 
ATOM     18  O   UNL d   1      51.797  34.621  53.473  0.00  0.00    -0.265 OA
ATOM     19  C   UNL d   1      52.978  35.084  54.106  0.00  0.00     0.068 C 
ENDBRANCH   2  16
TORSDOF 2
ENDMDL
MODEL 4
REMARK VINA RESULT:      -8.7      1.619      3.706
REMARK  2 active torsions:
REMARK  status: ('A' for Active; 'I' for Inactive)
REMARK    1  A    between atoms: C_2  and  N_1 
REMARK    2  A    between atoms: N_8  and  C_3 
REMARK       I    between atoms: C_12  and  N_8 
ROOT
ATOM      1  N   UNL d   1      52.374  33.068  52.999  0.00  0.00    -0.189 N 
ATOM      2  C   UNL d   1      52.495  33.746  53.458  0.00  0.00     0.171 A 
ATOM      3  N   UNL d   1      51.889  33.269  52.358  0.00  0.00    -0.162 NA
ATOM      4  C   UNL d   1      52.084  34.366  53.097  0.00  0.00     0.060 A 
ATOM      5  C   UNL d   1      51.712  34.075  52.423  0.00  0.00     0.105 A 
ATOM      6  C   UNL d   1      51.242  34.513  51.900  0.00  0.00     0.023 C 
ENDROOT
BRANCH   1   7
ATOM      7  C   UNL d   1      52.661  32.318  53.122  0.00  0.00     0.197 A 
ATOM      8  N   UNL d   1      52.141  31.678  53.149  0.00  0.00    -0.221 NA
ATOM      9  C   UNL d   1      52.596  30.989  53.281  0.00  0.00     0.090 A 
ATOM     10  C   UNL d   1      52.404  30.205  53.359  0.00  0.00     0.020 A 
ATOM     11  C   UNL d   1      53.385  31.234  53.330  0.00  0.00     0.050 A 
ATOM     12  C   UNL d   1      52.990  29.635  53.490  0.00  0.00     0.002 A 
ATOM     13  C   UNL d   1      53.766  29.879  53.537  0.00  0.00     0.001 A 
ATOM     14  C   UNL d   1      53.971  30.675  53.458  0.00  0.00     0.008 A 
ATOM     15  S   UNL d   1      53.414  32.049  53.231  0.00  0.00    -0.047 SA
ENDBRANCH   1   7
BRANCH   2  16
ATOM     16  N   UNL d   1      52.945  33.799  54.151  0.00  0.00    -0.189 NA
ATOM     17  C   UNL d   1      53.100  34.532  54.462  0.00  0.00     0.281 C 
ATOM     18  O   UNL d   1      53.549  34.589  55.155  0.00  0.00    -0.265 OA
ATOM     19  C   UNL d   1      52.824  35.218  54.112  0.00  0.00     0.068 C 
ENDBRANCH   2  16
TORSDOF 2
ENDMDL
MODEL 5
REMARK VINA RESULT:      -8.3      1.564      3.598
REMARK  2 active torsions:
REMARK  status: ('A' for Active; 'I' for Inactive)
REMARK    1  A    between atoms: C_2  and  N_1 
REMARK    2  A    between atoms: N_8  and  C_3 
REMARK       I    between atoms: C_12  and  N_8 
ROOT
ATOM      1  N   UNL d   1      53.318  31.880  53.525  0.00  0.00    -0.189 N 
ATOM      2  C   UNL d   1      52.650  32.078  53.078  0.00  0.00     0.171 A 
ATOM      3  N   UNL d   1      53.396  31.055  53.528  0.00  0.00    -0.162 NA
ATOM      4  C   UNL d   1      52.316  31.371  52.805  0.00  0.00     0.060 A 
ATOM      5  C   UNL d   1      52.773  30.744  53.081  0.00  0.00     0.105 A 
ATOM      6  C   UNL d   1      52.633  29.942  52.935  0.00  0.00     0.023 C 
ENDROOT
BRANCH   1   7
ATOM      7  C   UNL d   1      53.833  32.378  53.909  0.00  0.00     0.197 A 
ATOM      8  N   UNL d   1      53.758  32.496  54.723  0.00  0.00    -0.221 NA
ATOM      9  C   UNL d   1      54.360  33.030  54.955  0.00  0.00     0.090 A 
ATOM     10  C   UNL d   1      54.568  33.354  55.669  0.00  0.00     0.020 A 
ATOM     11  C   UNL d   1      54.784  33.220  54.269  0.00  0.00     0.050 A 
ATOM     12  C   UNL d   1      55.205  33.878  55.727  0.00  0.00     0.002 A 
ATOM     13  C   UNL d   1      55.620  34.063  55.052  0.00  0.00     0.001 A 
ATOM     14  C   UNL d   1      55.416  33.739  54.320  0.00  0.00     0.008 A 
ATOM     15  S   UNL d   1      54.453  32.815  53.636  0.00  0.00    -0.047 SA
ENDBRANCH   1   7
BRANCH   2  16
ATOM     16  N   UNL d   1      52.364  32.841  52.928  0.00  0.00    -0.189 NA
ATOM     17  C   UNL d   1      51.563  32.964  52.921  0.00  0.00     0.281 C 
ATOM     18  O   UNL d   1      51.273  33.725  52.771  0.00  0.00    -0.265 OA
ATOM     19  C   UNL d   1      51.029  32.358  53.057  0.00  0.00     0.068 C 
ENDBRANCH   2  16
TORSDOF 2
ENDMDL
MODEL 6
REMARK VINA RESULT:      -6.9      1.365      3.446
REMARK  2 active torsions:
REMARK  status: ('A' for Active; 'I' for Inactive)
REMARK    1  A    between atoms: C_2  and  N_1 
REMARK    2  A    between atoms: N_8  and  C_3 
REMARK       I    between atoms: C_12  and  N_8 
ROOT
ATOM      1  N   UNL d   1      52.989  32.510  53.595  0.00  0.00    -0.189 N 
ATOM      2  C   UNL d   1      52.888  31.718  53.374  0.00  0.00     0.171 A 
ATOM      3  N   UNL d   1      52.345  32.946  53.311  0.00  0.00    -0.162 NA
ATOM      4  C   UNL d   1      52.177  31.668  52.953  0.00  0.00     0.060 A 
ATOM      5  C   UNL d   1      51.844  32.420  52.913  0.00  0.00     0.105 A 
ATOM      6  C   UNL d   1      51.132  32.615  52.540  0.00  0.00     0.023 C 
ENDROOT
BRANCH   1   7
ATOM      7  C   UNL d   1      53.600  32.841  54.017  0.00  0.00     0.197 A 
ATOM      8  N   UNL d   1      54.290  33.072  53.627  0.00  0.00    -0.221 NA
ATOM      9  C   UNL d   1      54.809  33.389  54.202  0.00  0.00     0.090 A 
ATOM     10  C   UNL d   1      55.556  33.702  54.161  0.00  0.00     0.020 A 
ATOM     11  C   UNL d   1      54.414  33.341  54.928  0.00  0.00     0.050 A 
ATOM     12  C   UNL d   1      55.938  33.979  54.840  0.00  0.00     0.002 A 
ATOM     13  C   UNL d   1      55.547  33.930  55.553  0.00  0.00     0.001 A 
ATOM     14  C   UNL d   1      54.787  33.613  55.605  0.00  0.00     0.008 A 
ATOM     15  S   UNL d   1      53.675  33.004  54.803  0.00  0.00    -0.047 SA
ENDBRANCH   1   7
BRANCH   2  16
ATOM     16  N   UNL d   1      53.399  31.089  53.542  0.00  0.00    -0.189 NA
ATOM     17  C   UNL d   1      53.184  30.340  53.321  0.00  0.00     0.281 C 
ATOM     18  O   UNL d   1      53.693  29.708  53.487  0.00  0.00    -0.265 OA
ATOM     19  C   UNL d   1      52.477  30.187  52.936  0.00  0.00     0.068 C 
ENDBRANCH   2  16
TORSDOF 2
ENDMDL
