MODEL 1
REMARK VINA RESULT:      -2.3      0.000      0.000
REMARK  3 active torsions:
REMARK  status: ('A' for Active; 'I' for Inactive)
REMARK    1  A    between atoms: C_2  and  N_1 
REMARK    2  A    between atoms: O_14  and  C_5 
REMARK    3  A    between atoms: O_15  and  C_12 
ROOT
ATOM      1  C   UNL d   1      31.286  16.835 -24.256  0.00  0.00     0.092 A 
ATOM      2  C   UNL d   1      30.649  16.460 -23.907  0.00  0.00     0.112 A 
ATOM      3  C   UNL d   1      29.880  16.662 -24.129  0.00  0.00     0.050 A 
ATOM      4  C   UNL d   1      31.173  17.413 -24.828  0.00  0.00     0.022 A 
ATOM      5  C   UNL d   1      29.765  17.244 -24.703  0.00  0.00     0.096 A 
ATOM      6  C   UNL d   1      30.413  17.619 -25.052  0.00  0.00     0.026 A 
ENDROOT
BRANCH   1   7
ATOM      7  N   UNL d   1      32.059  16.632 -24.034  0.00  0.00    -0.240 N 
ATOM      8  C   UNL d   1      32.518  16.995 -23.457  0.00  0.00     0.267 A 
ATOM      9  C   UNL d   1      33.241  16.618 -23.422  0.00  0.00     0.066 A 
ATOM     10  O   UNL d   1      32.284  17.639 -22.990  0.00  0.00    -0.267 OA
ATOM     11  C   UNL d   1      33.241  16.007 -23.983  0.00  0.00     0.066 A 
ATOM     12  C   UNL d   1      32.509  16.015 -24.362  0.00  0.00     0.267 A 
ATOM     13  O   UNL d   1      32.255  15.465 -25.003  0.00  0.00    -0.267 OA
ENDBRANCH   1   7
BRANCH   2  14
ATOM     14  O   UNL d   1      30.764  15.875 -23.330  0.00  0.00    -0.327 OA
ATOM     15  C   UNL d   1      30.117  15.476 -23.006  0.00  0.00     0.181 C 
ENDBRANCH   2  14
BRANCH   5  16
ATOM     16  O   UNL d   1      28.992  17.452 -24.931  0.00  0.00    -0.328 OA
ATOM     17  C   UNL d   1      28.753  18.244 -24.927  0.00  0.00     0.181 C 
ENDBRANCH   5  16
TORSDOF 3
ENDMDL
MODEL 2
REMARK VINA RESULT:      -2.2      0.915      1.616
REMARK  3 active torsions:
REMARK  status: ('A' for Active; 'I' for Inactive)
REMARK    1  A    between atoms: C_2  and  N_1 
REMARK    2  A    between atoms: O_14  and  C_5 
REMARK    3  A    between atoms: O_15  and  C_12 
ROOT
ATOM      1  C   UNL d   1      31.041  16.400 -23.845  0.00  0.00     0.092 A 
ATOM      2  C   UNL d   1      30.537  16.896 -24.257  0.00  0.00     0.112 A 
ATOM      3  C   UNL d   1      29.720  16.818 -24.168  0.00  0.00     0.050 A 
ATOM      4  C   UNL d   1      30.746  15.823 -23.342  0.00  0.00     0.022 A 
ATOM      5  C   UNL d   1      29.421  16.238 -23.663  0.00  0.00     0.096 A 
ATOM      6  C   UNL d   1      29.936  15.741 -23.250  0.00  0.00     0.026 A 
ENDROOT
BRANCH   1   7
ATOM      7  N   UNL d   1      31.862  16.478 -23.934  0.00  0.00    -0.240 N 
ATOM      8  C   UNL d   1      32.363  16.957 -23.492  0.00  0.00     0.267 A 
ATOM      9  C   UNL d   1      33.125  16.862 -23.767  0.00  0.00     0.066 A 
ATOM     10  O   UNL d   1      32.130  17.454 -22.871  0.00  0.00    -0.267 OA
ATOM     11  C   UNL d   1      33.109  16.315 -24.391  0.00  0.00     0.066 A 
ATOM     12  C   UNL d   1      32.327  16.077 -24.495  0.00  0.00     0.267 A 
ATOM     13  O   UNL d   1      32.039  15.500 -25.096  0.00  0.00    -0.267 OA
ENDBRANCH   1   7
BRANCH   2  14
ATOM     14  O   UNL d   1      30.836  17.479 -24.764  0.00  0.00    -0.327 OA
ATOM     15  C   UNL d   1      30.332  18.047 -25.091  0.00  0.00     0.181 C 
ENDBRANCH   2  14
BRANCH   5  16
ATOM     16  O   UNL d   1      28.599  16.154 -23.569  0.00  0.00    -0.328 OA
ATOM     17  C   UNL d   1      28.221  15.453 -23.789  0.00  0.00     0.181 C 
ENDBRANCH   5  16
TORSDOF 3
ENDMDL
MODEL 3
REMARK VINA RESULT:      -1.9      1.283      2.029
REMARK  3 active torsions:
REMARK  status: ('A' for Active; 'I' for Inactive)
REMARK    1  A    between atoms: C_2  and  N_1 
REMARK    2  A    between atoms: O_14  and  C_5 
REMARK    3  A    between atoms: O_15  and  C_12 
ROOT
ATOM      1  C   UNL d   1      31.618  17.197 -24.198  0.00  0.00     0.092 A 
ATOM      2  C   UNL d   1      31.879  16.536 -24.601  0.00  0.00     0.112 A 
ATOM      3  C   UNL d   1      31.333  15.986 -24.886  0.00  0.00     0.050 A 
ATOM      4  C   UNL d   1      30.818  17.324 -24.069  0.00  0.00     0.022 A 
ATOM      5  C   UNL d   1      30.528  16.112 -24.757  0.00  0.00     0.096 A 
ATOM      6  C   UNL d   1      30.271  16.782 -24.348  0.00  0.00     0.026 A 
ENDROOT
BRANCH   1   7
ATOM      7  N   UNL d   1      32.166  17.751 -23.912  0.00  0.00    -0.240 N 
ATOM      8  C   UNL d   1      32.570  17.722 -23.197  0.00  0.00     0.267 A 
ATOM      9  C   UNL d   1      33.052  18.378 -23.141  0.00  0.00     0.066 A 
ATOM     10  O   UNL d   1      32.498  17.123 -22.628  0.00  0.00    -0.267 OA
ATOM     11  C   UNL d   1      32.952  18.831 -23.830  0.00  0.00     0.066 A 
ATOM     12  C   UNL d   1      32.404  18.443 -24.307  0.00  0.00     0.267 A 
ATOM     13  O   UNL d   1      32.123  18.717 -25.097  0.00  0.00    -0.267 OA
ENDBRANCH   1   7
BRANCH   2  14
ATOM     14  O   UNL d   1      32.688  16.409 -24.731  0.00  0.00    -0.327 OA
ATOM     15  C   UNL d   1      32.949  15.715 -25.097  0.00  0.00     0.181 C 
ENDBRANCH   2  14
BRANCH   5  16
ATOM     16  O   UNL d   1      29.972  15.560 -25.041  0.00  0.00    -0.328 OA
ATOM     17  C   UNL d   1      29.223  15.506 -24.696  0.00  0.00     0.181 C 
ENDBRANCH   5  16
TORSDOF 3
ENDMDL
MODEL 4
REMARK VINA RESULT:      -1.8      1.119      2.831
REMARK  3 active torsions:
REMARK  status: ('A' for Active; 'I' for Inactive)
REMARK    1  A    between atoms: C_2  and  N_1 
REMARK    2  A    between atoms: O_14  and  C_5 
REMARK    3  A    between atoms: O_15  and  C_12 
ROOT
ATOM      1  C   UNL d   1      31.190  16.840 -23.999  0.00  0.00     0.092 A 
ATOM      2  C   UNL d   1      31.847  16.519 -24.366  0.00  0.00     0.112 A 
ATOM      3  C   UNL d   1      32.535  16.970 -24.443  0.00  0.00     0.050 A 
ATOM      4  C   UNL d   1      31.203  17.606 -23.705  0.00  0.00     0.022 A 
ATOM      5  C   UNL d   1      32.549  17.740 -24.148  0.00  0.00     0.096 A 
ATOM      6  C   UNL d   1      31.881  18.057 -23.779  0.00  0.00     0.026 A 
ENDROOT
BRANCH   1   7
ATOM      7  N   UNL d   1      30.498  16.388 -23.921  0.00  0.00    -0.240 N 
ATOM      8  C   UNL d   1      30.347  15.811 -23.356  0.00  0.00     0.267 A 
ATOM      9  C   UNL d   1      29.600  15.508 -23.483  0.00  0.00     0.066 A 
ATOM     10  O   UNL d   1      30.869  15.576 -22.756  0.00  0.00    -0.267 OA
ATOM     11  C   UNL d   1      29.272  15.899 -24.139  0.00  0.00     0.066 A 
ATOM     12  C   UNL d   1      29.828  16.443 -24.410  0.00  0.00     0.267 A 
ATOM     13  O   UNL d   1      29.725  16.986 -25.097  0.00  0.00    -0.267 OA
ENDBRANCH   1   7
BRANCH   2  14
ATOM     14  O   UNL d   1      31.833  15.745 -24.662  0.00  0.00    -0.327 OA
ATOM     15  C   UNL d   1      32.473  15.453 -25.097  0.00  0.00     0.181 C 
ENDBRANCH   2  14
BRANCH   5  16
ATOM     16  O   UNL d   1      33.240  18.199 -24.223  0.00  0.00    -0.328 OA
ATOM     17  C   UNL d   1      33.208  18.949 -24.570  0.00  0.00     0.181 C 
ENDBRANCH   5  16
TORSDOF 3
ENDMDL
MODEL 5
REMARK VINA RESULT:      -1.6      1.373      3.007
REMARK  3 active torsions:
REMARK  status: ('A' for Active; 'I' for Inactive)
REMARK    1  A    between atoms: C_2  and  N_1 
REMARK    2  A    between atoms: O_14  and  C_5 
REMARK    3  A    between atoms: O_15  and  C_12 
ROOT
ATOM      1  C   UNL d   1      30.437  17.074 -24.460  0.00  0.00     0.092 A 
ATOM      2  C   UNL d   1      31.042  16.848 -23.959  0.00  0.00     0.112 A 
ATOM      3  C   UNL d   1      31.783  17.206 -24.023  0.00  0.00     0.050 A 
ATOM      4  C   UNL d   1      30.554  17.654 -25.029  0.00  0.00     0.022 A 
ATOM      5  C   UNL d   1      31.904  17.789 -24.594  0.00  0.00     0.096 A 
ATOM      6  C   UNL d   1      31.287  18.012 -25.097  0.00  0.00     0.026 A 
ENDROOT
BRANCH   1   7
ATOM      7  N   UNL d   1      29.691  16.715 -24.397  0.00  0.00    -0.240 N 
ATOM      8  C   UNL d   1      29.473  15.977 -24.685  0.00  0.00     0.267 A 
ATOM      9  C   UNL d   1      28.689  15.845 -24.500  0.00  0.00     0.066 A 
ATOM     10  O   UNL d   1      29.969  15.455 -25.095  0.00  0.00    -0.267 OA
ATOM     11  C   UNL d   1      28.406  16.508 -24.089  0.00  0.00     0.066 A 
ATOM     12  C   UNL d   1      29.026  17.047 -24.025  0.00  0.00     0.267 A 
ATOM     13  O   UNL d   1      28.985  17.835 -23.631  0.00  0.00    -0.267 OA
ENDBRANCH   1   7
BRANCH   2  14
ATOM     14  O   UNL d   1      30.922  16.262 -23.385  0.00  0.00    -0.327 OA
ATOM     15  C   UNL d   1      31.543  16.026 -22.893  0.00  0.00     0.181 C 
ENDBRANCH   2  14
BRANCH   5  16
ATOM     16  O   UNL d   1      32.649  18.154 -24.663  0.00  0.00    -0.328 OA
ATOM     17  C   UNL d   1      32.707  18.949 -24.880  0.00  0.00     0.181 C 
ENDBRANCH   5  16
TORSDOF 3
ENDMDL
MODEL 6
REMARK VINA RESULT:      -1.6      1.419      3.475
REMARK  3 active torsions:
REMARK  status: ('A' for Active; 'I' for Inactive)
REMARK    1  A    between atoms: C_2  and  N_1 
REMARK    2  A    between atoms: O_14  and  C_5 
REMARK    3  A    between atoms: O_15  and  C_12 
ROOT
ATOM      1  C   UNL d   1      30.327  15.999 -23.662  0.00  0.00     0.092 A 
ATOM      2  C   UNL d   1      30.591  16.715 -23.955  0.00  0.00     0.112 A 
ATOM      3  C   UNL d   1      31.397  16.895 -23.935  0.00  0.00     0.050 A 
ATOM      4  C   UNL d   1      30.851  15.453 -23.346  0.00  0.00     0.022 A 
ATOM      5  C   UNL d   1      31.926  16.347 -23.617  0.00  0.00     0.096 A 
ATOM      6  C   UNL d   1      31.651  15.625 -23.323  0.00  0.00     0.026 A 
ENDROOT
BRANCH   1   7
ATOM      7  N   UNL d   1      29.517  15.818 -23.682  0.00  0.00    -0.240 N 
ATOM      8  C   UNL d   1      29.083  15.569 -24.334  0.00  0.00     0.267 A 
ATOM      9  C   UNL d   1      28.309  15.454 -24.104  0.00  0.00     0.066 A 
ATOM     10  O   UNL d   1      29.385  15.453 -25.097  0.00  0.00    -0.267 OA
ATOM     11  C   UNL d   1      28.249  15.633 -23.296  0.00  0.00     0.066 A 
ATOM     12  C   UNL d   1      28.998  15.858 -23.034  0.00  0.00     0.267 A 
ATOM     13  O   UNL d   1      29.205  16.099 -22.211  0.00  0.00    -0.267 OA
ENDBRANCH   1   7
BRANCH   2  14
ATOM     14  O   UNL d   1      30.061  17.266 -24.274  0.00  0.00    -0.327 OA
ATOM     15  C   UNL d   1      30.325  18.015 -24.506  0.00  0.00     0.181 C 
ENDBRANCH   2  14
BRANCH   5  16
ATOM     16  O   UNL d   1      32.739  16.522 -23.594  0.00  0.00    -0.328 OA
ATOM     17  C   UNL d   1      33.237  16.132 -23.061  0.00  0.00     0.181 C 
ENDBRANCH   5  16
TORSDOF 3
ENDMDL
MODEL 7
REMARK VINA RESULT:      -1.2      1.795      2.863
REMARK  3 active torsions:
REMARK  status: ('A' for Active; 'I' for Inactive)
REMARK    1  A    between atoms: C_2  and  N_1 
REMARK    2  A    between atoms: O_14  and  C_5 
REMARK    3  A    between atoms: O_15  and  C_12 
ROOT
ATOM      1  C   UNL d   1      32.205  17.958 -24.400  0.00  0.00     0.092 A 
ATOM      2  C   UNL d   1      32.510  18.259 -23.704  0.00  0.00     0.112 A 
ATOM      3  C   UNL d   1      32.858  19.008 -23.698  0.00  0.00     0.050 A 
ATOM      4  C   UNL d   1      32.238  18.390 -25.097  0.00  0.00     0.022 A 
ATOM      5  C   UNL d   1      32.892  19.444 -24.397  0.00  0.00     0.096 A 
ATOM      6  C   UNL d   1      32.581  19.133 -25.097  0.00  0.00     0.026 A 
ENDROOT
BRANCH   1   7
ATOM      7  N   UNL d   1      31.856  17.205 -24.407  0.00  0.00    -0.240 N 
ATOM      8  C   UNL d   1      31.068  17.025 -24.256  0.00  0.00     0.267 A 
ATOM      9  C   UNL d   1      30.966  16.218 -24.323  0.00  0.00     0.066 A 
ATOM     10  O   UNL d   1      30.477  17.574 -24.066  0.00  0.00    -0.267 OA
ATOM     11  C   UNL d   1      31.699  15.881 -24.520  0.00  0.00     0.066 A 
ATOM     12  C   UNL d   1      32.250  16.492 -24.572  0.00  0.00     0.267 A 
ATOM     13  O   UNL d   1      33.104  16.400 -24.768  0.00  0.00    -0.267 OA
ENDBRANCH   1   7
BRANCH   2  14
ATOM     14  O   UNL d   1      32.477  17.821 -23.000  0.00  0.00    -0.327 OA
ATOM     15  C   UNL d   1      33.076  17.892 -22.435  0.00  0.00     0.181 C 
ENDBRANCH   2  14
BRANCH   5  16
ATOM     16  O   UNL d   1      33.241  20.200 -24.397  0.00  0.00    -0.328 OA
ATOM     17  C   UNL d   1      33.222  20.670 -25.078  0.00  0.00     0.181 C 
ENDBRANCH   5  16
TORSDOF 3
ENDMDL
MODEL 8
REMARK VINA RESULT:       0.0      1.603      2.587
REMARK  3 active torsions:
REMARK  status: ('A' for Active; 'I' for Inactive)
REMARK    1  A    between atoms: C_2  and  N_1 
REMARK    2  A    between atoms: O_14  and  C_5 
REMARK    3  A    between atoms: O_15  and  C_12 
ROOT
ATOM      1  C   UNL d   1      32.075  17.929 -23.943  0.00  0.00     0.092 A 
ATOM      2  C   UNL d   1      32.289  17.235 -23.570  0.00  0.00     0.112 A 
ATOM      3  C   UNL d   1      31.881  16.536 -23.736  0.00  0.00     0.050 A 
ATOM      4  C   UNL d   1      31.457  17.945 -24.484  0.00  0.00     0.022 A 
ATOM      5  C   UNL d   1      31.259  16.549 -24.279  0.00  0.00     0.096 A 
ATOM      6  C   UNL d   1      31.049  17.256 -24.652  0.00  0.00     0.026 A 
ENDROOT
BRANCH   1   7
ATOM      7  N   UNL d   1      32.484  18.632 -23.778  0.00  0.00    -0.240 N 
ATOM      8  C   UNL d   1      32.941  19.072 -24.300  0.00  0.00     0.267 A 
ATOM      9  C   UNL d   1      33.241  19.719 -23.904  0.00  0.00     0.066 A 
ATOM     10  O   UNL d   1      33.074  18.886 -25.097  0.00  0.00    -0.267 OA
ATOM     11  C   UNL d   1      32.971  19.691 -23.120  0.00  0.00     0.066 A 
ATOM     12  C   UNL d   1      32.502  19.017 -23.041  0.00  0.00     0.267 A 
ATOM     13  O   UNL d   1      32.094  18.757 -22.304  0.00  0.00    -0.267 OA
ENDBRANCH   1   7
BRANCH   2  14
ATOM     14  O   UNL d   1      32.913  17.220 -23.024  0.00  0.00    -0.327 OA
ATOM     15  C   UNL d   1      33.232  16.500 -22.774  0.00  0.00     0.181 C 
ENDBRANCH   2  14
BRANCH   5  16
ATOM     16  O   UNL d   1      30.844  15.849 -24.450  0.00  0.00    -0.328 OA
ATOM     17  C   UNL d   1      30.026  15.865 -24.571  0.00  0.00     0.181 C 
ENDBRANCH   5  16
TORSDOF 3
ENDMDL
