MODEL 1
REMARK VINA RESULT:      -3.5      0.000      0.000
REMARK  3 active torsions:
REMARK  status: ('A' for Active; 'I' for Inactive)
REMARK    1  A    between atoms: N_5  and  C_2 
REMARK    2  A    between atoms: C_9  and  C_3 
REMARK       I    between atoms: C_7  and  N_5 
REMARK    3  A    between atoms: C_8  and  C_7 
ROOT
ATOM      1  N   UNL d   1      33.041  22.278 -19.206  0.00  0.00    -0.200 NA
ATOM      2  C   UNL d   1      32.948  22.462 -19.997  0.00  0.00     0.216 A 
ATOM      3  C   UNL d   1      32.805  22.948 -18.768  0.00  0.00     0.172 A 
ATOM      4  N   UNL d   1      32.573  23.530 -19.301  0.00  0.00    -0.187 NA
ATOM      5  S   UNL d   1      32.661  23.230 -20.060  0.00  0.00     0.054 SA
ENDROOT
BRANCH   2   6
ATOM      6  N   UNL d   1      33.116  21.956 -20.624  0.00  0.00    -0.181 NA
ATOM      7  C   UNL d   1      32.564  21.381 -20.848  0.00  0.00     0.281 C 
ATOM      8  O   UNL d   1      31.850  21.316 -20.448  0.00  0.00    -0.265 OA
BRANCH   7   9
ATOM      9  C   UNL d   1      32.731  20.877 -21.472  0.00  0.00     0.058 A 
ATOM     10  C   UNL d   1      32.569  21.109 -22.243  0.00  0.00     0.005 A 
ATOM     11  C   UNL d   1      32.739  20.600 -22.873  0.00  0.00     0.000 A 
ATOM     12  C   UNL d   1      33.069  19.862 -22.728  0.00  0.00     0.000 A 
ATOM     13  C   UNL d   1      33.234  19.625 -21.952  0.00  0.00     0.000 A 
ATOM     14  C   UNL d   1      33.238  19.356 -23.355  0.00  0.00     0.000 C 
ATOM     15  C   UNL d   1      33.065  20.134 -21.322  0.00  0.00     0.005 A 
ENDBRANCH   7   9
ENDBRANCH   2   6
BRANCH   3  16
ATOM     16  C   UNL d   1      32.806  23.014 -17.953  0.00  0.00     0.036 A 
ATOM     17  C   UNL d   1      33.214  22.453 -17.499  0.00  0.00     0.003 A 
ATOM     18  C   UNL d   1      33.208  22.528 -16.676  0.00  0.00     0.000 A 
ATOM     19  C   UNL d   1      32.802  23.154 -16.310  0.00  0.00     0.000 A 
ATOM     20  C   UNL d   1      32.402  23.702 -16.768  0.00  0.00     0.000 A 
ATOM     21  C   UNL d   1      32.403  23.635 -17.592  0.00  0.00     0.003 A 
ENDBRANCH   3  16
TORSDOF 3
ENDMDL
MODEL 2
REMARK VINA RESULT:      -3.4      1.983      5.517
REMARK  3 active torsions:
REMARK  status: ('A' for Active; 'I' for Inactive)
REMARK    1  A    between atoms: N_5  and  C_2 
REMARK    2  A    between atoms: C_9  and  C_3 
REMARK       I    between atoms: C_7  and  N_5 
REMARK    3  A    between atoms: C_8  and  C_7 
ROOT
ATOM      1  N   UNL d   1      32.989  19.360 -22.319  0.00  0.00    -0.200 NA
ATOM      2  C   UNL d   1      33.157  20.147 -22.461  0.00  0.00     0.216 A 
ATOM      3  C   UNL d   1      32.953  18.977 -23.060  0.00  0.00     0.172 A 
ATOM      4  N   UNL d   1      33.101  19.540 -23.642  0.00  0.00    -0.187 NA
ATOM      5  S   UNL d   1      33.226  20.262 -23.272  0.00  0.00     0.054 SA
ENDROOT
BRANCH   2   6
ATOM      6  N   UNL d   1      33.241  20.725 -21.882  0.00  0.00    -0.181 NA
ATOM      7  C   UNL d   1      32.570  21.026 -21.500  0.00  0.00     0.281 C 
ATOM      8  O   UNL d   1      31.823  20.749 -21.699  0.00  0.00    -0.265 OA
BRANCH   7   9
ATOM      9  C   UNL d   1      32.654  21.601 -20.924  0.00  0.00     0.058 A 
ATOM     10  C   UNL d   1      32.263  22.319 -20.999  0.00  0.00     0.005 A 
ATOM     11  C   UNL d   1      32.348  22.901 -20.416  0.00  0.00     0.000 A 
ATOM     12  C   UNL d   1      32.823  22.761 -19.762  0.00  0.00     0.000 A 
ATOM     13  C   UNL d   1      33.219  22.038 -19.682  0.00  0.00     0.000 A 
ATOM     14  C   UNL d   1      32.907  23.339 -19.182  0.00  0.00     0.000 C 
ATOM     15  C   UNL d   1      33.135  21.456 -20.265  0.00  0.00     0.005 A 
ENDBRANCH   7   9
ENDBRANCH   2   6
BRANCH   3  16
ATOM     16  C   UNL d   1      32.800  18.184 -23.184  0.00  0.00     0.036 A 
ATOM     17  C   UNL d   1      32.202  17.963 -23.713  0.00  0.00     0.003 A 
ATOM     18  C   UNL d   1      32.054  17.158 -23.832  0.00  0.00     0.000 A 
ATOM     19  C   UNL d   1      32.496  16.581 -23.428  0.00  0.00     0.000 A 
ATOM     20  C   UNL d   1      33.085  16.811 -22.907  0.00  0.00     0.000 A 
ATOM     21  C   UNL d   1      33.239  17.614 -22.783  0.00  0.00     0.003 A 
ENDBRANCH   3  16
TORSDOF 3
ENDMDL
MODEL 3
REMARK VINA RESULT:      -3.1      2.957      6.268
REMARK  3 active torsions:
REMARK  status: ('A' for Active; 'I' for Inactive)
REMARK    1  A    between atoms: N_5  and  C_2 
REMARK    2  A    between atoms: C_9  and  C_3 
REMARK       I    between atoms: C_7  and  N_5 
REMARK    3  A    between atoms: C_8  and  C_7 
ROOT
ATOM      1  N   UNL d   1      32.117  18.627 -23.429  0.00  0.00    -0.200 NA
ATOM      2  C   UNL d   1      32.670  19.226 -23.490  0.00  0.00     0.216 A 
ATOM      3  C   UNL d   1      32.352  18.022 -23.955  0.00  0.00     0.172 A 
ATOM      4  N   UNL d   1      33.045  18.264 -24.327  0.00  0.00    -0.187 NA
ATOM      5  S   UNL d   1      33.241  19.008 -24.039  0.00  0.00     0.054 SA
ENDROOT
BRANCH   2   6
ATOM      6  N   UNL d   1      32.651  19.931 -23.066  0.00  0.00    -0.181 NA
ATOM      7  C   UNL d   1      32.937  19.952 -22.289  0.00  0.00     0.281 C 
ATOM      8  O   UNL d   1      33.239  19.271 -21.942  0.00  0.00    -0.265 OA
BRANCH   7   9
ATOM      9  C   UNL d   1      32.919  20.653 -21.867  0.00  0.00     0.058 A 
ATOM     10  C   UNL d   1      32.581  20.674 -21.118  0.00  0.00     0.005 A 
ATOM     11  C   UNL d   1      32.563  21.384 -20.692  0.00  0.00     0.000 A 
ATOM     12  C   UNL d   1      32.881  22.067 -21.017  0.00  0.00     0.000 A 
ATOM     13  C   UNL d   1      33.222  22.050 -21.772  0.00  0.00     0.000 A 
ATOM     14  C   UNL d   1      32.862  22.772 -20.593  0.00  0.00     0.000 C 
ATOM     15  C   UNL d   1      33.241  21.341 -22.198  0.00  0.00     0.005 A 
ENDBRANCH   7   9
ENDBRANCH   2   6
BRANCH   3  16
ATOM     16  C   UNL d   1      31.961  17.314 -24.077  0.00  0.00     0.036 A 
ATOM     17  C   UNL d   1      32.334  16.602 -23.873  0.00  0.00     0.003 A 
ATOM     18  C   UNL d   1      31.931  15.893 -24.001  0.00  0.00     0.000 A 
ATOM     19  C   UNL d   1      31.166  15.891 -24.328  0.00  0.00     0.000 A 
ATOM     20  C   UNL d   1      30.808  16.600 -24.526  0.00  0.00     0.000 A 
ATOM     21  C   UNL d   1      31.204  17.315 -24.401  0.00  0.00     0.003 A 
ENDBRANCH   3  16
TORSDOF 3
ENDMDL
MODEL 4
REMARK VINA RESULT:      -3.1      2.466      3.788
REMARK  3 active torsions:
REMARK  status: ('A' for Active; 'I' for Inactive)
REMARK    1  A    between atoms: N_5  and  C_2 
REMARK    2  A    between atoms: C_9  and  C_3 
REMARK       I    between atoms: C_7  and  N_5 
REMARK    3  A    between atoms: C_8  and  C_7 
ROOT
ATOM      1  N   UNL d   1      32.722  20.253 -21.736  0.00  0.00    -0.200 NA
ATOM      2  C   UNL d   1      32.965  19.864 -22.413  0.00  0.00     0.216 A 
ATOM      3  C   UNL d   1      32.850  21.068 -21.861  0.00  0.00     0.172 A 
ATOM      4  N   UNL d   1      33.170  21.162 -22.613  0.00  0.00    -0.187 NA
ATOM      5  S   UNL d   1      33.240  20.418 -22.954  0.00  0.00     0.054 SA
ENDROOT
BRANCH   2   6
ATOM      6  N   UNL d   1      32.935  19.050 -22.527  0.00  0.00    -0.181 NA
ATOM      7  C   UNL d   1      32.587  18.743 -23.214  0.00  0.00     0.281 C 
ATOM      8  O   UNL d   1      32.272  19.250 -23.779  0.00  0.00    -0.265 OA
BRANCH   7   9
ATOM      9  C   UNL d   1      32.558  17.933 -23.328  0.00  0.00     0.058 A 
ATOM     10  C   UNL d   1      33.224  17.474 -23.189  0.00  0.00     0.005 A 
ATOM     11  C   UNL d   1      33.194  16.654 -23.304  0.00  0.00     0.000 A 
ATOM     12  C   UNL d   1      32.498  16.300 -23.557  0.00  0.00     0.000 A 
ATOM     13  C   UNL d   1      31.824  16.760 -23.698  0.00  0.00     0.000 A 
ATOM     14  C   UNL d   1      32.469  15.486 -23.671  0.00  0.00     0.000 C 
ATOM     15  C   UNL d   1      31.854  17.579 -23.583  0.00  0.00     0.005 A 
ENDBRANCH   7   9
ENDBRANCH   2   6
BRANCH   3  16
ATOM     16  C   UNL d   1      32.687  21.667 -21.328  0.00  0.00     0.036 A 
ATOM     17  C   UNL d   1      32.334  22.367 -21.597  0.00  0.00     0.003 A 
ATOM     18  C   UNL d   1      32.173  22.965 -21.051  0.00  0.00     0.000 A 
ATOM     19  C   UNL d   1      32.361  22.869 -20.247  0.00  0.00     0.000 A 
ATOM     20  C   UNL d   1      32.710  22.173 -19.992  0.00  0.00     0.000 A 
ATOM     21  C   UNL d   1      32.874  21.569 -20.532  0.00  0.00     0.003 A 
ENDBRANCH   3  16
TORSDOF 3
ENDMDL
MODEL 5
REMARK VINA RESULT:      -1.4      2.467      3.517
REMARK  3 active torsions:
REMARK  status: ('A' for Active; 'I' for Inactive)
REMARK    1  A    between atoms: N_5  and  C_2 
REMARK    2  A    between atoms: C_9  and  C_3 
REMARK       I    between atoms: C_7  and  N_5 
REMARK    3  A    between atoms: C_8  and  C_7 
ROOT
ATOM      1  N   UNL d   1      31.955  20.872 -21.845  0.00  0.00    -0.200 NA
ATOM      2  C   UNL d   1      32.430  20.240 -22.053  0.00  0.00     0.216 A 
ATOM      3  C   UNL d   1      32.457  21.477 -21.565  0.00  0.00     0.172 A 
ATOM      4  N   UNL d   1      33.232  21.202 -21.606  0.00  0.00    -0.187 NA
ATOM      5  S   UNL d   1      33.215  20.438 -21.908  0.00  0.00     0.054 SA
ENDROOT
BRANCH   2   6
ATOM      6  N   UNL d   1      32.160  19.525 -22.357  0.00  0.00    -0.181 NA
ATOM      7  C   UNL d   1      32.528  19.196 -23.022  0.00  0.00     0.281 C 
ATOM      8  O   UNL d   1      33.160  19.582 -23.378  0.00  0.00    -0.265 OA
BRANCH   7   9
ATOM      9  C   UNL d   1      32.260  18.484 -23.325  0.00  0.00     0.058 A 
ATOM     10  C   UNL d   1      31.790  18.475 -23.999  0.00  0.00     0.005 A 
ATOM     11  C   UNL d   1      31.519  17.755 -24.305  0.00  0.00     0.000 A 
ATOM     12  C   UNL d   1      31.719  17.049 -23.935  0.00  0.00     0.000 A 
ATOM     13  C   UNL d   1      32.192  17.055 -23.255  0.00  0.00     0.000 A 
ATOM     14  C   UNL d   1      31.449  16.334 -24.239  0.00  0.00     0.000 C 
ATOM     15  C   UNL d   1      32.463  17.775 -22.949  0.00  0.00     0.005 A 
ENDBRANCH   7   9
ENDBRANCH   2   6
BRANCH   3  16
ATOM     16  C   UNL d   1      32.220  22.212 -21.296  0.00  0.00     0.036 A 
ATOM     17  C   UNL d   1      31.864  22.278 -20.551  0.00  0.00     0.003 A 
ATOM     18  C   UNL d   1      31.629  23.026 -20.289  0.00  0.00     0.000 A 
ATOM     19  C   UNL d   1      31.745  23.699 -20.763  0.00  0.00     0.000 A 
ATOM     20  C   UNL d   1      32.097  23.621 -21.499  0.00  0.00     0.000 A 
ATOM     21  C   UNL d   1      32.337  22.877 -21.769  0.00  0.00     0.003 A 
ENDBRANCH   3  16
TORSDOF 3
ENDMDL
