MODEL 1
REMARK VINA RESULT:      -1.9      0.000      0.000
REMARK  4 active torsions:
REMARK  status: ('A' for Active; 'I' for Inactive)
REMARK    1  A    between atoms: C_6  and  C_1 
REMARK    2  A    between atoms: C_7  and  N_3 
REMARK    3  A    between atoms: C_9  and  C_6 
REMARK    4  A    between atoms: N_8  and  C_9 
ROOT
ATOM      1  C   UNL d   1      57.087   0.044  32.488  0.00  0.00     0.058 A 
ATOM      2  C   UNL d   1      57.095  -0.328  31.751  0.00  0.00     0.067 A 
ATOM      3  N   UNL d   1      57.800  -0.142  31.360  0.00  0.00    -0.306 N 
ATOM      4  C   UNL d   1      58.221   0.349  31.872  0.00  0.00     0.064 A 
ATOM      5  C   UNL d   1      57.783   0.449  32.537  0.00  0.00     0.022 A 
ATOM      6  C   UNL d   1      56.492  -0.811  31.448  0.00  0.00     0.019 C 
ATOM      7  C   UNL d   1      58.975   0.682  31.717  0.00  0.00     0.019 C 
ENDROOT
BRANCH   1   8
ATOM      8  C   UNL d   1      56.482   0.005  33.060  0.00  0.00     0.214 C 
ATOM      9  O   UNL d   1      56.471  -0.590  33.623  0.00  0.00    -0.285 OA
BRANCH   8  10
ATOM     10  C   UNL d   1      55.887   0.577  33.057  0.00  0.00     0.123 C 
BRANCH  10  11
ATOM     11  N   UNL d   1      55.334   0.602  33.662  0.00  0.00    -0.300 N 
ATOM     12  C   UNL d   1      55.590   0.652  34.425  0.00  0.00     0.080 A 
ATOM     13  C   UNL d   1      55.037   0.678  35.050  0.00  0.00     0.019 A 
ATOM     14  C   UNL d   1      54.239   0.650  34.849  0.00  0.00     0.003 A 
ATOM     15  C   UNL d   1      53.983   0.600  34.085  0.00  0.00     0.019 A 
ATOM     16  C   UNL d   1      54.565   0.576  33.488  0.00  0.00     0.080 A 
ENDBRANCH  10  11
ENDBRANCH   8  10
ENDBRANCH   1   8
BRANCH   3  17
ATOM     17  C   UNL d   1      58.101  -0.343  30.643  0.00  0.00     0.064 A 
ATOM     18  C   UNL d   1      58.199  -1.145  30.453  0.00  0.00     0.020 A 
ATOM     19  C   UNL d   1      58.513  -1.355  29.704  0.00  0.00     0.031 A 
ATOM     20  C   UNL d   1      58.715  -0.778  29.182  0.00  0.00     0.140 A 
ATOM     21  C   UNL d   1      58.620   0.001  29.368  0.00  0.00     0.031 A 
ATOM     22  F   UNL d   1      59.020  -0.982  28.457  0.00  0.00    -0.204 F 
ATOM     23  C   UNL d   1      58.307   0.240  30.110  0.00  0.00     0.020 A 
ENDBRANCH   3  17
TORSDOF 4
ENDMDL
