MODEL 1
REMARK VINA RESULT:      -3.1      0.000      0.000
REMARK  2 active torsions:
REMARK  status: ('A' for Active; 'I' for Inactive)
REMARK    1  A    between atoms: S_2  and  N_1 
REMARK    2  A    between atoms: N_6  and  S_2 
ROOT
ATOM      1  N   UNL d   1      57.975  -0.053  30.723  0.00  0.00    -0.199 N 
ATOM      2  C   UNL d   1      58.292  -0.600  30.200  0.00  0.00     0.095 A 
ATOM      3  C   UNL d   1      58.352   0.682  30.578  0.00  0.00     0.194 A 
ATOM      4  N   UNL d   1      58.896   0.566  29.965  0.00  0.00    -0.223 NA
ATOM      5  C   UNL d   1      58.858  -0.222  29.733  0.00  0.00     0.100 A 
ATOM      6  C   UNL d   1      58.131  -1.401  30.094  0.00  0.00     0.020 A 
ATOM      7  C   UNL d   1      59.263  -0.652  29.158  0.00  0.00     0.021 A 
ATOM      8  C   UNL d   1      58.536  -1.831  29.519  0.00  0.00     0.002 A 
ATOM      9  C   UNL d   1      59.105  -1.455  29.048  0.00  0.00     0.002 A 
ATOM     10  C   UNL d   1      58.375  -2.635  29.411  0.00  0.00     0.000 C 
ATOM     11  C   UNL d   1      59.513  -1.885  28.470  0.00  0.00     0.000 C 
ENDROOT
BRANCH   1  12
ATOM     12  S   UNL d   1      57.399  -0.193  31.282  0.00  0.00     0.339 S 
ATOM     13  O   UNL d   1      56.814   0.019  30.744  0.00  0.00    -0.181 OA
ATOM     14  O   UNL d   1      57.981  -0.405  31.822  0.00  0.00    -0.181 OA
BRANCH  12  15
ATOM     15  N   UNL d   1      56.826  -0.337  31.855  0.00  0.00    -0.212 N 
ATOM     16  C   UNL d   1      56.444   0.294  32.222  0.00  0.00     0.120 A 
ATOM     17  C   UNL d   1      55.874   0.150  32.792  0.00  0.00     0.142 A 
ATOM     18  O   UNL d   1      55.679  -0.613  33.001  0.00  0.00    -0.300 OA
ATOM     19  C   UNL d   1      56.056  -1.250  32.639  0.00  0.00     0.142 A 
ATOM     20  C   UNL d   1      56.635  -1.109  32.060  0.00  0.00     0.120 A 
ENDBRANCH  12  15
ENDBRANCH   1  12
TORSDOF 2
ENDMDL
MODEL 2
REMARK VINA RESULT:      -2.8      1.123      1.760
REMARK  2 active torsions:
REMARK  status: ('A' for Active; 'I' for Inactive)
REMARK    1  A    between atoms: S_2  and  N_1 
REMARK    2  A    between atoms: N_6  and  S_2 
ROOT
ATOM      1  N   UNL d   1      57.945  -0.099  30.302  0.00  0.00    -0.199 N 
ATOM      2  C   UNL d   1      58.743   0.088  30.313  0.00  0.00     0.095 A 
ATOM      3  C   UNL d   1      57.736  -0.267  29.507  0.00  0.00     0.194 A 
ATOM      4  N   UNL d   1      58.418  -0.178  29.047  0.00  0.00    -0.223 NA
ATOM      5  C   UNL d   1      59.036   0.041  29.543  0.00  0.00     0.100 A 
ATOM      6  C   UNL d   1      59.240   0.298  30.936  0.00  0.00     0.020 A 
ATOM      7  C   UNL d   1      59.832   0.205  29.400  0.00  0.00     0.021 A 
ATOM      8  C   UNL d   1      60.035   0.462  30.793  0.00  0.00     0.002 A 
ATOM      9  C   UNL d   1      60.333   0.415  30.022  0.00  0.00     0.002 A 
ATOM     10  C   UNL d   1      60.534   0.672  31.418  0.00  0.00     0.000 C 
ATOM     11  C   UNL d   1      61.131   0.579  29.876  0.00  0.00     0.000 C 
ENDROOT
BRANCH   1  12
ATOM     12  S   UNL d   1      57.442  -0.120  30.943  0.00  0.00     0.339 S 
ATOM     13  O   UNL d   1      57.597  -0.921  31.049  0.00  0.00    -0.181 OA
ATOM     14  O   UNL d   1      57.285   0.680  30.840  0.00  0.00    -0.181 OA
BRANCH  12  15
ATOM     15  N   UNL d   1      56.932  -0.129  31.589  0.00  0.00    -0.212 N 
ATOM     16  C   UNL d   1      56.644   0.580  31.895  0.00  0.00     0.120 A 
ATOM     17  C   UNL d   1      56.137   0.571  32.538  0.00  0.00     0.142 A 
ATOM     18  O   UNL d   1      55.912  -0.135  32.880  0.00  0.00    -0.300 OA
ATOM     19  C   UNL d   1      56.195  -0.848  32.579  0.00  0.00     0.142 A 
ATOM     20  C   UNL d   1      56.710  -0.843  31.927  0.00  0.00     0.120 A 
ENDBRANCH  12  15
ENDBRANCH   1  12
TORSDOF 2
ENDMDL
MODEL 3
REMARK VINA RESULT:      -2.6      1.208      3.713
REMARK  2 active torsions:
REMARK  status: ('A' for Active; 'I' for Inactive)
REMARK    1  A    between atoms: S_2  and  N_1 
REMARK    2  A    between atoms: N_6  and  S_2 
ROOT
ATOM      1  N   UNL d   1      57.923   0.200  31.691  0.00  0.00    -0.199 N 
ATOM      2  C   UNL d   1      57.307  -0.083  32.152  0.00  0.00     0.095 A 
ATOM      3  C   UNL d   1      58.404   0.682  32.180  0.00  0.00     0.194 A 
ATOM      4  N   UNL d   1      58.068   0.682  32.937  0.00  0.00    -0.223 NA
ATOM      5  C   UNL d   1      57.394   0.211  32.918  0.00  0.00     0.100 A 
ATOM      6  C   UNL d   1      56.675  -0.576  31.964  0.00  0.00     0.020 A 
ATOM      7  C   UNL d   1      56.842   0.008  33.496  0.00  0.00     0.021 A 
ATOM      8  C   UNL d   1      56.123  -0.780  32.542  0.00  0.00     0.002 A 
ATOM      9  C   UNL d   1      56.207  -0.486  33.313  0.00  0.00     0.002 A 
ATOM     10  C   UNL d   1      55.488  -1.275  32.355  0.00  0.00     0.000 C 
ATOM     11  C   UNL d   1      55.654  -0.689  33.895  0.00  0.00     0.000 C 
ENDROOT
BRANCH   1  12
ATOM     12  S   UNL d   1      58.049   0.046  30.900  0.00  0.00     0.339 S 
ATOM     13  O   UNL d   1      58.545  -0.582  31.094  0.00  0.00    -0.181 OA
ATOM     14  O   UNL d   1      57.554   0.672  30.703  0.00  0.00    -0.181 OA
BRANCH  12  15
ATOM     15  N   UNL d   1      58.169  -0.102  30.100  0.00  0.00    -0.212 N 
ATOM     16  C   UNL d   1      58.459  -0.834  29.855  0.00  0.00     0.120 A 
ATOM     17  C   UNL d   1      58.579  -0.980  29.058  0.00  0.00     0.142 A 
ATOM     18  O   UNL d   1      58.412  -0.408  28.502  0.00  0.00    -0.300 OA
ATOM     19  C   UNL d   1      58.121   0.327  28.737  0.00  0.00     0.142 A 
ATOM     20  C   UNL d   1      57.999   0.479  29.545  0.00  0.00     0.120 A 
ENDBRANCH  12  15
ENDBRANCH   1  12
TORSDOF 2
ENDMDL
MODEL 4
REMARK VINA RESULT:      -1.8      1.506      4.359
REMARK  2 active torsions:
REMARK  status: ('A' for Active; 'I' for Inactive)
REMARK    1  A    between atoms: S_2  and  N_1 
REMARK    2  A    between atoms: N_6  and  S_2 
ROOT
ATOM      1  N   UNL d   1      57.140   0.189  33.091  0.00  0.00    -0.199 N 
ATOM      2  C   UNL d   1      56.406   0.284  33.446  0.00  0.00     0.095 A 
ATOM      3  C   UNL d   1      57.723   0.352  33.670  0.00  0.00     0.194 A 
ATOM      4  N   UNL d   1      57.331   0.546  34.373  0.00  0.00    -0.223 NA
ATOM      5  C   UNL d   1      56.521   0.504  34.234  0.00  0.00     0.100 A 
ATOM      6  C   UNL d   1      55.645   0.197  33.145  0.00  0.00     0.020 A 
ATOM      7  C   UNL d   1      55.867   0.635  34.718  0.00  0.00     0.021 A 
ATOM      8  C   UNL d   1      54.991   0.329  33.629  0.00  0.00     0.002 A 
ATOM      9  C   UNL d   1      55.102   0.549  34.420  0.00  0.00     0.002 A 
ATOM     10  C   UNL d   1      54.226   0.242  33.327  0.00  0.00     0.000 C 
ATOM     11  C   UNL d   1      54.447   0.682  34.908  0.00  0.00     0.000 C 
ENDROOT
BRANCH   1  12
ATOM     12  S   UNL d   1      57.280  -0.026  32.318  0.00  0.00     0.339 S 
ATOM     13  O   UNL d   1      56.879  -0.735  32.433  0.00  0.00    -0.181 OA
ATOM     14  O   UNL d   1      57.681   0.682  32.199  0.00  0.00    -0.181 OA
BRANCH  12  15
ATOM     15  N   UNL d   1      57.427  -0.232  31.535  0.00  0.00    -0.212 N 
ATOM     16  C   UNL d   1      57.627   0.352  30.987  0.00  0.00     0.120 A 
ATOM     17  C   UNL d   1      57.774   0.147  30.207  0.00  0.00     0.142 A 
ATOM     18  O   UNL d   1      57.725  -0.631  29.967  0.00  0.00    -0.300 OA
ATOM     19  C   UNL d   1      57.526  -1.220  30.508  0.00  0.00     0.142 A 
ATOM     20  C   UNL d   1      57.377  -1.016  31.299  0.00  0.00     0.120 A 
ENDBRANCH  12  15
ENDBRANCH   1  12
TORSDOF 2
ENDMDL
MODEL 5
REMARK VINA RESULT:      -1.7      1.981      3.748
REMARK  2 active torsions:
REMARK  status: ('A' for Active; 'I' for Inactive)
REMARK    1  A    between atoms: S_2  and  N_1 
REMARK    2  A    between atoms: N_6  and  S_2 
ROOT
ATOM      1  N   UNL d   1      58.702  -0.772  29.334  0.00  0.00    -0.199 N 
ATOM      2  C   UNL d   1      58.217  -0.527  29.949  0.00  0.00     0.095 A 
ATOM      3  C   UNL d   1      58.922  -0.090  28.899  0.00  0.00     0.194 A 
ATOM      4  N   UNL d   1      58.564   0.563  29.261  0.00  0.00    -0.223 NA
ATOM      5  C   UNL d   1      58.131   0.293  29.906  0.00  0.00     0.100 A 
ATOM      6  C   UNL d   1      57.844  -0.955  30.544  0.00  0.00     0.020 A 
ATOM      7  C   UNL d   1      57.667   0.682  30.465  0.00  0.00     0.021 A 
ATOM      8  C   UNL d   1      57.379  -0.566  31.104  0.00  0.00     0.002 A 
ATOM      9  C   UNL d   1      57.290   0.257  31.065  0.00  0.00     0.002 A 
ATOM     10  C   UNL d   1      57.003  -0.995  31.702  0.00  0.00     0.000 C 
ATOM     11  C   UNL d   1      56.824   0.649  31.625  0.00  0.00     0.000 C 
ENDROOT
BRANCH   1  12
ATOM     12  S   UNL d   1      58.930  -1.537  29.171  0.00  0.00     0.339 S 
ATOM     13  O   UNL d   1      59.616  -1.436  29.615  0.00  0.00    -0.181 OA
ATOM     14  O   UNL d   1      58.247  -1.642  28.726  0.00  0.00    -0.181 OA
BRANCH  12  15
ATOM     15  N   UNL d   1      59.151  -2.311  29.000  0.00  0.00    -0.212 N 
ATOM     16  C   UNL d   1      58.618  -2.818  28.627  0.00  0.00     0.120 A 
ATOM     17  C   UNL d   1      58.837  -3.588  28.457  0.00  0.00     0.142 A 
ATOM     18  O   UNL d   1      59.580  -3.861  28.653  0.00  0.00    -0.300 OA
ATOM     19  C   UNL d   1      60.119  -3.361  29.026  0.00  0.00     0.142 A 
ATOM     20  C   UNL d   1      59.900  -2.579  29.201  0.00  0.00     0.120 A 
ENDBRANCH  12  15
ENDBRANCH   1  12
TORSDOF 2
ENDMDL
MODEL 6
REMARK VINA RESULT:      -0.9      1.829      2.808
REMARK  2 active torsions:
REMARK  status: ('A' for Active; 'I' for Inactive)
REMARK    1  A    between atoms: S_2  and  N_1 
REMARK    2  A    between atoms: N_6  and  S_2 
ROOT
ATOM      1  N   UNL d   1      56.210  -0.865  32.581  0.00  0.00    -0.199 N 
ATOM      2  C   UNL d   1      56.818  -0.655  32.071  0.00  0.00     0.095 A 
ATOM      3  C   UNL d   1      55.849  -1.556  32.274  0.00  0.00     0.194 A 
ATOM      4  N   UNL d   1      56.247  -1.755  31.576  0.00  0.00    -0.223 NA
ATOM      5  C   UNL d   1      56.842  -1.202  31.452  0.00  0.00     0.100 A 
ATOM      6  C   UNL d   1      57.353  -0.030  32.097  0.00  0.00     0.020 A 
ATOM      7  C   UNL d   1      57.408  -1.117  30.859  0.00  0.00     0.021 A 
ATOM      8  C   UNL d   1      57.918   0.054  31.503  0.00  0.00     0.002 A 
ATOM      9  C   UNL d   1      57.947  -0.491  30.880  0.00  0.00     0.002 A 
ATOM     10  C   UNL d   1      58.456   0.682  31.528  0.00  0.00     0.000 C 
ATOM     11  C   UNL d   1      58.514  -0.409  30.283  0.00  0.00     0.000 C 
ENDROOT
BRANCH   1  12
ATOM     12  S   UNL d   1      55.993  -0.475  33.264  0.00  0.00     0.339 S 
ATOM     13  O   UNL d   1      55.537   0.053  32.827  0.00  0.00    -0.181 OA
ATOM     14  O   UNL d   1      56.448  -1.000  33.703  0.00  0.00    -0.181 OA
BRANCH  12  15
ATOM     15  N   UNL d   1      55.781  -0.089  33.959  0.00  0.00    -0.212 N 
ATOM     16  C   UNL d   1      54.994   0.118  34.090  0.00  0.00     0.120 A 
ATOM     17  C   UNL d   1      54.783   0.502  34.782  0.00  0.00     0.142 A 
ATOM     18  O   UNL d   1      55.345   0.682  35.345  0.00  0.00    -0.300 OA
ATOM     19  C   UNL d   1      56.134   0.478  35.222  0.00  0.00     0.142 A 
ATOM     20  C   UNL d   1      56.352   0.089  34.521  0.00  0.00     0.120 A 
ENDBRANCH  12  15
ENDBRANCH   1  12
TORSDOF 2
ENDMDL
MODEL 7
REMARK VINA RESULT:      -0.8      1.423      1.520
REMARK  2 active torsions:
REMARK  status: ('A' for Active; 'I' for Inactive)
REMARK    1  A    between atoms: S_2  and  N_1 
REMARK    2  A    between atoms: N_6  and  S_2 
ROOT
ATOM      1  N   UNL d   1      58.190   0.394  31.746  0.00  0.00    -0.199 N 
ATOM      2  C   UNL d   1      58.370   0.426  30.947  0.00  0.00     0.095 A 
ATOM      3  C   UNL d   1      58.894   0.554  32.171  0.00  0.00     0.194 A 
ATOM      4  N   UNL d   1      59.496   0.682  31.617  0.00  0.00    -0.223 NA
ATOM      5  C   UNL d   1      59.173   0.604  30.865  0.00  0.00     0.100 A 
ATOM      6  C   UNL d   1      57.898   0.316  30.282  0.00  0.00     0.020 A 
ATOM      7  C   UNL d   1      59.499   0.669  30.111  0.00  0.00     0.021 A 
ATOM      8  C   UNL d   1      58.224   0.381  29.527  0.00  0.00     0.002 A 
ATOM      9  C   UNL d   1      59.029   0.559  29.440  0.00  0.00     0.002 A 
ATOM     10  C   UNL d   1      57.751   0.270  28.859  0.00  0.00     0.000 C 
ATOM     11  C   UNL d   1      59.359   0.625  28.684  0.00  0.00     0.000 C 
ENDROOT
BRANCH   1  12
ATOM     12  S   UNL d   1      57.460   0.235  32.073  0.00  0.00     0.339 S 
ATOM     13  O   UNL d   1      57.092   0.682  31.488  0.00  0.00    -0.181 OA
ATOM     14  O   UNL d   1      57.824  -0.213  32.658  0.00  0.00    -0.181 OA
BRANCH  12  15
ATOM     15  N   UNL d   1      56.728   0.068  32.411  0.00  0.00    -0.212 N 
ATOM     16  C   UNL d   1      56.287   0.673  32.755  0.00  0.00     0.120 A 
ATOM     17  C   UNL d   1      55.559   0.507  33.092  0.00  0.00     0.142 A 
ATOM     18  O   UNL d   1      55.265  -0.253  33.090  0.00  0.00    -0.300 OA
ATOM     19  C   UNL d   1      55.700  -0.864  32.748  0.00  0.00     0.142 A 
ATOM     20  C   UNL d   1      56.439  -0.700  32.405  0.00  0.00     0.120 A 
ENDBRANCH  12  15
ENDBRANCH   1  12
TORSDOF 2
ENDMDL
