MODEL 1
REMARK VINA RESULT:      -6.6      0.000      0.000
REMARK  5 active torsions:
REMARK  status: ('A' for Active; 'I' for Inactive)
REMARK    1  A    between atoms: N_2  and  S_1 
REMARK    2  A    between atoms: C_4  and  S_1 
REMARK    3  A    between atoms: C_3  and  N_2 
REMARK    4  A    between atoms: N_7  and  C_3 
REMARK    5  A    between atoms: C_12  and  N_7 
ROOT
ATOM      1  S   UNL d   1     -47.619  12.742  23.087  0.00  0.00     0.287 S 
ATOM      2  O   UNL d   1     -47.181  13.102  22.483  0.00  0.00    -0.198 OA
ATOM      3  O   UNL d   1     -48.045  12.369  23.697  0.00  0.00    -0.198 OA
ENDROOT
BRANCH   1   4
ATOM      4  N   UNL d   1     -48.255  13.249  22.940  0.00  0.00    -0.128 NA
BRANCH   4   5
ATOM      5  C   UNL d   1     -48.774  13.591  22.395  0.00  0.00     0.232 C 
ATOM      6  S   UNL d   1     -49.195  13.118  21.870  0.00  0.00    -0.036 SA
BRANCH   5   7
ATOM      7  N   UNL d   1     -48.864  14.408  22.383  0.00  0.00    -0.217 NA
BRANCH   7   8
ATOM      8  C   UNL d   1     -49.587  14.740  22.596  0.00  0.00     0.084 A 
ATOM      9  C   UNL d   1     -49.649  15.155  23.300  0.00  0.00     0.019 A 
ATOM     10  C   UNL d   1     -50.365  15.488  23.517  0.00  0.00     0.002 A 
ATOM     11  C   UNL d   1     -51.021  15.405  23.027  0.00  0.00     0.000 A 
ATOM     12  C   UNL d   1     -50.947  14.985  22.321  0.00  0.00     0.002 A 
ATOM     13  C   UNL d   1     -50.240  14.657  22.108  0.00  0.00     0.019 A 
ENDBRANCH   7   8
ENDBRANCH   5   7
ENDBRANCH   4   5
ENDBRANCH   1   4
BRANCH   1  14
ATOM     14  C   UNL d   1     -46.975  12.229  23.236  0.00  0.00     0.105 A 
ATOM     15  C   UNL d   1     -47.116  11.474  23.544  0.00  0.00     0.015 A 
ATOM     16  C   UNL d   1     -46.485  10.966  23.692  0.00  0.00     0.030 A 
ATOM     17  C   UNL d   1     -45.696  11.201  23.535  0.00  0.00     0.140 A 
ATOM     18  C   UNL d   1     -45.564  11.963  23.225  0.00  0.00     0.030 A 
ATOM     19  F   UNL d   1     -45.076  10.692  23.684  0.00  0.00    -0.204 F 
ATOM     20  C   UNL d   1     -46.198  12.473  23.076  0.00  0.00     0.015 A 
ENDBRANCH   1  14
TORSDOF 5
ENDMDL
MODEL 2
REMARK VINA RESULT:      -6.5      1.014      1.522
REMARK  5 active torsions:
REMARK  status: ('A' for Active; 'I' for Inactive)
REMARK    1  A    between atoms: N_2  and  S_1 
REMARK    2  A    between atoms: C_4  and  S_1 
REMARK    3  A    between atoms: C_3  and  N_2 
REMARK    4  A    between atoms: N_7  and  C_3 
REMARK    5  A    between atoms: C_12  and  N_7 
ROOT
ATOM      1  S   UNL d   1     -47.144  13.502  22.853  0.00  0.00     0.287 S 
ATOM      2  O   UNL d   1     -46.893  13.659  23.626  0.00  0.00    -0.198 OA
ATOM      3  O   UNL d   1     -47.381  13.337  22.072  0.00  0.00    -0.198 OA
ENDROOT
BRANCH   1   4
ATOM      4  N   UNL d   1     -47.890  13.819  23.021  0.00  0.00    -0.128 NA
BRANCH   4   5
ATOM      5  C   UNL d   1     -48.688  13.891  22.818  0.00  0.00     0.232 C 
ATOM      6  S   UNL d   1     -49.194  13.246  22.891  0.00  0.00    -0.036 SA
BRANCH   5   7
ATOM      7  N   UNL d   1     -48.971  14.612  22.544  0.00  0.00    -0.217 NA
BRANCH   7   8
ATOM      8  C   UNL d   1     -49.654  14.933  22.874  0.00  0.00     0.084 A 
ATOM      9  C   UNL d   1     -50.381  14.598  22.702  0.00  0.00     0.019 A 
ATOM     10  C   UNL d   1     -51.064  14.913  23.028  0.00  0.00     0.002 A 
ATOM     11  C   UNL d   1     -51.017  15.565  23.527  0.00  0.00     0.000 A 
ATOM     12  C   UNL d   1     -50.278  15.894  23.694  0.00  0.00     0.002 A 
ATOM     13  C   UNL d   1     -49.606  15.582  23.372  0.00  0.00     0.019 A 
ENDBRANCH   7   8
ENDBRANCH   5   7
ENDBRANCH   4   5
ENDBRANCH   1   4
BRANCH   1  14
ATOM     14  C   UNL d   1     -46.391  13.182  22.682  0.00  0.00     0.105 A 
ATOM     15  C   UNL d   1     -45.860  13.609  22.214  0.00  0.00     0.015 A 
ATOM     16  C   UNL d   1     -45.118  13.297  22.044  0.00  0.00     0.030 A 
ATOM     17  C   UNL d   1     -44.887  12.547  22.339  0.00  0.00     0.140 A 
ATOM     18  C   UNL d   1     -45.428  12.124  22.810  0.00  0.00     0.030 A 
ATOM     19  F   UNL d   1     -44.149  12.245  22.166  0.00  0.00    -0.204 F 
ATOM     20  C   UNL d   1     -46.175  12.438  22.981  0.00  0.00     0.015 A 
ENDBRANCH   1  14
TORSDOF 5
ENDMDL
MODEL 3
REMARK VINA RESULT:      -5.6      1.545      2.067
REMARK  5 active torsions:
REMARK  status: ('A' for Active; 'I' for Inactive)
REMARK    1  A    between atoms: N_2  and  S_1 
REMARK    2  A    between atoms: C_4  and  S_1 
REMARK    3  A    between atoms: C_3  and  N_2 
REMARK    4  A    between atoms: N_7  and  C_3 
REMARK    5  A    between atoms: C_12  and  N_7 
ROOT
ATOM      1  S   UNL d   1     -46.791  12.933  22.733  0.00  0.00     0.287 S 
ATOM      2  O   UNL d   1     -46.565  13.128  23.506  0.00  0.00    -0.198 OA
ATOM      3  O   UNL d   1     -47.001  12.735  21.953  0.00  0.00    -0.198 OA
ENDROOT
BRANCH   1   4
ATOM      4  N   UNL d   1     -47.588  13.028  22.932  0.00  0.00    -0.128 NA
BRANCH   4   5
ATOM      5  C   UNL d   1     -48.212  13.535  23.125  0.00  0.00     0.232 C 
ATOM      6  S   UNL d   1     -48.269  14.275  22.770  0.00  0.00    -0.036 SA
BRANCH   5   7
ATOM      7  N   UNL d   1     -48.773  13.292  23.674  0.00  0.00    -0.217 NA
BRANCH   7   8
ATOM      8  C   UNL d   1     -49.540  13.126  23.425  0.00  0.00     0.084 A 
ATOM      9  C   UNL d   1     -49.806  12.351  23.430  0.00  0.00     0.019 A 
ATOM     10  C   UNL d   1     -50.568  12.178  23.183  0.00  0.00     0.002 A 
ATOM     11  C   UNL d   1     -51.064  12.785  22.931  0.00  0.00     0.000 A 
ATOM     12  C   UNL d   1     -50.785  13.562  22.930  0.00  0.00     0.002 A 
ATOM     13  C   UNL d   1     -50.034  13.729  23.174  0.00  0.00     0.019 A 
ENDBRANCH   7   8
ENDBRANCH   5   7
ENDBRANCH   4   5
ENDBRANCH   1   4
BRANCH   1  14
ATOM     14  C   UNL d   1     -45.985  12.837  22.531  0.00  0.00     0.105 A 
ATOM     15  C   UNL d   1     -45.612  13.401  22.054  0.00  0.00     0.015 A 
ATOM     16  C   UNL d   1     -44.819  13.309  21.853  0.00  0.00     0.030 A 
ATOM     17  C   UNL d   1     -44.378  12.650  22.125  0.00  0.00     0.140 A 
ATOM     18  C   UNL d   1     -44.762  12.088  22.604  0.00  0.00     0.030 A 
ATOM     19  F   UNL d   1     -43.592  12.567  21.921  0.00  0.00    -0.204 F 
ATOM     20  C   UNL d   1     -45.559  12.180  22.806  0.00  0.00     0.015 A 
ENDBRANCH   1  14
TORSDOF 5
ENDMDL
MODEL 4
REMARK VINA RESULT:      -5.5      1.453      2.158
REMARK  5 active torsions:
REMARK  status: ('A' for Active; 'I' for Inactive)
REMARK    1  A    between atoms: N_2  and  S_1 
REMARK    2  A    between atoms: C_4  and  S_1 
REMARK    3  A    between atoms: C_3  and  N_2 
REMARK    4  A    between atoms: N_7  and  C_3 
REMARK    5  A    between atoms: C_12  and  N_7 
ROOT
ATOM      1  S   UNL d   1     -46.053  11.765  23.321  0.00  0.00     0.287 S 
ATOM      2  O   UNL d   1     -45.571  12.425  23.187  0.00  0.00    -0.198 OA
ATOM      3  O   UNL d   1     -46.524  11.092  23.456  0.00  0.00    -0.198 OA
ENDROOT
BRANCH   1   4
ATOM      4  N   UNL d   1     -46.728  12.242  23.296  0.00  0.00    -0.128 NA
BRANCH   4   5
ATOM      5  C   UNL d   1     -47.503  12.355  23.030  0.00  0.00     0.232 C 
ATOM      6  S   UNL d   1     -48.138  12.080  23.476  0.00  0.00    -0.036 SA
BRANCH   5   7
ATOM      7  N   UNL d   1     -47.632  12.745  22.319  0.00  0.00    -0.217 NA
BRANCH   7   8
ATOM      8  C   UNL d   1     -48.165  13.373  22.290  0.00  0.00     0.084 A 
ATOM      9  C   UNL d   1     -48.806  13.335  21.781  0.00  0.00     0.019 A 
ATOM     10  C   UNL d   1     -49.340  13.956  21.748  0.00  0.00     0.002 A 
ATOM     11  C   UNL d   1     -49.230  14.617  22.226  0.00  0.00     0.000 A 
ATOM     12  C   UNL d   1     -48.580  14.643  22.735  0.00  0.00     0.002 A 
ATOM     13  C   UNL d   1     -48.056  14.030  22.766  0.00  0.00     0.019 A 
ENDBRANCH   7   8
ENDBRANCH   5   7
ENDBRANCH   4   5
ENDBRANCH   1   4
BRANCH   1  14
ATOM     14  C   UNL d   1     -45.371  11.282  23.347  0.00  0.00     0.105 A 
ATOM     15  C   UNL d   1     -44.654  11.569  23.051  0.00  0.00     0.015 A 
ATOM     16  C   UNL d   1     -43.981  11.096  23.075  0.00  0.00     0.030 A 
ATOM     17  C   UNL d   1     -44.007  10.322  23.395  0.00  0.00     0.140 A 
ATOM     18  C   UNL d   1     -44.734  10.041  23.690  0.00  0.00     0.030 A 
ATOM     19  F   UNL d   1     -43.335   9.860  23.415  0.00  0.00    -0.204 F 
ATOM     20  C   UNL d   1     -45.411  10.517  23.667  0.00  0.00     0.015 A 
ENDBRANCH   1  14
TORSDOF 5
ENDMDL
MODEL 5
REMARK VINA RESULT:      -5.5      2.122      4.715
REMARK  5 active torsions:
REMARK  status: ('A' for Active; 'I' for Inactive)
REMARK    1  A    between atoms: N_2  and  S_1 
REMARK    2  A    between atoms: C_4  and  S_1 
REMARK    3  A    between atoms: C_3  and  N_2 
REMARK    4  A    between atoms: N_7  and  C_3 
REMARK    5  A    between atoms: C_12  and  N_7 
ROOT
ATOM      1  S   UNL d   1     -48.379  13.948  22.693  0.00  0.00     0.287 S 
ATOM      2  O   UNL d   1     -48.535  13.837  21.888  0.00  0.00    -0.198 OA
ATOM      3  O   UNL d   1     -48.236  14.069  23.504  0.00  0.00    -0.198 OA
ENDROOT
BRANCH   1   4
ATOM      4  N   UNL d   1     -47.707  13.468  22.639  0.00  0.00    -0.128 NA
BRANCH   4   5
ATOM      5  C   UNL d   1     -47.153  12.984  23.015  0.00  0.00     0.232 C 
ATOM      6  S   UNL d   1     -47.341  12.203  23.198  0.00  0.00    -0.036 SA
BRANCH   5   7
ATOM      7  N   UNL d   1     -46.414  13.288  23.204  0.00  0.00    -0.217 NA
BRANCH   7   8
ATOM      8  C   UNL d   1     -45.750  13.027  22.793  0.00  0.00     0.084 A 
ATOM      9  C   UNL d   1     -45.406  13.515  22.232  0.00  0.00     0.019 A 
ATOM     10  C   UNL d   1     -44.744  13.262  21.820  0.00  0.00     0.002 A 
ATOM     11  C   UNL d   1     -44.427  12.517  21.971  0.00  0.00     0.000 A 
ATOM     12  C   UNL d   1     -44.783  12.035  22.540  0.00  0.00     0.002 A 
ATOM     13  C   UNL d   1     -45.434  12.287  22.944  0.00  0.00     0.019 A 
ENDBRANCH   7   8
ENDBRANCH   5   7
ENDBRANCH   4   5
ENDBRANCH   1   4
BRANCH   1  14
ATOM     14  C   UNL d   1     -49.058  14.433  22.750  0.00  0.00     0.105 A 
ATOM     15  C   UNL d   1     -48.998  15.184  23.090  0.00  0.00     0.015 A 
ATOM     16  C   UNL d   1     -49.664  15.664  23.147  0.00  0.00     0.030 A 
ATOM     17  C   UNL d   1     -50.409  15.404  22.865  0.00  0.00     0.140 A 
ATOM     18  C   UNL d   1     -50.460  14.646  22.523  0.00  0.00     0.030 A 
ATOM     19  F   UNL d   1     -51.064  15.886  22.925  0.00  0.00    -0.204 F 
ATOM     20  C   UNL d   1     -49.790  14.163  22.466  0.00  0.00     0.015 A 
ENDBRANCH   1  14
TORSDOF 5
ENDMDL
MODEL 6
REMARK VINA RESULT:      -5.4      9.078     10.072
REMARK  5 active torsions:
REMARK  status: ('A' for Active; 'I' for Inactive)
REMARK    1  A    between atoms: N_2  and  S_1 
REMARK    2  A    between atoms: C_4  and  S_1 
REMARK    3  A    between atoms: C_3  and  N_2 
REMARK    4  A    between atoms: N_7  and  C_3 
REMARK    5  A    between atoms: C_12  and  N_7 
ROOT
ATOM      1  S   UNL d   1     -40.023  14.753  19.070  0.00  0.00     0.287 S 
ATOM      2  O   UNL d   1     -40.662  14.237  19.179  0.00  0.00    -0.198 OA
ATOM      3  O   UNL d   1     -39.389  15.276  18.945  0.00  0.00    -0.198 OA
ENDROOT
BRANCH   1   4
ATOM      4  N   UNL d   1     -39.686  14.501  19.781  0.00  0.00    -0.128 NA
BRANCH   4   5
ATOM      5  C   UNL d   1     -39.688  14.515  20.608  0.00  0.00     0.232 C 
ATOM      6  S   UNL d   1     -40.391  14.410  21.023  0.00  0.00    -0.036 SA
BRANCH   5   7
ATOM      7  N   UNL d   1     -38.982  14.635  21.011  0.00  0.00    -0.217 NA
BRANCH   7   8
ATOM      8  C   UNL d   1     -38.727  14.077  21.560  0.00  0.00     0.084 A 
ATOM      9  C   UNL d   1     -38.201  13.493  21.326  0.00  0.00     0.019 A 
ATOM     10  C   UNL d   1     -37.943  12.934  21.867  0.00  0.00     0.002 A 
ATOM     11  C   UNL d   1     -38.213  12.961  22.644  0.00  0.00     0.000 A 
ATOM     12  C   UNL d   1     -38.743  13.554  22.867  0.00  0.00     0.002 A 
ATOM     13  C   UNL d   1     -38.996  14.103  22.333  0.00  0.00     0.019 A 
ENDBRANCH   7   8
ENDBRANCH   5   7
ENDBRANCH   4   5
ENDBRANCH   1   4
BRANCH   1  14
ATOM     14  C   UNL d   1     -40.364  15.009  18.350  0.00  0.00     0.105 A 
ATOM     15  C   UNL d   1     -40.200  14.599  17.651  0.00  0.00     0.015 A 
ATOM     16  C   UNL d   1     -40.534  14.848  16.941  0.00  0.00     0.030 A 
ATOM     17  C   UNL d   1     -41.040  15.515  16.912  0.00  0.00     0.140 A 
ATOM     18  C   UNL d   1     -41.199  15.922  17.621  0.00  0.00     0.030 A 
ATOM     19  F   UNL d   1     -41.366  15.755  16.204  0.00  0.00    -0.204 F 
ATOM     20  C   UNL d   1     -40.864  15.671  18.335  0.00  0.00     0.015 A 
ENDBRANCH   1  14
TORSDOF 5
ENDMDL
MODEL 7
REMARK VINA RESULT:      -5.2      8.850     10.212
REMARK  5 active torsions:
REMARK  status: ('A' for Active; 'I' for Inactive)
REMARK    1  A    between atoms: N_2  and  S_1 
REMARK    2  A    between atoms: C_4  and  S_1 
REMARK    3  A    between atoms: C_3  and  N_2 
REMARK    4  A    between atoms: N_7  and  C_3 
REMARK    5  A    between atoms: C_12  and  N_7 
ROOT
ATOM      1  S   UNL d   1     -39.324  14.450  17.813  0.00  0.00     0.287 S 
ATOM      2  O   UNL d   1     -39.719  13.723  17.838  0.00  0.00    -0.198 OA
ATOM      3  O   UNL d   1     -38.919  15.176  17.773  0.00  0.00    -0.198 OA
ENDROOT
BRANCH   1   4
ATOM      4  N   UNL d   1     -39.669  14.673  18.531  0.00  0.00    -0.128 NA
BRANCH   4   5
ATOM      5  C   UNL d   1     -40.340  14.922  18.944  0.00  0.00     0.232 C 
ATOM      6  S   UNL d   1     -40.814  15.523  18.641  0.00  0.00    -0.036 SA
BRANCH   5   7
ATOM      7  N   UNL d   1     -40.530  14.565  19.659  0.00  0.00    -0.217 NA
BRANCH   7   8
ATOM      8  C   UNL d   1     -40.478  15.000  20.357  0.00  0.00     0.084 A 
ATOM      9  C   UNL d   1     -39.811  14.930  20.827  0.00  0.00     0.019 A 
ATOM     10  C   UNL d   1     -39.754  15.360  21.523  0.00  0.00     0.002 A 
ATOM     11  C   UNL d   1     -40.368  15.860  21.747  0.00  0.00     0.000 A 
ATOM     12  C   UNL d   1     -41.035  15.922  21.265  0.00  0.00     0.002 A 
ATOM     13  C   UNL d   1     -41.089  15.498  20.580  0.00  0.00     0.019 A 
ENDBRANCH   7   8
ENDBRANCH   5   7
ENDBRANCH   4   5
ENDBRANCH   1   4
BRANCH   1  14
ATOM     14  C   UNL d   1     -38.974  14.226  17.088  0.00  0.00     0.105 A 
ATOM     15  C   UNL d   1     -38.965  14.759  16.455  0.00  0.00     0.015 A 
ATOM     16  C   UNL d   1     -38.622  14.541  15.739  0.00  0.00     0.030 A 
ATOM     17  C   UNL d   1     -38.278  13.784  15.638  0.00  0.00     0.140 A 
ATOM     18  C   UNL d   1     -38.291  13.254  16.280  0.00  0.00     0.030 A 
ATOM     19  F   UNL d   1     -37.940  13.576  14.925  0.00  0.00    -0.204 F 
ATOM     20  C   UNL d   1     -38.637  13.472  17.000  0.00  0.00     0.015 A 
ENDBRANCH   1  14
TORSDOF 5
ENDMDL
MODEL 8
REMARK VINA RESULT:      -5.2      1.974      4.721
REMARK  5 active torsions:
REMARK  status: ('A' for Active; 'I' for Inactive)
REMARK    1  A    between atoms: N_2  and  S_1 
REMARK    2  A    between atoms: C_4  and  S_1 
REMARK    3  A    between atoms: C_3  and  N_2 
REMARK    4  A    between atoms: N_7  and  C_3 
REMARK    5  A    between atoms: C_12  and  N_7 
ROOT
ATOM      1  S   UNL d   1     -47.977  13.757  22.647  0.00  0.00     0.287 S 
ATOM      2  O   UNL d   1     -47.466  14.360  22.895  0.00  0.00    -0.198 OA
ATOM      3  O   UNL d   1     -48.503  13.161  22.401  0.00  0.00    -0.198 OA
ENDROOT
BRANCH   1   4
ATOM      4  N   UNL d   1     -47.333  13.254  22.515  0.00  0.00    -0.128 NA
BRANCH   4   5
ATOM      5  C   UNL d   1     -46.567  13.020  22.718  0.00  0.00     0.232 C 
ATOM      6  S   UNL d   1     -45.944  13.138  22.194  0.00  0.00    -0.036 SA
BRANCH   5   7
ATOM      7  N   UNL d   1     -46.434  12.667  23.449  0.00  0.00    -0.217 NA
BRANCH   7   8
ATOM      8  C   UNL d   1     -46.035  11.948  23.486  0.00  0.00     0.084 A 
ATOM      9  C   UNL d   1     -45.228  11.927  23.349  0.00  0.00     0.019 A 
ATOM     10  C   UNL d   1     -44.825  11.214  23.385  0.00  0.00     0.002 A 
ATOM     11  C   UNL d   1     -45.233  10.521  23.559  0.00  0.00     0.000 A 
ATOM     12  C   UNL d   1     -46.047  10.555  23.696  0.00  0.00     0.002 A 
ATOM     13  C   UNL d   1     -46.441  11.258  23.660  0.00  0.00     0.019 A 
ENDBRANCH   7   8
ENDBRANCH   5   7
ENDBRANCH   4   5
ENDBRANCH   1   4
BRANCH   1  14
ATOM     14  C   UNL d   1     -48.628  14.264  22.781  0.00  0.00     0.105 A 
ATOM     15  C   UNL d   1     -48.568  15.066  22.589  0.00  0.00     0.015 A 
ATOM     16  C   UNL d   1     -49.207  15.569  22.720  0.00  0.00     0.030 A 
ATOM     17  C   UNL d   1     -49.923  15.281  23.046  0.00  0.00     0.140 A 
ATOM     18  C   UNL d   1     -49.974  14.471  23.236  0.00  0.00     0.030 A 
ATOM     19  F   UNL d   1     -50.552  15.785  23.172  0.00  0.00    -0.204 F 
ATOM     20  C   UNL d   1     -49.332  13.966  23.105  0.00  0.00     0.015 A 
ENDBRANCH   1  14
TORSDOF 5
ENDMDL
MODEL 9
REMARK VINA RESULT:      -4.9      8.991      9.443
REMARK  5 active torsions:
REMARK  status: ('A' for Active; 'I' for Inactive)
REMARK    1  A    between atoms: N_2  and  S_1 
REMARK    2  A    between atoms: C_4  and  S_1 
REMARK    3  A    between atoms: C_3  and  N_2 
REMARK    4  A    between atoms: N_7  and  C_3 
REMARK    5  A    between atoms: C_12  and  N_7 
ROOT
ATOM      1  S   UNL d   1     -39.376  14.682  20.756  0.00  0.00     0.287 S 
ATOM      2  O   UNL d   1     -40.136  14.425  20.963  0.00  0.00    -0.198 OA
ATOM      3  O   UNL d   1     -38.607  14.934  20.562  0.00  0.00    -0.198 OA
ENDROOT
BRANCH   1   4
ATOM      4  N   UNL d   1     -39.656  14.948  20.024  0.00  0.00    -0.128 NA
BRANCH   4   5
ATOM      5  C   UNL d   1     -40.294  15.188  19.558  0.00  0.00     0.232 C 
ATOM      6  S   UNL d   1     -40.648  15.920  19.684  0.00  0.00    -0.036 SA
BRANCH   5   7
ATOM      7  N   UNL d   1     -40.573  14.689  18.967  0.00  0.00    -0.217 NA
BRANCH   7   8
ATOM      8  C   UNL d   1     -40.509  14.917  18.178  0.00  0.00     0.084 A 
ATOM      9  C   UNL d   1     -40.936  15.562  17.910  0.00  0.00     0.019 A 
ATOM     10  C   UNL d   1     -40.877  15.794  17.126  0.00  0.00     0.002 A 
ATOM     11  C   UNL d   1     -40.388  15.378  16.611  0.00  0.00     0.000 A 
ATOM     12  C   UNL d   1     -39.963  14.729  16.893  0.00  0.00     0.002 A 
ATOM     13  C   UNL d   1     -40.023  14.503  17.666  0.00  0.00     0.019 A 
ENDBRANCH   7   8
ENDBRANCH   5   7
ENDBRANCH   4   5
ENDBRANCH   1   4
BRANCH   1  14
ATOM     14  C   UNL d   1     -39.092  14.413  21.495  0.00  0.00     0.105 A 
ATOM     15  C   UNL d   1     -38.996  14.950  22.116  0.00  0.00     0.015 A 
ATOM     16  C   UNL d   1     -38.717  14.689  22.846  0.00  0.00     0.030 A 
ATOM     17  C   UNL d   1     -38.527  13.883  22.972  0.00  0.00     0.140 A 
ATOM     18  C   UNL d   1     -38.627  13.349  22.341  0.00  0.00     0.030 A 
ATOM     19  F   UNL d   1     -38.251  13.633  23.698  0.00  0.00    -0.204 F 
ATOM     20  C   UNL d   1     -38.908  13.612  21.607  0.00  0.00     0.015 A 
ENDBRANCH   1  14
TORSDOF 5
ENDMDL
