MODEL 1
REMARK VINA RESULT:      -9.0      0.000      0.000
REMARK  7 active torsions:
REMARK  status: ('A' for Active; 'I' for Inactive)
REMARK    1  A    between atoms: N_3  and  S_1 
REMARK    2  A    between atoms: C_7  and  S_1 
REMARK    3  A    between atoms: N_2  and  C_6 
REMARK    4  A    between atoms: C_5  and  N_3 
REMARK    5  A    between atoms: C_10  and  N_4 
REMARK    6  A    between atoms: C_6  and  C_5 
REMARK    7  A    between atoms: C_11  and  C_6 
ROOT
ATOM      1  C   UNL d   1      53.072  32.585  53.285  0.00  0.00     0.086 C 
ENDROOT
BRANCH   1   2
ATOM      2  N   UNL d   1      52.370  33.027  53.151  0.00  0.00    -0.300 N 
ATOM      3  C   UNL d   1      51.693  32.887  53.609  0.00  0.00     0.100 A 
ATOM      4  C   UNL d   1      51.007  33.321  53.475  0.00  0.00     0.100 A 
ATOM      5  N   UNL d   1      50.994  33.895  52.884  0.00  0.00    -0.301 N 
ATOM      6  C   UNL d   1      51.671  34.034  52.425  0.00  0.00     0.100 A 
ATOM      7  C   UNL d   1      52.358  33.600  52.560  0.00  0.00     0.100 A 
BRANCH   5   8
ATOM      8  C   UNL d   1      50.308  34.329  52.750  0.00  0.00     0.064 A 
ATOM      9  C   UNL d   1      49.930  34.283  52.019  0.00  0.00     0.020 A 
ATOM     10  C   UNL d   1      49.241  34.718  51.882  0.00  0.00     0.031 A 
ATOM     11  C   UNL d   1      48.932  35.198  52.478  0.00  0.00     0.140 A 
ATOM     12  C   UNL d   1      49.312  35.243  53.210  0.00  0.00     0.031 A 
ATOM     13  F   UNL d   1      48.234  35.642  52.347  0.00  0.00    -0.204 F 
ATOM     14  C   UNL d   1      49.999  34.810  53.345  0.00  0.00     0.020 A 
ENDBRANCH   5   8
ENDBRANCH   1   2
BRANCH   1  15
ATOM     15  C   UNL d   1      53.218  31.886  52.861  0.00  0.00     0.130 C 
BRANCH  15  16
ATOM     16  N   UNL d   1      53.033  31.147  53.201  0.00  0.00    -0.155 NA
BRANCH  16  17
ATOM     17  S   UNL d   1      53.004  30.473  52.737  0.00  0.00     0.285 S 
ATOM     18  O   UNL d   1      52.975  29.787  52.264  0.00  0.00    -0.198 OA
ATOM     19  O   UNL d   1      52.935  30.938  52.056  0.00  0.00    -0.198 OA
BRANCH  17  20
ATOM     20  C   UNL d   1      53.074  30.000  53.420  0.00  0.00     0.105 A 
ATOM     21  C   UNL d   1      52.395  29.780  53.834  0.00  0.00     0.015 A 
ATOM     22  C   UNL d   1      52.457  29.313  54.509  0.00  0.00     0.030 A 
ATOM     23  C   UNL d   1      53.212  29.063  54.775  0.00  0.00     0.140 A 
ATOM     24  C   UNL d   1      53.891  29.287  54.356  0.00  0.00     0.030 A 
ATOM     25  F   UNL d   1      53.292  28.585  55.464  0.00  0.00    -0.204 F 
ATOM     26  C   UNL d   1      53.821  29.756  53.677  0.00  0.00     0.015 A 
ENDBRANCH  17  20
ENDBRANCH  16  17
ENDBRANCH  15  16
ENDBRANCH   1  15
BRANCH   1  27
ATOM     27  C   UNL d   1      53.625  32.854  53.847  0.00  0.00     0.037 A 
ATOM     28  C   UNL d   1      54.378  33.074  53.598  0.00  0.00     0.100 A 
ATOM     29  N   UNL d   1      54.931  33.341  54.149  0.00  0.00    -0.242 NA
ATOM     30  C   UNL d   1      54.722  33.384  54.948  0.00  0.00     0.099 A 
ATOM     31  C   UNL d   1      53.970  33.164  55.197  0.00  0.00     0.021 A 
ATOM     32  C   UNL d   1      53.420  32.898  54.643  0.00  0.00     0.005 A 
ENDBRANCH   1  27
TORSDOF 7
ENDMDL
