MODEL 1
REMARK VINA RESULT:      -6.9      0.000      0.000
REMARK  9 active torsions:
REMARK  status: ('A' for Active; 'I' for Inactive)
REMARK    1  A    between atoms: S_10  and  C_3 
REMARK    2  A    between atoms: C_17  and  N_5 
REMARK    3  A    between atoms: C_12  and  S_10 
REMARK    4  A    between atoms: C_11  and  C_12 
REMARK       I    between atoms: N_13  and  C_11 
REMARK    5  A    between atoms: C_26  and  C_12 
REMARK    6  A    between atoms: C_23  and  N_13 
REMARK    7  A    between atoms: C_15  and  C_23 
REMARK    8  A    between atoms: C_22  and  C_17 
REMARK    9  A    between atoms: C_30  and  C_26 
ROOT
ATOM      1  C   UNL d   1      53.668  33.273  54.181  0.00  0.00     0.081 A 
ATOM      2  C   UNL d   1      53.107  33.879  54.224  0.00  0.00     0.117 A 
ATOM      3  C   UNL d   1      52.245  33.134  53.356  0.00  0.00     0.182 A 
ATOM      4  N   UNL d   1      52.401  33.811  53.815  0.00  0.00    -0.215 NA
ATOM      5  N   UNL d   1      52.809  32.531  53.317  0.00  0.00    -0.253 N 
ATOM      6  C   UNL d   1      53.523  32.600  53.729  0.00  0.00     0.268 A 
ATOM      7  S   UNL d   1      53.407  34.469  54.709  0.00  0.00    -0.068 SA
ATOM      8  C   UNL d   1      54.317  33.490  54.642  0.00  0.00     0.013 A 
ATOM      9  C   UNL d   1      54.150  34.232  54.968  0.00  0.00     0.031 A 
ATOM     10  O   UNL d   1      54.083  31.995  53.687  0.00  0.00    -0.267 OA
ATOM     11  C   UNL d   1      55.060  33.261  54.904  0.00  0.00     0.001 A 
ATOM     12  C   UNL d   1      54.795  34.456  55.431  0.00  0.00     0.006 A 
ATOM     13  C   UNL d   1      55.362  33.853  55.393  0.00  0.00     0.001 A 
ENDROOT
BRANCH   3  14
ATOM     14  S   UNL d   1      51.536  33.070  52.949  0.00  0.00    -0.045 SA
BRANCH  14  15
ATOM     15  C   UNL d   1      51.108  33.744  52.753  0.00  0.00     0.093 C 
BRANCH  15  16
ATOM     16  C   UNL d   1      50.379  33.898  53.122  0.00  0.00     0.285 C 
ATOM     17  N   UNL d   1      49.957  34.579  52.935  0.00  0.00    -0.204 NA
ATOM     18  O   UNL d   1      50.084  33.363  53.674  0.00  0.00    -0.265 OA
BRANCH  17  19
ATOM     19  C   UNL d   1      49.238  34.732  53.298  0.00  0.00     0.127 C 
BRANCH  19  20
ATOM     20  C   UNL d   1      48.743  35.322  53.007  0.00  0.00     0.119 A 
ATOM     21  O   UNL d   1      48.388  35.337  52.271  0.00  0.00    -0.304 OA
ATOM     22  C   UNL d   1      47.943  36.025  52.212  0.00  0.00     0.123 A 
ATOM     23  C   UNL d   1      48.023  36.443  52.920  0.00  0.00     0.029 A 
ATOM     24  C   UNL d   1      48.518  36.012  53.419  0.00  0.00     0.028 A 
ENDBRANCH  19  20
ENDBRANCH  17  19
ENDBRANCH  15  16
BRANCH  15  25
ATOM     25  C   UNL d   1      51.396  34.272  52.190  0.00  0.00     0.057 C 
BRANCH  25  26
ATOM     26  C   UNL d   1      51.204  34.156  51.396  0.00  0.00     0.235 C 
ATOM     27  O   UNL d   1      51.634  34.553  50.810  0.00  0.00    -0.283 OA
ENDBRANCH  25  26
ENDBRANCH  15  25
ENDBRANCH  14  15
ENDBRANCH   3  14
BRANCH   5  28
ATOM     28  C   UNL d   1      52.658  31.860  52.863  0.00  0.00     0.085 C 
BRANCH  28  29
ATOM     29  C   UNL d   1      52.806  31.108  53.173  0.00  0.00     0.019 C 
ATOM     30  C   UNL d   1      52.613  30.436  52.734  0.00  0.00     0.002 C 
ENDBRANCH  28  29
ENDBRANCH   5  28
TORSDOF 9
ENDMDL
MODEL 2
REMARK VINA RESULT:      -6.6      1.107      2.584
REMARK  9 active torsions:
REMARK  status: ('A' for Active; 'I' for Inactive)
REMARK    1  A    between atoms: S_10  and  C_3 
REMARK    2  A    between atoms: C_17  and  N_5 
REMARK    3  A    between atoms: C_12  and  S_10 
REMARK    4  A    between atoms: C_11  and  C_12 
REMARK       I    between atoms: N_13  and  C_11 
REMARK    5  A    between atoms: C_26  and  C_12 
REMARK    6  A    between atoms: C_23  and  N_13 
REMARK    7  A    between atoms: C_15  and  C_23 
REMARK    8  A    between atoms: C_22  and  C_17 
REMARK    9  A    between atoms: C_30  and  C_26 
ROOT
ATOM      1  C   UNL d   1      53.208  31.552  53.808  0.00  0.00     0.081 A 
ATOM      2  C   UNL d   1      52.645  31.823  53.267  0.00  0.00     0.117 A 
ATOM      3  C   UNL d   1      52.835  33.158  53.746  0.00  0.00     0.182 A 
ATOM      4  N   UNL d   1      52.459  32.620  53.235  0.00  0.00    -0.215 NA
ATOM      5  N   UNL d   1      53.398  32.882  54.286  0.00  0.00    -0.253 N 
ATOM      6  C   UNL d   1      53.585  32.078  54.317  0.00  0.00     0.268 A 
ATOM      7  S   UNL d   1      52.369  31.177  52.840  0.00  0.00    -0.068 SA
ATOM      8  C   UNL d   1      53.280  30.735  53.716  0.00  0.00     0.013 A 
ATOM      9  C   UNL d   1      52.759  30.507  53.115  0.00  0.00     0.031 A 
ATOM     10  O   UNL d   1      54.147  31.807  54.858  0.00  0.00    -0.267 OA
ATOM     11  C   UNL d   1      53.665  30.062  53.985  0.00  0.00     0.001 A 
ATOM     12  C   UNL d   1      52.827  29.691  53.018  0.00  0.00     0.006 A 
ATOM     13  C   UNL d   1      53.389  29.412  53.557  0.00  0.00     0.001 A 
ENDROOT
BRANCH   3  14
ATOM     14  S   UNL d   1      52.646  33.956  53.711  0.00  0.00    -0.045 SA
BRANCH  14  15
ATOM     15  C   UNL d   1      52.122  34.233  53.142  0.00  0.00     0.093 C 
BRANCH  15  16
ATOM     16  C   UNL d   1      51.395  34.568  53.372  0.00  0.00     0.285 C 
ATOM     17  N   UNL d   1      50.721  34.440  52.920  0.00  0.00    -0.204 NA
ATOM     18  O   UNL d   1      51.359  35.027  54.054  0.00  0.00    -0.265 OA
BRANCH  17  19
ATOM     19  C   UNL d   1      50.004  34.769  53.144  0.00  0.00     0.127 C 
BRANCH  19  20
ATOM     20  C   UNL d   1      49.389  34.834  52.602  0.00  0.00     0.119 A 
ATOM     21  O   UNL d   1      49.323  34.434  51.892  0.00  0.00    -0.304 OA
ATOM     22  C   UNL d   1      48.625  34.664  51.528  0.00  0.00     0.123 A 
ATOM     23  C   UNL d   1      48.250  35.215  52.017  0.00  0.00     0.029 A 
ATOM     24  C   UNL d   1      48.719  35.326  52.686  0.00  0.00     0.028 A 
ENDBRANCH  19  20
ENDBRANCH  17  19
ENDBRANCH  15  16
BRANCH  15  25
ATOM     25  C   UNL d   1      52.309  34.183  52.342  0.00  0.00     0.057 C 
BRANCH  25  26
ATOM     26  C   UNL d   1      52.735  34.797  51.991  0.00  0.00     0.235 C 
ATOM     27  O   UNL d   1      52.859  34.792  51.172  0.00  0.00    -0.283 OA
ENDBRANCH  25  26
ENDBRANCH  15  25
ENDBRANCH  14  15
ENDBRANCH   3  14
BRANCH   5  28
ATOM     28  C   UNL d   1      53.772  33.413  54.793  0.00  0.00     0.085 C 
BRANCH  28  29
ATOM     29  C   UNL d   1      54.597  33.432  54.838  0.00  0.00     0.019 C 
ATOM     30  C   UNL d   1      54.969  33.966  55.347  0.00  0.00     0.002 C 
ENDBRANCH  28  29
ENDBRANCH   5  28
TORSDOF 9
ENDMDL
MODEL 3
REMARK VINA RESULT:      -6.5      0.863      2.275
REMARK  9 active torsions:
REMARK  status: ('A' for Active; 'I' for Inactive)
REMARK    1  A    between atoms: S_10  and  C_3 
REMARK    2  A    between atoms: C_17  and  N_5 
REMARK    3  A    between atoms: C_12  and  S_10 
REMARK    4  A    between atoms: C_11  and  C_12 
REMARK       I    between atoms: N_13  and  C_11 
REMARK    5  A    between atoms: C_26  and  C_12 
REMARK    6  A    between atoms: C_23  and  N_13 
REMARK    7  A    between atoms: C_15  and  C_23 
REMARK    8  A    between atoms: C_22  and  C_17 
REMARK    9  A    between atoms: C_30  and  C_26 
ROOT
ATOM      1  C   UNL d   1      53.112  32.027  53.547  0.00  0.00     0.081 A 
ATOM      2  C   UNL d   1      52.389  31.993  53.148  0.00  0.00     0.117 A 
ATOM      3  C   UNL d   1      52.226  33.403  53.335  0.00  0.00     0.182 A 
ATOM      4  N   UNL d   1      51.948  32.675  53.042  0.00  0.00    -0.215 NA
ATOM      5  N   UNL d   1      52.950  33.432  53.733  0.00  0.00    -0.253 N 
ATOM      6  C   UNL d   1      53.395  32.743  53.840  0.00  0.00     0.268 A 
ATOM      7  S   UNL d   1      52.257  31.213  52.925  0.00  0.00    -0.068 SA
ATOM      8  C   UNL d   1      53.429  31.265  53.571  0.00  0.00     0.013 A 
ATOM      9  C   UNL d   1      52.896  30.765  53.184  0.00  0.00     0.031 A 
ATOM     10  O   UNL d   1      54.117  32.777  54.238  0.00  0.00    -0.267 OA
ATOM     11  C   UNL d   1      54.063  30.810  53.826  0.00  0.00     0.001 A 
ATOM     12  C   UNL d   1      53.207  30.001  53.204  0.00  0.00     0.006 A 
ATOM     13  C   UNL d   1      53.932  30.027  53.602  0.00  0.00     0.001 A 
ENDROOT
BRANCH   3  14
ATOM     14  S   UNL d   1      51.782  34.083  53.226  0.00  0.00    -0.045 SA
BRANCH  14  15
ATOM     15  C   UNL d   1      51.080  34.058  52.799  0.00  0.00     0.093 C 
BRANCH  15  16
ATOM     16  C   UNL d   1      50.351  34.170  53.183  0.00  0.00     0.285 C 
ATOM     17  N   UNL d   1      49.884  34.821  53.000  0.00  0.00    -0.204 NA
ATOM     18  O   UNL d   1      50.104  33.625  53.748  0.00  0.00    -0.265 OA
BRANCH  17  19
ATOM     19  C   UNL d   1      49.165  34.933  53.377  0.00  0.00     0.127 C 
BRANCH  19  20
ATOM     20  C   UNL d   1      48.639  35.506  53.108  0.00  0.00     0.119 A 
ATOM     21  O   UNL d   1      48.280  35.529  52.375  0.00  0.00    -0.304 OA
ATOM     22  C   UNL d   1      47.800  36.195  52.341  0.00  0.00     0.123 A 
ATOM     23  C   UNL d   1      47.862  36.592  53.063  0.00  0.00     0.029 A 
ATOM     24  C   UNL d   1      48.382  36.170  53.545  0.00  0.00     0.028 A 
ENDBRANCH  19  20
ENDBRANCH  17  19
ENDBRANCH  15  16
BRANCH  15  25
ATOM     25  C   UNL d   1      51.093  33.920  51.987  0.00  0.00     0.057 C 
BRANCH  25  26
ATOM     26  C   UNL d   1      51.367  34.514  51.483  0.00  0.00     0.235 C 
ATOM     27  O   UNL d   1      51.203  34.471  50.673  0.00  0.00    -0.283 OA
ENDBRANCH  25  26
ENDBRANCH  15  25
ENDBRANCH  14  15
ENDBRANCH   3  14
BRANCH   5  28
ATOM     28  C   UNL d   1      53.228  34.151  54.024  0.00  0.00     0.085 C 
BRANCH  28  29
ATOM     29  C   UNL d   1      53.439  34.224  54.819  0.00  0.00     0.019 C 
ATOM     30  C   UNL d   1      53.653  34.961  55.124  0.00  0.00     0.002 C 
ENDBRANCH  28  29
ENDBRANCH   5  28
TORSDOF 9
ENDMDL
MODEL 4
REMARK VINA RESULT:      -6.3      1.726      5.068
REMARK  9 active torsions:
REMARK  status: ('A' for Active; 'I' for Inactive)
REMARK    1  A    between atoms: S_10  and  C_3 
REMARK    2  A    between atoms: C_17  and  N_5 
REMARK    3  A    between atoms: C_12  and  S_10 
REMARK    4  A    between atoms: C_11  and  C_12 
REMARK       I    between atoms: N_13  and  C_11 
REMARK    5  A    between atoms: C_26  and  C_12 
REMARK    6  A    between atoms: C_23  and  N_13 
REMARK    7  A    between atoms: C_15  and  C_23 
REMARK    8  A    between atoms: C_22  and  C_17 
REMARK    9  A    between atoms: C_30  and  C_26 
ROOT
ATOM      1  C   UNL d   1      51.464  34.316  53.191  0.00  0.00     0.081 A 
ATOM      2  C   UNL d   1      51.809  33.591  52.993  0.00  0.00     0.117 A 
ATOM      3  C   UNL d   1      52.869  33.849  53.921  0.00  0.00     0.182 A 
ATOM      4  N   UNL d   1      52.506  33.358  53.355  0.00  0.00    -0.215 NA
ATOM      5  N   UNL d   1      52.520  34.574  54.115  0.00  0.00    -0.253 N 
ATOM      6  C   UNL d   1      51.816  34.808  53.749  0.00  0.00     0.268 A 
ATOM      7  S   UNL d   1      51.336  33.230  52.428  0.00  0.00    -0.068 SA
ATOM      8  C   UNL d   1      50.775  34.403  52.745  0.00  0.00     0.013 A 
ATOM      9  C   UNL d   1      50.700  33.728  52.274  0.00  0.00     0.031 A 
ATOM     10  O   UNL d   1      51.471  35.532  53.946  0.00  0.00    -0.267 OA
ATOM     11  C   UNL d   1      50.137  34.894  52.586  0.00  0.00     0.001 A 
ATOM     12  C   UNL d   1      50.012  33.807  51.825  0.00  0.00     0.006 A 
ATOM     13  C   UNL d   1      49.661  34.532  52.017  0.00  0.00     0.001 A 
ENDROOT
BRANCH   3  14
ATOM     14  S   UNL d   1      53.566  33.613  54.280  0.00  0.00    -0.045 SA
BRANCH  14  15
ATOM     15  C   UNL d   1      53.942  32.921  54.043  0.00  0.00     0.093 C 
BRANCH  15  16
ATOM     16  C   UNL d   1      53.845  32.221  54.481  0.00  0.00     0.285 C 
ATOM     17  N   UNL d   1      53.665  31.516  54.098  0.00  0.00    -0.204 NA
ATOM     18  O   UNL d   1      53.929  32.241  55.300  0.00  0.00    -0.265 OA
BRANCH  17  19
ATOM     19  C   UNL d   1      53.569  30.824  54.529  0.00  0.00     0.127 C 
BRANCH  19  20
ATOM     20  C   UNL d   1      53.295  30.141  54.161  0.00  0.00     0.119 A 
ATOM     21  O   UNL d   1      52.902  30.099  53.446  0.00  0.00    -0.304 OA
ATOM     22  C   UNL d   1      52.732  29.311  53.289  0.00  0.00     0.123 A 
ATOM     23  C   UNL d   1      53.024  28.856  53.914  0.00  0.00     0.029 A 
ATOM     24  C   UNL d   1      53.376  29.365  54.460  0.00  0.00     0.028 A 
ENDBRANCH  19  20
ENDBRANCH  17  19
ENDBRANCH  15  16
BRANCH  15  25
ATOM     25  C   UNL d   1      54.417  32.915  53.371  0.00  0.00     0.057 C 
BRANCH  25  26
ATOM     26  C   UNL d   1      55.217  33.105  53.443  0.00  0.00     0.235 C 
ATOM     27  O   UNL d   1      55.704  33.087  52.773  0.00  0.00    -0.283 OA
ENDBRANCH  25  26
ENDBRANCH  15  25
ENDBRANCH  14  15
ENDBRANCH   3  14
BRANCH   5  28
ATOM     28  C   UNL d   1      52.877  35.062  54.675  0.00  0.00     0.085 C 
BRANCH  28  29
ATOM     29  C   UNL d   1      53.082  35.838  54.478  0.00  0.00     0.019 C 
ATOM     30  C   UNL d   1      53.443  36.324  55.039  0.00  0.00     0.002 C 
ENDBRANCH  28  29
ENDBRANCH   5  28
TORSDOF 9
ENDMDL
