MODEL 1
REMARK VINA RESULT:      -6.2      0.000      0.000
REMARK  6 active torsions:
REMARK  status: ('A' for Active; 'I' for Inactive)
REMARK    1  A    between atoms: C_6  and  N_2 
REMARK    2  A    between atoms: C_7  and  C_3 
REMARK    3  A    between atoms: C_8  and  C_6 
REMARK    4  A    between atoms: C_14  and  C_8 
REMARK    5  A    between atoms: C_9  and  O_12 
REMARK    6  A    between atoms: O_12  and  C_14 
ROOT
ATOM      1  N   UNL d   1     -50.896  13.355  23.698  0.00  0.00    -0.224 NA
ATOM      2  N   UNL d   1     -49.613  13.365  23.319  0.00  0.00    -0.286 N 
ATOM      3  C   UNL d   1     -50.243  12.857  23.533  0.00  0.00     0.191 A 
ATOM      4  C   UNL d   1     -49.871  14.141  23.351  0.00  0.00     0.083 A 
ATOM      5  C   UNL d   1     -50.700  14.134  23.596  0.00  0.00     0.099 A 
ATOM      6  C   UNL d   1     -49.484  14.841  23.199  0.00  0.00     0.019 A 
ATOM      7  C   UNL d   1     -51.064  14.882  23.662  0.00  0.00     0.021 A 
ATOM      8  C   UNL d   1     -49.902  15.530  23.283  0.00  0.00     0.002 A 
ATOM      9  C   UNL d   1     -50.677  15.524  23.511  0.00  0.00     0.002 A 
ENDROOT
BRANCH   2  10
ATOM     10  C   UNL d   1     -48.935  12.982  23.141  0.00  0.00     0.084 C 
BRANCH  10  11
ATOM     11  C   UNL d   1     -48.190  13.317  23.256  0.00  0.00     0.046 C 
BRANCH  11  12
ATOM     12  C   UNL d   1     -47.493  12.956  23.027  0.00  0.00     0.124 C 
BRANCH  12  13
ATOM     13  O   UNL d   1     -46.756  13.213  23.268  0.00  0.00    -0.305 OA
BRANCH  13  14
ATOM     14  C   UNL d   1     -46.054  13.000  22.892  0.00  0.00     0.100 A 
ATOM     15  C   UNL d   1     -45.647  12.299  23.046  0.00  0.00     0.025 A 
ATOM     16  C   UNL d   1     -44.947  12.087  22.669  0.00  0.00     0.002 A 
ATOM     17  C   UNL d   1     -44.630  12.611  22.097  0.00  0.00     0.000 A 
ATOM     18  C   UNL d   1     -45.025  13.328  21.923  0.00  0.00     0.002 A 
ATOM     19  C   UNL d   1     -45.737  13.524  22.320  0.00  0.00     0.025 A 
ENDBRANCH  13  14
ENDBRANCH  12  13
ENDBRANCH  11  12
ENDBRANCH  10  11
ENDBRANCH   2  10
BRANCH   3  20
ATOM     20  C   UNL d   1     -49.826  12.168  23.449  0.00  0.00     0.271 C 
ATOM     21  O   UNL d   1     -50.234  11.436  23.504  0.00  0.00    -0.280 OA
ENDBRANCH   3  20
TORSDOF 6
ENDMDL
MODEL 2
REMARK VINA RESULT:      -6.2      1.365      1.877
REMARK  6 active torsions:
REMARK  status: ('A' for Active; 'I' for Inactive)
REMARK    1  A    between atoms: C_6  and  N_2 
REMARK    2  A    between atoms: C_7  and  C_3 
REMARK    3  A    between atoms: C_8  and  C_6 
REMARK    4  A    between atoms: C_14  and  C_8 
REMARK    5  A    between atoms: C_9  and  O_12 
REMARK    6  A    between atoms: O_12  and  C_14 
ROOT
ATOM      1  N   UNL d   1     -49.637  13.256  22.594  0.00  0.00    -0.224 NA
ATOM      2  N   UNL d   1     -48.387  12.932  22.944  0.00  0.00    -0.286 N 
ATOM      3  C   UNL d   1     -49.158  12.618  22.848  0.00  0.00     0.191 A 
ATOM      4  C   UNL d   1     -48.395  13.728  22.756  0.00  0.00     0.083 A 
ATOM      5  C   UNL d   1     -49.203  13.938  22.529  0.00  0.00     0.099 A 
ATOM      6  C   UNL d   1     -47.802  14.285  22.755  0.00  0.00     0.019 A 
ATOM      7  C   UNL d   1     -49.324  14.735  22.315  0.00  0.00     0.021 A 
ATOM      8  C   UNL d   1     -47.992  15.041  22.536  0.00  0.00     0.002 A 
ATOM      9  C   UNL d   1     -48.747  15.237  22.324  0.00  0.00     0.002 A 
ENDROOT
BRANCH   2  10
ATOM     10  C   UNL d   1     -47.848  12.395  23.189  0.00  0.00     0.084 C 
BRANCH  10  11
ATOM     11  C   UNL d   1     -47.036  12.534  23.159  0.00  0.00     0.046 C 
BRANCH  11  12
ATOM     12  C   UNL d   1     -46.475  11.977  23.370  0.00  0.00     0.124 C 
BRANCH  12  13
ATOM     13  O   UNL d   1     -45.684  12.045  23.179  0.00  0.00    -0.305 OA
BRANCH  13  14
ATOM     14  C   UNL d   1     -45.143  11.427  23.256  0.00  0.00     0.100 A 
ATOM     15  C   UNL d   1     -45.319  10.709  23.620  0.00  0.00     0.025 A 
ATOM     16  C   UNL d   1     -44.779  10.093  23.696  0.00  0.00     0.002 A 
ATOM     17  C   UNL d   1     -44.008  10.201  23.387  0.00  0.00     0.000 A 
ATOM     18  C   UNL d   1     -43.805  10.922  23.013  0.00  0.00     0.002 A 
ATOM     19  C   UNL d   1     -44.372  11.536  22.947  0.00  0.00     0.025 A 
ENDBRANCH  13  14
ENDBRANCH  12  13
ENDBRANCH  11  12
ENDBRANCH  10  11
ENDBRANCH   2  10
BRANCH   3  20
ATOM     20  C   UNL d   1     -48.968  11.862  23.068  0.00  0.00     0.271 C 
ATOM     21  O   UNL d   1     -49.584  11.299  23.162  0.00  0.00    -0.280 OA
ENDBRANCH   3  20
TORSDOF 6
ENDMDL
MODEL 3
REMARK VINA RESULT:      -6.1      1.167      1.937
REMARK  6 active torsions:
REMARK  status: ('A' for Active; 'I' for Inactive)
REMARK    1  A    between atoms: C_6  and  N_2 
REMARK    2  A    between atoms: C_7  and  C_3 
REMARK    3  A    between atoms: C_8  and  C_6 
REMARK    4  A    between atoms: C_14  and  C_8 
REMARK    5  A    between atoms: C_9  and  O_12 
REMARK    6  A    between atoms: O_12  and  C_14 
ROOT
ATOM      1  N   UNL d   1     -50.834  14.055  23.489  0.00  0.00    -0.224 NA
ATOM      2  N   UNL d   1     -49.575  13.927  23.056  0.00  0.00    -0.286 N 
ATOM      3  C   UNL d   1     -50.172  14.491  23.218  0.00  0.00     0.191 A 
ATOM      4  C   UNL d   1     -49.860  13.178  23.220  0.00  0.00     0.083 A 
ATOM      5  C   UNL d   1     -50.675  13.261  23.500  0.00  0.00     0.099 A 
ATOM      6  C   UNL d   1     -49.511  12.445  23.160  0.00  0.00     0.019 A 
ATOM      7  C   UNL d   1     -51.064  12.549  23.698  0.00  0.00     0.021 A 
ATOM      8  C   UNL d   1     -49.950  11.798  23.370  0.00  0.00     0.002 A 
ATOM      9  C   UNL d   1     -50.710  11.875  23.631  0.00  0.00     0.002 A 
ENDROOT
BRANCH   2  10
ATOM     10  C   UNL d   1     -48.893  14.245  22.788  0.00  0.00     0.084 C 
BRANCH  10  11
ATOM     11  C   UNL d   1     -48.162  14.093  23.138  0.00  0.00     0.046 C 
BRANCH  11  12
ATOM     12  C   UNL d   1     -47.451  14.130  22.734  0.00  0.00     0.124 C 
BRANCH  12  13
ATOM     13  O   UNL d   1     -46.725  14.058  23.100  0.00  0.00    -0.305 OA
BRANCH  13  14
ATOM     14  C   UNL d   1     -46.135  13.544  22.841  0.00  0.00     0.100 A 
ATOM     15  C   UNL d   1     -45.988  12.807  23.180  0.00  0.00     0.025 A 
ATOM     16  C   UNL d   1     -45.399  12.295  22.921  0.00  0.00     0.002 A 
ATOM     17  C   UNL d   1     -44.922  12.535  22.275  0.00  0.00     0.000 A 
ATOM     18  C   UNL d   1     -45.051  13.278  21.913  0.00  0.00     0.002 A 
ATOM     19  C   UNL d   1     -45.658  13.784  22.195  0.00  0.00     0.025 A 
ENDBRANCH  13  14
ENDBRANCH  12  13
ENDBRANCH  11  12
ENDBRANCH  10  11
ENDBRANCH   2  10
BRANCH   3  20
ATOM     20  C   UNL d   1     -49.733  15.138  23.008  0.00  0.00     0.271 C 
ATOM     21  O   UNL d   1     -50.064  15.904  23.110  0.00  0.00    -0.280 OA
ENDBRANCH   3  20
TORSDOF 6
ENDMDL
MODEL 4
REMARK VINA RESULT:      -5.8      1.719      2.448
REMARK  6 active torsions:
REMARK  status: ('A' for Active; 'I' for Inactive)
REMARK    1  A    between atoms: C_6  and  N_2 
REMARK    2  A    between atoms: C_7  and  C_3 
REMARK    3  A    between atoms: C_8  and  C_6 
REMARK    4  A    between atoms: C_14  and  C_8 
REMARK    5  A    between atoms: C_9  and  O_12 
REMARK    6  A    between atoms: O_12  and  C_14 
ROOT
ATOM      1  N   UNL d   1     -49.503  13.686  23.074  0.00  0.00    -0.224 NA
ATOM      2  N   UNL d   1     -48.458  12.854  23.142  0.00  0.00    -0.286 N 
ATOM      3  C   UNL d   1     -48.672  13.646  22.976  0.00  0.00     0.191 A 
ATOM      4  C   UNL d   1     -49.130  12.428  23.333  0.00  0.00     0.083 A 
ATOM      5  C   UNL d   1     -49.805  12.966  23.289  0.00  0.00     0.099 A 
ATOM      6  C   UNL d   1     -49.229  11.646  23.537  0.00  0.00     0.019 A 
ATOM      7  C   UNL d   1     -50.548  12.630  23.467  0.00  0.00     0.021 A 
ATOM      8  C   UNL d   1     -49.981  11.390  23.697  0.00  0.00     0.002 A 
ATOM      9  C   UNL d   1     -50.612  11.892  23.656  0.00  0.00     0.002 A 
ENDROOT
BRANCH   2  10
ATOM     10  C   UNL d   1     -47.674  12.710  23.076  0.00  0.00     0.084 C 
BRANCH  10  11
ATOM     11  C   UNL d   1     -47.282  12.158  23.546  0.00  0.00     0.046 C 
BRANCH  11  12
ATOM     12  C   UNL d   1     -46.492  11.966  23.452  0.00  0.00     0.124 C 
BRANCH  12  13
ATOM     13  O   UNL d   1     -46.186  11.230  23.631  0.00  0.00    -0.305 OA
BRANCH  13  14
ATOM     14  C   UNL d   1     -45.403  11.016  23.487  0.00  0.00     0.100 A 
ATOM     15  C   UNL d   1     -45.083  10.286  23.696  0.00  0.00     0.025 A 
ATOM     16  C   UNL d   1     -44.301  10.073  23.552  0.00  0.00     0.002 A 
ATOM     17  C   UNL d   1     -43.802  10.630  23.173  0.00  0.00     0.000 A 
ATOM     18  C   UNL d   1     -44.104  11.378  22.951  0.00  0.00     0.002 A 
ATOM     19  C   UNL d   1     -44.905  11.573  23.108  0.00  0.00     0.025 A 
ENDBRANCH  13  14
ENDBRANCH  12  13
ENDBRANCH  11  12
ENDBRANCH  10  11
ENDBRANCH   2  10
BRANCH   3  20
ATOM     20  C   UNL d   1     -47.920  13.903  22.816  0.00  0.00     0.271 C 
ATOM     21  O   UNL d   1     -47.795  14.717  22.654  0.00  0.00    -0.280 OA
ENDBRANCH   3  20
TORSDOF 6
ENDMDL
MODEL 5
REMARK VINA RESULT:      -5.5      1.667      4.669
REMARK  6 active torsions:
REMARK  status: ('A' for Active; 'I' for Inactive)
REMARK    1  A    between atoms: C_6  and  N_2 
REMARK    2  A    between atoms: C_7  and  C_3 
REMARK    3  A    between atoms: C_8  and  C_6 
REMARK    4  A    between atoms: C_14  and  C_8 
REMARK    5  A    between atoms: C_9  and  O_12 
REMARK    6  A    between atoms: O_12  and  C_14 
ROOT
ATOM      1  N   UNL d   1     -45.715  11.534  23.096  0.00  0.00    -0.224 NA
ATOM      2  N   UNL d   1     -46.598  12.540  23.068  0.00  0.00    -0.286 N 
ATOM      3  C   UNL d   1     -46.484  11.757  23.343  0.00  0.00     0.191 A 
ATOM      4  C   UNL d   1     -45.926  12.785  22.670  0.00  0.00     0.083 A 
ATOM      5  C   UNL d   1     -45.356  12.135  22.689  0.00  0.00     0.099 A 
ATOM      6  C   UNL d   1     -45.749  13.488  22.300  0.00  0.00     0.019 A 
ATOM      7  C   UNL d   1     -44.628  12.282  22.307  0.00  0.00     0.021 A 
ATOM      8  C   UNL d   1     -45.022  13.559  21.951  0.00  0.00     0.002 A 
ATOM      9  C   UNL d   1     -44.489  12.952  21.968  0.00  0.00     0.002 A 
ENDROOT
BRANCH   2  10
ATOM     10  C   UNL d   1     -47.311  12.848  23.254  0.00  0.00     0.084 C 
BRANCH  10  11
ATOM     11  C   UNL d   1     -47.570  13.577  22.970  0.00  0.00     0.046 C 
BRANCH  11  12
ATOM     12  C   UNL d   1     -48.295  13.905  23.161  0.00  0.00     0.124 C 
BRANCH  12  13
ATOM     13  O   UNL d   1     -48.566  14.606  22.843  0.00  0.00    -0.305 OA
BRANCH  13  14
ATOM     14  C   UNL d   1     -49.359  14.831  22.849  0.00  0.00     0.100 A 
ATOM     15  C   UNL d   1     -49.925  14.530  22.331  0.00  0.00     0.025 A 
ATOM     16  C   UNL d   1     -50.716  14.755  22.338  0.00  0.00     0.002 A 
ATOM     17  C   UNL d   1     -50.961  15.322  22.904  0.00  0.00     0.000 A 
ATOM     18  C   UNL d   1     -50.406  15.643  23.442  0.00  0.00     0.002 A 
ATOM     19  C   UNL d   1     -49.605  15.398  23.416  0.00  0.00     0.025 A 
ENDBRANCH  13  14
ENDBRANCH  12  13
ENDBRANCH  11  12
ENDBRANCH  10  11
ENDBRANCH   2  10
BRANCH   3  20
ATOM     20  C   UNL d   1     -47.211  11.686  23.692  0.00  0.00     0.271 C 
ATOM     21  O   UNL d   1     -47.594  10.938  23.686  0.00  0.00    -0.280 OA
ENDBRANCH   3  20
TORSDOF 6
ENDMDL
MODEL 6
REMARK VINA RESULT:      -5.0      9.579     10.132
REMARK  6 active torsions:
REMARK  status: ('A' for Active; 'I' for Inactive)
REMARK    1  A    between atoms: C_6  and  N_2 
REMARK    2  A    between atoms: C_7  and  C_3 
REMARK    3  A    between atoms: C_8  and  C_6 
REMARK    4  A    between atoms: C_14  and  C_8 
REMARK    5  A    between atoms: C_9  and  O_12 
REMARK    6  A    between atoms: O_12  and  C_14 
ROOT
ATOM      1  N   UNL d   1     -39.784  14.041  17.095  0.00  0.00    -0.224 NA
ATOM      2  N   UNL d   1     -39.524  14.276  18.386  0.00  0.00    -0.286 N 
ATOM      3  C   UNL d   1     -39.338  13.765  17.748  0.00  0.00     0.191 A 
ATOM      4  C   UNL d   1     -40.061  14.838  18.133  0.00  0.00     0.083 A 
ATOM      5  C   UNL d   1     -40.229  14.687  17.298  0.00  0.00     0.099 A 
ATOM      6  C   UNL d   1     -40.417  15.456  18.527  0.00  0.00     0.019 A 
ATOM      7  C   UNL d   1     -40.771  15.209  16.938  0.00  0.00     0.021 A 
ATOM      8  C   UNL d   1     -40.933  15.922  18.112  0.00  0.00     0.002 A 
ATOM      9  C   UNL d   1     -41.090  15.780  17.332  0.00  0.00     0.002 A 
ENDROOT
BRANCH   2  10
ATOM     10  C   UNL d   1     -39.144  14.095  19.065  0.00  0.00     0.084 C 
BRANCH  10  11
ATOM     11  C   UNL d   1     -39.513  14.120  19.802  0.00  0.00     0.046 C 
BRANCH  11  12
ATOM     12  C   UNL d   1     -39.110  14.048  20.511  0.00  0.00     0.124 C 
BRANCH  12  13
ATOM     13  O   UNL d   1     -39.485  13.998  21.235  0.00  0.00    -0.305 OA
BRANCH  13  14
ATOM     14  C   UNL d   1     -39.083  13.982  21.955  0.00  0.00     0.100 A 
ATOM     15  C   UNL d   1     -38.698  13.315  22.249  0.00  0.00     0.025 A 
ATOM     16  C   UNL d   1     -38.297  13.301  22.967  0.00  0.00     0.002 A 
ATOM     17  C   UNL d   1     -38.278  14.003  23.425  0.00  0.00     0.000 A 
ATOM     18  C   UNL d   1     -38.661  14.693  23.147  0.00  0.00     0.002 A 
ATOM     19  C   UNL d   1     -39.064  14.684  22.412  0.00  0.00     0.025 A 
ENDBRANCH  13  14
ENDBRANCH  12  13
ENDBRANCH  11  12
ENDBRANCH  10  11
ENDBRANCH   2  10
BRANCH   3  20
ATOM     20  C   UNL d   1     -38.822  13.299  18.163  0.00  0.00     0.271 C 
ATOM     21  O   UNL d   1     -38.427  12.675  17.763  0.00  0.00    -0.280 OA
ENDBRANCH   3  20
TORSDOF 6
ENDMDL
MODEL 7
REMARK VINA RESULT:      -3.7      9.756     10.971
REMARK  6 active torsions:
REMARK  status: ('A' for Active; 'I' for Inactive)
REMARK    1  A    between atoms: C_6  and  N_2 
REMARK    2  A    between atoms: C_7  and  C_3 
REMARK    3  A    between atoms: C_8  and  C_6 
REMARK    4  A    between atoms: C_14  and  C_8 
REMARK    5  A    between atoms: C_9  and  O_12 
REMARK    6  A    between atoms: O_12  and  C_14 
ROOT
ATOM      1  N   UNL d   1     -39.710  14.979  16.622  0.00  0.00    -0.224 NA
ATOM      2  N   UNL d   1     -39.407  14.394  17.786  0.00  0.00    -0.286 N 
ATOM      3  C   UNL d   1     -39.912  14.962  17.434  0.00  0.00     0.191 A 
ATOM      4  C   UNL d   1     -38.917  14.078  17.213  0.00  0.00     0.083 A 
ATOM      5  C   UNL d   1     -39.112  14.456  16.460  0.00  0.00     0.099 A 
ATOM      6  C   UNL d   1     -38.332  13.514  17.259  0.00  0.00     0.019 A 
ATOM      7  C   UNL d   1     -38.666  14.204  15.802  0.00  0.00     0.021 A 
ATOM      8  C   UNL d   1     -37.939  13.319  16.578  0.00  0.00     0.002 A 
ATOM      9  C   UNL d   1     -38.122  13.672  15.875  0.00  0.00     0.002 A 
ENDROOT
BRANCH   2  10
ATOM     10  C   UNL d   1     -39.523  14.301  18.572  0.00  0.00     0.084 C 
BRANCH  10  11
ATOM     11  C   UNL d   1     -38.903  14.187  19.103  0.00  0.00     0.046 C 
BRANCH  11  12
ATOM     12  C   UNL d   1     -39.013  14.024  19.897  0.00  0.00     0.124 C 
BRANCH  12  13
ATOM     13  O   UNL d   1     -38.432  14.130  20.460  0.00  0.00    -0.305 OA
BRANCH  13  14
ATOM     14  C   UNL d   1     -38.496  13.861  21.237  0.00  0.00     0.100 A 
ATOM     15  C   UNL d   1     -39.078  14.116  21.763  0.00  0.00     0.025 A 
ATOM     16  C   UNL d   1     -39.142  13.847  22.537  0.00  0.00     0.002 A 
ATOM     17  C   UNL d   1     -38.586  13.281  22.807  0.00  0.00     0.000 A 
ATOM     18  C   UNL d   1     -37.986  13.005  22.292  0.00  0.00     0.002 A 
ATOM     19  C   UNL d   1     -37.941  13.295  21.506  0.00  0.00     0.025 A 
ENDBRANCH  13  14
ENDBRANCH  12  13
ENDBRANCH  11  12
ENDBRANCH  10  11
ENDBRANCH   2  10
BRANCH   3  20
ATOM     20  C   UNL d   1     -40.304  15.157  18.115  0.00  0.00     0.271 C 
ATOM     21  O   UNL d   1     -40.938  15.707  18.076  0.00  0.00    -0.280 OA
ENDBRANCH   3  20
TORSDOF 6
ENDMDL
