MODEL 1
REMARK VINA RESULT:      -0.9      0.000      0.000
REMARK  6 active torsions:
REMARK  status: ('A' for Active; 'I' for Inactive)
REMARK    1  A    between atoms: C_18  and  N_5 
REMARK    2  A    between atoms: S_11  and  C_6 
REMARK    3  A    between atoms: C_10  and  C_12 
REMARK    4  A    between atoms: C_15  and  S_11 
REMARK    5  A    between atoms: C_12  and  C_15 
REMARK    6  A    between atoms: C_21  and  C_18 
ROOT
ATOM      1  C   UNL d   1      29.904  16.594 -24.446  0.00  0.00     0.081 A 
ATOM      2  C   UNL d   1      29.945  17.351 -24.145  0.00  0.00     0.117 A 
ATOM      3  N   UNL d   1      30.658  17.763 -24.159  0.00  0.00    -0.215 NA
ATOM      4  C   UNL d   1      30.617  16.251 -24.773  0.00  0.00     0.268 A 
ATOM      5  N   UNL d   1      31.304  16.680 -24.775  0.00  0.00    -0.253 N 
ATOM      6  C   UNL d   1      31.323  17.395 -24.484  0.00  0.00     0.182 A 
ATOM      7  S   UNL d   1      29.197  17.524 -23.878  0.00  0.00    -0.068 SA
ATOM      8  C   UNL d   1      29.166  16.331 -24.363  0.00  0.00     0.013 A 
ATOM      9  C   UNL d   1      28.707  16.936 -23.994  0.00  0.00     0.031 A 
ATOM     10  O   UNL d   1      30.587  15.453 -25.096  0.00  0.00    -0.267 OA
ATOM     11  C   UNL d   1      28.914  15.565 -24.614  0.00  0.00     0.001 C 
ATOM     12  C   UNL d   1      27.887  16.900 -23.796  0.00  0.00     0.007 C 
ENDROOT
BRANCH   6  13
ATOM     13  S   UNL d   1      32.038  17.828 -24.491  0.00  0.00    -0.046 SA
BRANCH  13  14
ATOM     14  C   UNL d   1      32.079  18.586 -24.125  0.00  0.00     0.081 C 
BRANCH  14  15
ATOM     15  C   UNL d   1      32.687  19.106 -24.291  0.00  0.00     0.208 C 
ATOM     16  O   UNL d   1      33.123  19.042 -24.998  0.00  0.00    -0.285 OA
BRANCH  15  17
ATOM     17  C   UNL d   1      32.880  19.682 -23.792  0.00  0.00     0.069 A 
ATOM     18  S   UNL d   1      33.042  20.474 -24.052  0.00  0.00    -0.083 SA
ATOM     19  C   UNL d   1      33.224  20.926 -23.387  0.00  0.00     0.035 A 
ATOM     20  C   UNL d   1      33.187  20.462 -22.715  0.00  0.00     0.008 A 
ATOM     21  C   UNL d   1      32.986  19.725 -22.930  0.00  0.00     0.010 A 
ENDBRANCH  15  17
ENDBRANCH  14  15
ENDBRANCH  13  14
ENDBRANCH   6  13
BRANCH   5  22
ATOM     22  C   UNL d   1      31.993  16.373 -25.080  0.00  0.00     0.085 C 
BRANCH  22  23
ATOM     23  C   UNL d   1      32.461  15.856 -24.640  0.00  0.00     0.019 C 
ATOM     24  C   UNL d   1      33.113  15.465 -24.968  0.00  0.00     0.002 C 
ENDBRANCH  22  23
ENDBRANCH   5  22
TORSDOF 6
ENDMDL
MODEL 2
REMARK VINA RESULT:      -0.6      3.509      6.398
REMARK  6 active torsions:
REMARK  status: ('A' for Active; 'I' for Inactive)
REMARK    1  A    between atoms: C_18  and  N_5 
REMARK    2  A    between atoms: S_11  and  C_6 
REMARK    3  A    between atoms: C_10  and  C_12 
REMARK    4  A    between atoms: C_15  and  S_11 
REMARK    5  A    between atoms: C_12  and  C_15 
REMARK    6  A    between atoms: C_21  and  C_18 
ROOT
ATOM      1  C   UNL d   1      32.650  22.648 -20.290  0.00  0.00     0.081 A 
ATOM      2  C   UNL d   1      33.055  21.940 -20.290  0.00  0.00     0.117 A 
ATOM      3  N   UNL d   1      33.191  21.542 -20.998  0.00  0.00    -0.215 NA
ATOM      4  C   UNL d   1      32.376  22.956 -21.041  0.00  0.00     0.268 A 
ATOM      5  N   UNL d   1      32.524  22.542 -21.722  0.00  0.00    -0.253 N 
ATOM      6  C   UNL d   1      32.910  21.873 -21.701  0.00  0.00     0.182 A 
ATOM      7  S   UNL d   1      33.241  21.791 -19.513  0.00  0.00    -0.068 SA
ATOM      8  C   UNL d   1      32.598  22.907 -19.549  0.00  0.00     0.013 A 
ATOM      9  C   UNL d   1      32.982  22.350 -19.044  0.00  0.00     0.031 A 
ATOM     10  O   UNL d   1      31.947  23.702 -21.056  0.00  0.00    -0.267 OA
ATOM     11  C   UNL d   1      32.214  23.628 -19.333  0.00  0.00     0.001 C 
ATOM     12  C   UNL d   1      33.064  22.398 -18.205  0.00  0.00     0.007 C 
ENDROOT
BRANCH   6  13
ATOM     13  S   UNL d   1      33.057  21.456 -22.410  0.00  0.00    -0.046 SA
BRANCH  13  14
ATOM     14  C   UNL d   1      33.240  20.634 -22.389  0.00  0.00     0.081 C 
BRANCH  14  15
ATOM     15  C   UNL d   1      33.151  20.160 -23.048  0.00  0.00     0.208 C 
ATOM     16  O   UNL d   1      33.053  20.496 -23.805  0.00  0.00    -0.285 OA
BRANCH  15  17
ATOM     17  C   UNL d   1      33.155  19.376 -22.993  0.00  0.00     0.069 A 
ATOM     18  S   UNL d   1      33.072  18.872 -23.670  0.00  0.00    -0.083 SA
ATOM     19  C   UNL d   1      33.101  18.091 -23.409  0.00  0.00     0.035 A 
ATOM     20  C   UNL d   1      33.199  18.071 -22.598  0.00  0.00     0.008 A 
ATOM     21  C   UNL d   1      33.233  18.817 -22.331  0.00  0.00     0.010 A 
ENDBRANCH  15  17
ENDBRANCH  14  15
ENDBRANCH  13  14
ENDBRANCH   6  13
BRANCH   5  22
ATOM     22  C   UNL d   1      32.274  22.816 -22.445  0.00  0.00     0.085 C 
BRANCH  22  23
ATOM     23  C   UNL d   1      32.764  23.282 -22.918  0.00  0.00     0.019 C 
ATOM     24  C   UNL d   1      32.561  23.488 -23.694  0.00  0.00     0.002 C 
ENDBRANCH  22  23
ENDBRANCH   5  22
TORSDOF 6
ENDMDL
