MODEL 1
REMARK VINA RESULT:      75.3      0.000      0.000
REMARK  6 active torsions:
REMARK  status: ('A' for Active; 'I' for Inactive)
REMARK    1  A    between atoms: N_6  and  S_1 
REMARK    2  A    between atoms: C_7  and  S_1 
REMARK       I    between atoms: C_2  and  N_4 
REMARK    3  A    between atoms: C_8  and  C_2 
REMARK    4  A    between atoms: C_3  and  C_12 
REMARK       I    between atoms: N_5  and  C_3 
REMARK    5  A    between atoms: C_23  and  N_6 
REMARK    6  A    between atoms: O_29  and  C_26 
ROOT
ATOM      1  C   UNL d   1     -48.344  28.076  35.177  0.00  0.00     0.057 A 
ATOM      2  C   UNL d   1     -48.921  27.166  33.930  0.00  0.00     0.094 A 
ATOM      3  C   UNL d   1     -49.047  28.288  34.794  0.00  0.00     0.006 A 
ATOM      4  C   UNL d   1     -47.930  27.408  34.934  0.00  0.00     0.006 A 
ATOM      5  C   UNL d   1     -49.332  27.826  34.167  0.00  0.00     0.020 A 
ATOM      6  C   UNL d   1     -48.220  26.952  34.309  0.00  0.00     0.020 A 
ENDROOT
BRANCH   1   7
ATOM      7  C   UNL d   1     -48.054  28.538  35.807  0.00  0.00     0.265 C 
ATOM      8  N   UNL d   1     -47.886  29.343  35.697  0.00  0.00    -0.269 N 
ATOM      9  C   UNL d   1     -47.599  29.800  36.323  0.00  0.00     0.102 A 
ATOM     10  C   UNL d   1     -48.007  29.691  34.958  0.00  0.00     0.102 A 
ATOM     11  C   UNL d   1     -47.435  30.599  36.208  0.00  0.00     0.102 A 
ATOM     12  N   UNL d   1     -47.560  30.934  35.465  0.00  0.00    -0.267 N 
ATOM     13  C   UNL d   1     -47.397  31.731  35.346  0.00  0.00     0.288 C 
ATOM     14  C   UNL d   1     -47.844  30.484  34.843  0.00  0.00     0.102 A 
ATOM     15  O   UNL d   1     -47.108  32.190  35.975  0.00  0.00    -0.264 OA
ATOM     16  O   UNL d   1     -47.933  28.188  36.549  0.00  0.00    -0.267 OA
BRANCH  13  17
ATOM     17  C   UNL d   1     -47.517  32.073  34.614  0.00  0.00     0.156 A 
ATOM     18  O   UNL d   1     -47.632  31.673  33.895  0.00  0.00    -0.300 OA
ATOM     19  C   UNL d   1     -47.730  32.236  33.306  0.00  0.00     0.123 A 
ATOM     20  C   UNL d   1     -47.678  32.986  33.645  0.00  0.00     0.029 A 
ATOM     21  C   UNL d   1     -47.546  32.886  34.453  0.00  0.00     0.032 A 
ENDBRANCH  13  17
ENDBRANCH   1   7
BRANCH   2  22
ATOM     22  N   UNL d   1     -49.207  26.708  33.306  0.00  0.00    -0.158 NA
BRANCH  22  23
ATOM     23  S   UNL d   1     -49.973  26.425  33.329  0.00  0.00     0.285 S 
ATOM     24  O   UNL d   1     -49.689  25.650  33.342  0.00  0.00    -0.198 OA
ATOM     25  O   UNL d   1     -50.264  27.195  33.316  0.00  0.00    -0.198 OA
BRANCH  23  26
ATOM     26  C   UNL d   1     -50.747  26.137  33.352  0.00  0.00     0.107 A 
ATOM     27  C   UNL d   1     -50.886  25.325  33.317  0.00  0.00     0.037 A 
ATOM     28  C   UNL d   1     -51.660  25.037  33.340  0.00  0.00     0.095 A 
ATOM     29  C   UNL d   1     -52.292  25.564  33.399  0.00  0.00     0.024 A 
ATOM     30  C   UNL d   1     -52.154  26.370  33.433  0.00  0.00     0.003 A 
ATOM     31  C   UNL d   1     -51.383  26.661  33.410  0.00  0.00     0.013 A 
BRANCH  28  32
ATOM     32  O   UNL d   1     -51.808  24.217  33.306  0.00  0.00    -0.328 OA
ATOM     33  C   UNL d   1     -52.570  23.924  33.436  0.00  0.00     0.181 C 
ENDBRANCH  28  32
ENDBRANCH  23  26
ENDBRANCH  22  23
ENDBRANCH   2  22
TORSDOF 6
ENDMDL
