MODEL 1
REMARK VINA RESULT:      -4.9      0.000      0.000
REMARK  1 active torsions:
REMARK  status: ('A' for Active; 'I' for Inactive)
REMARK    1  A    between atoms: O_8  and  C_4 
ROOT
ATOM      1  C   UNL d   1     -47.595  12.814  23.190  0.00  0.00     0.065 A 
ATOM      2  C   UNL d   1     -46.893  12.460  23.447  0.00  0.00     0.186 A 
ATOM      3  N   UNL d   1     -46.191  12.894  23.452  0.00  0.00    -0.224 NA
ATOM      4  C   UNL d   1     -47.591  13.600  22.939  0.00  0.00     0.099 A 
ATOM      5  N   UNL d   1     -46.894  11.679  23.698  0.00  0.00    -0.127 N 
ATOM      6  C   UNL d   1     -46.190  13.676  23.202  0.00  0.00     0.103 A 
ATOM      7  C   UNL d   1     -46.891  14.030  22.944  0.00  0.00     0.045 A 
ENDROOT
BRANCH   4   8
ATOM      8  O   UNL d   1     -48.285  13.950  22.683  0.00  0.00    -0.328 OA
ATOM      9  C   UNL d   1     -48.323  14.765  22.583  0.00  0.00     0.181 C 
ENDBRANCH   4   8
TORSDOF 1
ENDMDL
MODEL 2
REMARK VINA RESULT:      -4.8      0.989      1.786
REMARK  1 active torsions:
REMARK  status: ('A' for Active; 'I' for Inactive)
REMARK    1  A    between atoms: O_8  and  C_4 
ROOT
ATOM      1  C   UNL d   1     -47.448  13.247  22.975  0.00  0.00     0.065 A 
ATOM      2  C   UNL d   1     -46.662  13.351  23.209  0.00  0.00     0.186 A 
ATOM      3  N   UNL d   1     -46.255  12.731  23.570  0.00  0.00    -0.224 NA
ATOM      4  C   UNL d   1     -47.823  12.523  23.103  0.00  0.00     0.099 A 
ATOM      5  N   UNL d   1     -46.286  14.069  23.083  0.00  0.00    -0.127 N 
ATOM      6  C   UNL d   1     -46.631  12.011  23.697  0.00  0.00     0.103 A 
ATOM      7  C   UNL d   1     -47.417  11.907  23.462  0.00  0.00     0.045 A 
ENDROOT
BRANCH   4   8
ATOM      8  O   UNL d   1     -48.602  12.421  22.870  0.00  0.00    -0.328 OA
ATOM      9  C   UNL d   1     -48.804  11.803  22.367  0.00  0.00     0.181 C 
ENDBRANCH   4   8
TORSDOF 1
ENDMDL
MODEL 3
REMARK VINA RESULT:      -4.6      1.322      1.796
REMARK  1 active torsions:
REMARK  status: ('A' for Active; 'I' for Inactive)
REMARK    1  A    between atoms: O_8  and  C_4 
ROOT
ATOM      1  C   UNL d   1     -46.835  12.284  23.326  0.00  0.00     0.065 A 
ATOM      2  C   UNL d   1     -47.647  12.158  23.420  0.00  0.00     0.186 A 
ATOM      3  N   UNL d   1     -48.181  12.758  23.233  0.00  0.00    -0.224 NA
ATOM      4  C   UNL d   1     -46.561  13.010  23.047  0.00  0.00     0.099 A 
ATOM      5  N   UNL d   1     -47.922  11.436  23.698  0.00  0.00    -0.127 N 
ATOM      6  C   UNL d   1     -47.906  13.480  22.955  0.00  0.00     0.103 A 
ATOM      7  C   UNL d   1     -47.094  13.607  22.861  0.00  0.00     0.045 A 
ENDROOT
BRANCH   4   8
ATOM      8  O   UNL d   1     -45.757  13.135  22.954  0.00  0.00    -0.328 OA
ATOM      9  C   UNL d   1     -45.450  13.306  22.212  0.00  0.00     0.181 C 
ENDBRANCH   4   8
TORSDOF 1
ENDMDL
MODEL 4
REMARK VINA RESULT:      -4.4      2.291      2.782
REMARK  1 active torsions:
REMARK  status: ('A' for Active; 'I' for Inactive)
REMARK    1  A    between atoms: O_8  and  C_4 
ROOT
ATOM      1  C   UNL d   1     -48.712  11.918  22.427  0.00  0.00     0.065 A 
ATOM      2  C   UNL d   1     -48.548  11.562  23.155  0.00  0.00     0.186 A 
ATOM      3  N   UNL d   1     -49.157  11.432  23.696  0.00  0.00    -0.224 NA
ATOM      4  C   UNL d   1     -49.484  12.143  22.244  0.00  0.00     0.099 A 
ATOM      5  N   UNL d   1     -47.780  11.338  23.340  0.00  0.00    -0.127 N 
ATOM      6  C   UNL d   1     -49.925  11.656  23.511  0.00  0.00     0.103 A 
ATOM      7  C   UNL d   1     -50.090  12.012  22.783  0.00  0.00     0.045 A 
ENDROOT
BRANCH   4   8
ATOM      8  O   UNL d   1     -49.647  12.496  21.523  0.00  0.00    -0.328 OA
ATOM      9  C   UNL d   1     -50.181  13.118  21.480  0.00  0.00     0.181 C 
ENDBRANCH   4   8
TORSDOF 1
ENDMDL
MODEL 5
REMARK VINA RESULT:      -4.3      1.899      2.400
REMARK  1 active torsions:
REMARK  status: ('A' for Active; 'I' for Inactive)
REMARK    1  A    between atoms: O_8  and  C_4 
ROOT
ATOM      1  C   UNL d   1     -48.133  13.269  22.166  0.00  0.00     0.065 A 
ATOM      2  C   UNL d   1     -48.809  13.470  21.733  0.00  0.00     0.186 A 
ATOM      3  N   UNL d   1     -49.145  14.219  21.819  0.00  0.00    -0.224 NA
ATOM      4  C   UNL d   1     -47.796  13.818  22.681  0.00  0.00     0.099 A 
ATOM      5  N   UNL d   1     -49.146  12.926  21.220  0.00  0.00    -0.127 N 
ATOM      6  C   UNL d   1     -48.807  14.764  22.333  0.00  0.00     0.103 A 
ATOM      7  C   UNL d   1     -48.131  14.563  22.765  0.00  0.00     0.045 A 
ENDROOT
BRANCH   4   8
ATOM      8  O   UNL d   1     -47.127  13.618  23.109  0.00  0.00    -0.328 OA
ATOM      9  C   UNL d   1     -46.421  14.019  22.980  0.00  0.00     0.181 C 
ENDBRANCH   4   8
TORSDOF 1
ENDMDL
MODEL 6
REMARK VINA RESULT:      -4.3      1.412      1.912
REMARK  1 active torsions:
REMARK  status: ('A' for Active; 'I' for Inactive)
REMARK    1  A    between atoms: O_8  and  C_4 
ROOT
ATOM      1  C   UNL d   1     -47.582  13.200  22.297  0.00  0.00     0.065 A 
ATOM      2  C   UNL d   1     -47.231  13.748  22.807  0.00  0.00     0.186 A 
ATOM      3  N   UNL d   1     -47.597  14.474  22.947  0.00  0.00    -0.224 NA
ATOM      4  C   UNL d   1     -48.297  13.381  21.929  0.00  0.00     0.099 A 
ATOM      5  N   UNL d   1     -46.519  13.571  23.175  0.00  0.00    -0.127 N 
ATOM      6  C   UNL d   1     -48.310  14.652  22.579  0.00  0.00     0.103 A 
ATOM      7  C   UNL d   1     -48.661  14.104  22.068  0.00  0.00     0.045 A 
ENDROOT
BRANCH   4   8
ATOM      8  O   UNL d   1     -48.645  12.838  21.424  0.00  0.00    -0.328 OA
ATOM      9  C   UNL d   1     -49.455  12.705  21.457  0.00  0.00     0.181 C 
ENDBRANCH   4   8
TORSDOF 1
ENDMDL
MODEL 7
REMARK VINA RESULT:      -4.2      1.707      2.148
REMARK  1 active torsions:
REMARK  status: ('A' for Active; 'I' for Inactive)
REMARK    1  A    between atoms: O_8  and  C_4 
ROOT
ATOM      1  C   UNL d   1     -49.077  14.091  21.853  0.00  0.00     0.065 A 
ATOM      2  C   UNL d   1     -48.594  13.427  21.757  0.00  0.00     0.186 A 
ATOM      3  N   UNL d   1     -47.890  13.365  22.183  0.00  0.00    -0.224 NA
ATOM      4  C   UNL d   1     -48.854  14.690  22.373  0.00  0.00     0.099 A 
ATOM      5  N   UNL d   1     -48.813  12.828  21.240  0.00  0.00    -0.127 N 
ATOM      6  C   UNL d   1     -47.670  13.964  22.701  0.00  0.00     0.103 A 
ATOM      7  C   UNL d   1     -48.153  14.628  22.796  0.00  0.00     0.045 A 
ENDROOT
BRANCH   4   8
ATOM      8  O   UNL d   1     -49.333  15.348  22.467  0.00  0.00    -0.328 OA
ATOM      9  C   UNL d   1     -49.666  15.514  23.200  0.00  0.00     0.181 C 
ENDBRANCH   4   8
TORSDOF 1
ENDMDL
MODEL 8
REMARK VINA RESULT:      -4.0      3.134      3.723
REMARK  1 active torsions:
REMARK  status: ('A' for Active; 'I' for Inactive)
REMARK    1  A    between atoms: O_8  and  C_4 
ROOT
ATOM      1  C   UNL d   1     -49.389  14.804  22.843  0.00  0.00     0.065 A 
ATOM      2  C   UNL d   1     -50.001  15.320  23.050  0.00  0.00     0.186 A 
ATOM      3  N   UNL d   1     -50.748  15.232  22.709  0.00  0.00    -0.224 NA
ATOM      4  C   UNL d   1     -49.527  14.201  22.297  0.00  0.00     0.099 A 
ATOM      5  N   UNL d   1     -49.868  15.921  23.593  0.00  0.00    -0.127 N 
ATOM      6  C   UNL d   1     -50.882  14.631  22.165  0.00  0.00     0.103 A 
ATOM      7  C   UNL d   1     -50.270  14.114  21.959  0.00  0.00     0.045 A 
ENDROOT
BRANCH   4   8
ATOM      8  O   UNL d   1     -48.920  13.690  22.093  0.00  0.00    -0.328 OA
ATOM      9  C   UNL d   1     -48.955  13.271  21.387  0.00  0.00     0.181 C 
ENDBRANCH   4   8
TORSDOF 1
ENDMDL
MODEL 9
REMARK VINA RESULT:      -3.8      8.552      9.004
REMARK  1 active torsions:
REMARK  status: ('A' for Active; 'I' for Inactive)
REMARK    1  A    between atoms: O_8  and  C_4 
ROOT
ATOM      1  C   UNL d   1     -40.624  14.765  17.321  0.00  0.00     0.065 A 
ATOM      2  C   UNL d   1     -40.910  15.536  17.413  0.00  0.00     0.186 A 
ATOM      3  N   UNL d   1     -40.838  15.918  18.141  0.00  0.00    -0.224 NA
ATOM      4  C   UNL d   1     -40.267  14.380  17.957  0.00  0.00     0.099 A 
ATOM      5  N   UNL d   1     -41.265  15.922  16.781  0.00  0.00    -0.127 N 
ATOM      6  C   UNL d   1     -40.482  15.532  18.773  0.00  0.00     0.103 A 
ATOM      7  C   UNL d   1     -40.196  14.761  18.681  0.00  0.00     0.045 A 
ENDROOT
BRANCH   4   8
ATOM      8  O   UNL d   1     -39.984  13.617  17.866  0.00  0.00    -0.328 OA
ATOM      9  C   UNL d   1     -39.177  13.469  17.913  0.00  0.00     0.181 C 
ENDBRANCH   4   8
TORSDOF 1
ENDMDL
