MODEL 1
REMARK VINA RESULT:      43.4      0.000      0.000
REMARK  8 active torsions:
REMARK  status: ('A' for Active; 'I' for Inactive)
REMARK    1  A    between atoms: C_7  and  C_1 
REMARK    2  A    between atoms: C_8  and  C_2 
REMARK    3  A    between atoms: S_11  and  C_3 
REMARK    4  A    between atoms: C_10  and  C_4 
REMARK    5  A    between atoms: O_17  and  C_7 
REMARK    6  A    between atoms: C_24  and  S_11 
REMARK    7  A    between atoms: C_15  and  C_23 
REMARK    8  A    between atoms: C_23  and  O_17 
ROOT
ATOM      1  C   UNL d   1      14.783  13.553  -1.832  0.00  0.00     0.081 A 
ATOM      2  C   UNL d   1      14.454  14.643  -2.684  0.00  0.00     0.045 A 
ATOM      3  C   UNL d   1      14.864  15.155  -2.187  0.00  0.00     0.112 A 
ATOM      4  C   UNL d   1      14.410  13.838  -2.510  0.00  0.00     0.010 A 
ATOM      5  C   UNL d   1      15.194  14.065  -1.336  0.00  0.00     0.087 A 
ATOM      6  N   UNL d   1      15.235  14.867  -1.512  0.00  0.00    -0.239 NA
ATOM      7  C   UNL d   1      15.577  13.777  -0.641  0.00  0.00     0.021 C 
ENDROOT
BRANCH   4   8
ATOM      8  C   UNL d   1      14.006  13.335  -2.999  0.00  0.00     0.000 A 
ATOM      9  C   UNL d   1      14.340  12.616  -3.227  0.00  0.00     0.001 A 
ATOM     10  C   UNL d   1      13.937  12.113  -3.715  0.00  0.00     0.011 A 
ATOM     11  C   UNL d   1      13.185  12.312  -3.992  0.00  0.00     0.058 A 
ATOM     12  C   UNL d   1      12.851  13.031  -3.764  0.00  0.00     0.011 A 
ATOM     13 CL   UNL d   1      12.775  11.801  -4.489  0.00  0.00    -0.082 Cl
ATOM     14  C   UNL d   1      13.255  13.534  -3.275  0.00  0.00     0.001 A 
ENDBRANCH   4   8
BRANCH   2  15
ATOM     15  C   UNL d   1      14.077  14.939  -3.370  0.00  0.00     0.124 C 
ATOM     16  N   UNL d   1      14.481  15.491  -3.855  0.00  0.00    -0.146 N 
ENDBRANCH   2  15
BRANCH   1  17
ATOM     17  C   UNL d   1      14.742  12.737  -1.651  0.00  0.00     0.302 C 
ATOM     18  O   UNL d   1      15.389  12.250  -1.799  0.00  0.00    -0.259 OA
BRANCH  17  19
ATOM     19  O   UNL d   1      14.042  12.428  -1.320  0.00  0.00    -0.271 OA
BRANCH  19  20
ATOM     20  C   UNL d   1      14.061  12.003  -0.610  0.00  0.00     0.126 C 
BRANCH  20  21
ATOM     21  C   UNL d   1      13.500  12.148  -0.026  0.00  0.00     0.027 C 
ATOM     22  C   UNL d   1      12.772  11.785  -0.059  0.00  0.00     0.002 C 
ENDBRANCH  20  21
ENDBRANCH  19  20
ENDBRANCH  17  19
ENDBRANCH   1  17
BRANCH   3  23
ATOM     23  S   UNL d   1      14.912  15.980  -2.360  0.00  0.00    -0.067 SA
BRANCH  23  24
ATOM     24  C   UNL d   1      14.586  16.533  -1.847  0.00  0.00     0.037 C 
ATOM     25  C   UNL d   1      15.025  17.192  -1.605  0.00  0.00     0.007 C 
ENDBRANCH  23  24
ENDBRANCH   3  23
TORSDOF 8
ENDMDL
MODEL 2
REMARK VINA RESULT:      44.7      2.245      4.129
REMARK  8 active torsions:
REMARK  status: ('A' for Active; 'I' for Inactive)
REMARK    1  A    between atoms: C_7  and  C_1 
REMARK    2  A    between atoms: C_8  and  C_2 
REMARK    3  A    between atoms: S_11  and  C_3 
REMARK    4  A    between atoms: C_10  and  C_4 
REMARK    5  A    between atoms: O_17  and  C_7 
REMARK    6  A    between atoms: C_24  and  S_11 
REMARK    7  A    between atoms: C_15  and  C_23 
REMARK    8  A    between atoms: C_23  and  O_17 
ROOT
ATOM      1  C   UNL d   1      13.829  14.146  -3.336  0.00  0.00     0.081 A 
ATOM      2  C   UNL d   1      13.575  12.771  -3.078  0.00  0.00     0.045 A 
ATOM      3  C   UNL d   1      13.164  12.713  -3.789  0.00  0.00     0.112 A 
ATOM      4  C   UNL d   1      13.910  13.488  -2.846  0.00  0.00     0.010 A 
ATOM      5  C   UNL d   1      13.419  14.089  -4.047  0.00  0.00     0.087 A 
ATOM      6  N   UNL d   1      13.086  13.372  -4.275  0.00  0.00    -0.239 NA
ATOM      7  C   UNL d   1      13.333  14.759  -4.552  0.00  0.00     0.021 C 
ENDROOT
BRANCH   4   8
ATOM      8  C   UNL d   1      14.314  13.545  -2.147  0.00  0.00     0.000 A 
ATOM      9  C   UNL d   1      14.030  14.023  -1.538  0.00  0.00     0.001 A 
ATOM     10  C   UNL d   1      14.434  14.080  -0.839  0.00  0.00     0.011 A 
ATOM     11  C   UNL d   1      15.134  13.660  -0.726  0.00  0.00     0.058 A 
ATOM     12  C   UNL d   1      15.418  13.181  -1.334  0.00  0.00     0.011 A 
ATOM     13 CL   UNL d   1      15.544  13.717  -0.015  0.00  0.00    -0.082 Cl
ATOM     14  C   UNL d   1      15.014  13.124  -2.033  0.00  0.00     0.001 A 
ENDBRANCH   4   8
BRANCH   2  15
ATOM     15  C   UNL d   1      13.654  12.099  -2.585  0.00  0.00     0.124 C 
ATOM     16  N   UNL d   1      12.974  11.781  -2.212  0.00  0.00    -0.146 N 
ENDBRANCH   2  15
BRANCH   1  17
ATOM     17  C   UNL d   1      14.167  14.877  -3.106  0.00  0.00     0.302 C 
ATOM     18  O   UNL d   1      14.016  15.182  -2.357  0.00  0.00    -0.259 OA
BRANCH  17  19
ATOM     19  O   UNL d   1      14.655  15.286  -3.644  0.00  0.00    -0.271 OA
BRANCH  19  20
ATOM     20  C   UNL d   1      14.616  16.111  -3.709  0.00  0.00     0.126 C 
BRANCH  20  21
ATOM     21  C   UNL d   1      15.307  16.557  -3.721  0.00  0.00     0.027 C 
ATOM     22  C   UNL d   1      15.674  16.723  -4.428  0.00  0.00     0.002 C 
ENDBRANCH  20  21
ENDBRANCH  19  20
ENDBRANCH  17  19
ENDBRANCH   1  17
BRANCH   3  23
ATOM     23  S   UNL d   1      12.820  11.982  -4.031  0.00  0.00    -0.067 SA
BRANCH  23  24
ATOM     24  C   UNL d   1      12.787  11.779  -4.827  0.00  0.00     0.037 C 
ATOM     25  C   UNL d   1      13.459  11.842  -5.305  0.00  0.00     0.007 C 
ENDBRANCH  23  24
ENDBRANCH   3  23
TORSDOF 8
ENDMDL
