MODEL 1
REMARK VINA RESULT:     104.1      0.000      0.000
REMARK  3 active torsions:
REMARK  status: ('A' for Active; 'I' for Inactive)
REMARK    1  A    between atoms: C_12  and  C_3 
REMARK       I    between atoms: C_6  and  N_9 
REMARK    2  A    between atoms: C_7  and  C_6 
REMARK    3  A    between atoms: N_9  and  C_22 
ROOT
ATOM      1  C   UNL d   1     -54.997-102.012 -40.896  0.00  0.00     0.019 A 
ATOM      2  C   UNL d   1     -54.714-102.729 -41.191  0.00  0.00     0.003 A 
ATOM      3  C   UNL d   1     -55.292-101.440 -41.414  0.00  0.00     0.003 A 
ATOM      4  C   UNL d   1     -55.020-102.303 -42.520  0.00  0.00     0.085 A 
ATOM      5  C   UNL d   1     -55.303-101.586 -42.226  0.00  0.00     0.019 A 
ATOM      6  C   UNL d   1     -54.726-102.875 -42.003  0.00  0.00     0.019 A 
ENDROOT
BRANCH   4   7
ATOM      7  N   UNL d   1     -55.032-102.448 -43.328  0.00  0.00    -0.208 NA
ATOM      8  C   UNL d   1     -55.375-101.910 -43.839  0.00  0.00     0.279 C 
ATOM      9  O   UNL d   1     -55.715-101.210 -43.541  0.00  0.00    -0.265 OA
BRANCH   8  10
ATOM     10  C   UNL d   1     -55.387-102.056 -44.651  0.00  0.00     0.060 A 
ATOM     11  C   UNL d   1     -56.061-102.362 -45.005  0.00  0.00     0.031 A 
ATOM     12  C   UNL d   1     -56.073-102.508 -45.817  0.00  0.00     0.119 A 
ATOM     13  O   UNL d   1     -56.663-102.809 -46.314  0.00  0.00    -0.300 OA
ATOM     14  C   UNL d   1     -55.410-102.348 -46.274  0.00  0.00     0.119 A 
ATOM     15  C   UNL d   1     -56.364-102.834 -47.082  0.00  0.00     0.304 A 
ATOM     16  O   UNL d   1     -55.586-102.548 -47.060  0.00  0.00    -0.300 OA
ATOM     17  C   UNL d   1     -54.730-102.039 -45.921  0.00  0.00     0.026 A 
ATOM     18  C   UNL d   1     -54.718-101.893 -45.109  0.00  0.00     0.007 A 
ENDBRANCH   8  10
ENDBRANCH   4   7
BRANCH   1  19
ATOM     19  C   UNL d   1     -54.985-101.866 -40.084  0.00  0.00     0.101 A 
ATOM     20  N   UNL d   1     -54.753-101.190 -39.692  0.00  0.00    -0.221 NA
ATOM     21  C   UNL d   1     -54.846-101.322 -38.875  0.00  0.00     0.179 A 
ATOM     22  N   UNL d   1     -55.130-102.069 -38.766  0.00  0.00    -0.282 N 
ATOM     23  S   UNL d   1     -54.752-100.968 -38.140  0.00  0.00    -0.048 SA
ATOM     24  C   UNL d   1     -55.221-102.417 -39.512  0.00  0.00     0.101 A 
ATOM     25  C   UNL d   1     -55.216-102.185 -37.956  0.00  0.00     0.089 A 
ATOM     26  C   UNL d   1     -54.988-101.520 -37.576  0.00  0.00     0.057 A 
ENDBRANCH   1  19
TORSDOF 3
ENDMDL
