MODEL 1
REMARK VINA RESULT:      32.9      0.000      0.000
REMARK  6 active torsions:
REMARK  status: ('A' for Active; 'I' for Inactive)
REMARK    1  A    between atoms: C_6  and  N_2 
REMARK    2  A    between atoms: C_7  and  C_3 
REMARK    3  A    between atoms: C_8  and  C_6 
REMARK    4  A    between atoms: C_14  and  C_8 
REMARK    5  A    between atoms: C_9  and  O_12 
REMARK    6  A    between atoms: O_12  and  C_14 
ROOT
ATOM      1  N   UNL d   1      15.565  14.788  -0.716  0.00  0.00    -0.224 NA
ATOM      2  N   UNL d   1      14.648  14.432  -1.623  0.00  0.00    -0.286 N 
ATOM      3  C   UNL d   1      15.125  15.072  -1.370  0.00  0.00     0.191 A 
ATOM      4  C   UNL d   1      14.791  13.784  -1.145  0.00  0.00     0.083 A 
ATOM      5  C   UNL d   1      15.384  14.014  -0.558  0.00  0.00     0.099 A 
ATOM      6  C   UNL d   1      14.479  13.032  -1.152  0.00  0.00     0.019 A 
ATOM      7  C   UNL d   1      15.605  13.421  -0.015  0.00  0.00     0.021 A 
ATOM      8  C   UNL d   1      14.741  12.508  -0.593  0.00  0.00     0.002 A 
ATOM      9  C   UNL d   1      15.295  12.723  -0.045  0.00  0.00     0.002 A 
ENDROOT
BRANCH   2  10
ATOM     10  C   UNL d   1      14.184  14.603  -2.251  0.00  0.00     0.084 C 
BRANCH  10  11
ATOM     11  C   UNL d   1      14.153  14.129  -2.925  0.00  0.00     0.046 C 
BRANCH  11  12
ATOM     12  C   UNL d   1      13.711  14.315  -3.588  0.00  0.00     0.124 C 
BRANCH  12  13
ATOM     13  O   UNL d   1      12.995  13.962  -3.761  0.00  0.00    -0.305 OA
BRANCH  13  14
ATOM     14  C   UNL d   1      12.928  13.234  -4.142  0.00  0.00     0.100 A 
ATOM     15  C   UNL d   1      12.931  12.510  -3.748  0.00  0.00     0.025 A 
ATOM     16  C   UNL d   1      12.864  11.784  -4.129  0.00  0.00     0.002 A 
ATOM     17  C   UNL d   1      12.789  11.779  -4.963  0.00  0.00     0.000 A 
ATOM     18  C   UNL d   1      12.784  12.502  -5.386  0.00  0.00     0.002 A 
ATOM     19  C   UNL d   1      12.853  13.230  -4.976  0.00  0.00     0.025 A 
ENDBRANCH  13  14
ENDBRANCH  12  13
ENDBRANCH  11  12
ENDBRANCH  10  11
ENDBRANCH   2  10
BRANCH   3  20
ATOM     20  C   UNL d   1      14.862  15.596  -1.929  0.00  0.00     0.271 C 
ATOM     21  O   UNL d   1      14.961  16.419  -1.792  0.00  0.00    -0.280 OA
ENDBRANCH   3  20
TORSDOF 6
ENDMDL
MODEL 2
REMARK VINA RESULT:      33.7      1.604      4.496
REMARK  6 active torsions:
REMARK  status: ('A' for Active; 'I' for Inactive)
REMARK    1  A    between atoms: C_6  and  N_2 
REMARK    2  A    between atoms: C_7  and  C_3 
REMARK    3  A    between atoms: C_8  and  C_6 
REMARK    4  A    between atoms: C_14  and  C_8 
REMARK    5  A    between atoms: C_9  and  O_12 
REMARK    6  A    between atoms: O_12  and  C_14 
ROOT
ATOM      1  N   UNL d   1      13.295  11.782  -3.106  0.00  0.00    -0.224 NA
ATOM      2  N   UNL d   1      14.046  12.733  -2.539  0.00  0.00    -0.286 N 
ATOM      3  C   UNL d   1      13.800  11.936  -2.456  0.00  0.00     0.191 A 
ATOM      4  C   UNL d   1      13.705  13.051  -3.212  0.00  0.00     0.083 A 
ATOM      5  C   UNL d   1      13.220  12.436  -3.578  0.00  0.00     0.099 A 
ATOM      6  C   UNL d   1      13.761  13.793  -3.542  0.00  0.00     0.019 A 
ATOM      7  C   UNL d   1      12.823  12.657  -4.279  0.00  0.00     0.021 A 
ATOM      8  C   UNL d   1      13.348  13.936  -4.223  0.00  0.00     0.002 A 
ATOM      9  C   UNL d   1      12.894  13.362  -4.566  0.00  0.00     0.002 A 
ENDROOT
BRANCH   2  10
ATOM     10  C   UNL d   1      14.538  12.981  -1.961  0.00  0.00     0.084 C 
BRANCH  10  11
ATOM     11  C   UNL d   1      14.336  12.954  -1.162  0.00  0.00     0.046 C 
BRANCH  11  12
ATOM     12  C   UNL d   1      14.635  13.471  -0.603  0.00  0.00     0.124 C 
BRANCH  12  13
ATOM     13  O   UNL d   1      14.457  14.268  -0.592  0.00  0.00    -0.305 OA
BRANCH  13  14
ATOM     14  C   UNL d   1      15.017  14.856  -0.448  0.00  0.00     0.100 A 
ATOM     15  C   UNL d   1      14.876  15.660  -0.564  0.00  0.00     0.025 A 
ATOM     16  C   UNL d   1      15.436  16.246  -0.421  0.00  0.00     0.002 A 
ATOM     17  C   UNL d   1      16.191  16.013  -0.141  0.00  0.00     0.000 A 
ATOM     18  C   UNL d   1      16.358  15.203  -0.016  0.00  0.00     0.002 A 
ATOM     19  C   UNL d   1      15.772  14.623  -0.169  0.00  0.00     0.025 A 
ENDBRANCH  13  14
ENDBRANCH  12  13
ENDBRANCH  11  12
ENDBRANCH  10  11
ENDBRANCH   2  10
BRANCH   3  20
ATOM     20  C   UNL d   1      14.213  11.793  -1.775  0.00  0.00     0.271 C 
ATOM     21  O   UNL d   1      13.799  11.779  -1.044  0.00  0.00    -0.280 OA
ENDBRANCH   3  20
TORSDOF 6
ENDMDL
MODEL 3
REMARK VINA RESULT:      33.7      1.871      3.534
REMARK  6 active torsions:
REMARK  status: ('A' for Active; 'I' for Inactive)
REMARK    1  A    between atoms: C_6  and  N_2 
REMARK    2  A    between atoms: C_7  and  C_3 
REMARK    3  A    between atoms: C_8  and  C_6 
REMARK    4  A    between atoms: C_14  and  C_8 
REMARK    5  A    between atoms: C_9  and  O_12 
REMARK    6  A    between atoms: O_12  and  C_14 
ROOT
ATOM      1  N   UNL d   1      13.269  11.779  -2.467  0.00  0.00    -0.224 NA
ATOM      2  N   UNL d   1      13.881  12.894  -2.883  0.00  0.00    -0.286 N 
ATOM      3  C   UNL d   1      13.343  12.298  -3.121  0.00  0.00     0.191 A 
ATOM      4  C   UNL d   1      14.126  12.745  -2.117  0.00  0.00     0.083 A 
ATOM      5  C   UNL d   1      13.731  12.024  -1.848  0.00  0.00     0.099 A 
ATOM      6  C   UNL d   1      14.640  13.148  -1.630  0.00  0.00     0.019 A 
ATOM      7  C   UNL d   1      13.912  11.780  -1.071  0.00  0.00     0.021 A 
ATOM      8  C   UNL d   1      14.768  12.852  -0.887  0.00  0.00     0.002 A 
ATOM      9  C   UNL d   1      14.398  12.178  -0.636  0.00  0.00     0.002 A 
ENDROOT
BRANCH   2  10
ATOM     10  C   UNL d   1      14.021  13.446  -3.443  0.00  0.00     0.084 C 
BRANCH  10  11
ATOM     11  C   UNL d   1      13.808  14.238  -3.352  0.00  0.00     0.046 C 
BRANCH  11  12
ATOM     12  C   UNL d   1      14.141  14.847  -3.785  0.00  0.00     0.124 C 
BRANCH  12  13
ATOM     13  O   UNL d   1      14.510  15.490  -3.442  0.00  0.00    -0.305 OA
BRANCH  13  14
ATOM     14  C   UNL d   1      14.779  16.141  -3.870  0.00  0.00     0.100 A 
ATOM     15  C   UNL d   1      15.036  16.099  -4.652  0.00  0.00     0.025 A 
ATOM     16  C   UNL d   1      15.305  16.749  -5.079  0.00  0.00     0.002 A 
ATOM     17  C   UNL d   1      15.319  17.495  -4.697  0.00  0.00     0.000 A 
ATOM     18  C   UNL d   1      15.063  17.564  -3.904  0.00  0.00     0.002 A 
ATOM     19  C   UNL d   1      14.793  16.887  -3.488  0.00  0.00     0.025 A 
ENDBRANCH  13  14
ENDBRANCH  12  13
ENDBRANCH  11  12
ENDBRANCH  10  11
ENDBRANCH   2  10
BRANCH   3  20
ATOM     20  C   UNL d   1      13.215  12.595  -3.863  0.00  0.00     0.271 C 
ATOM     21  O   UNL d   1      12.833  12.110  -4.434  0.00  0.00    -0.280 OA
ENDBRANCH   3  20
TORSDOF 6
ENDMDL
MODEL 4
REMARK VINA RESULT:      35.3      2.117      3.550
REMARK  6 active torsions:
REMARK  status: ('A' for Active; 'I' for Inactive)
REMARK    1  A    between atoms: C_6  and  N_2 
REMARK    2  A    between atoms: C_7  and  C_3 
REMARK    3  A    between atoms: C_8  and  C_6 
REMARK    4  A    between atoms: C_14  and  C_8 
REMARK    5  A    between atoms: C_9  and  O_12 
REMARK    6  A    between atoms: O_12  and  C_14 
ROOT
ATOM      1  N   UNL d   1      15.033  17.028  -2.408  0.00  0.00    -0.224 NA
ATOM      2  N   UNL d   1      14.953  15.966  -1.598  0.00  0.00    -0.286 N 
ATOM      3  C   UNL d   1      15.168  16.775  -1.621  0.00  0.00     0.191 A 
ATOM      4  C   UNL d   1      14.699  15.734  -2.340  0.00  0.00     0.083 A 
ATOM      5  C   UNL d   1      14.751  16.421  -2.864  0.00  0.00     0.099 A 
ATOM      6  C   UNL d   1      14.432  15.016  -2.616  0.00  0.00     0.019 A 
ATOM      7  C   UNL d   1      14.512  16.293  -3.653  0.00  0.00     0.021 A 
ATOM      8  C   UNL d   1      14.218  14.966  -3.395  0.00  0.00     0.002 A 
ATOM      9  C   UNL d   1      14.266  15.607  -3.884  0.00  0.00     0.002 A 
ENDROOT
BRANCH   2  10
ATOM     10  C   UNL d   1      15.046  15.626  -0.880  0.00  0.00     0.084 C 
BRANCH  10  11
ATOM     11  C   UNL d   1      14.923  14.822  -0.749  0.00  0.00     0.046 C 
BRANCH  11  12
ATOM     12  C   UNL d   1      15.123  14.443  -0.051  0.00  0.00     0.124 C 
BRANCH  12  13
ATOM     13  O   UNL d   1      15.353  13.660  -0.018  0.00  0.00    -0.305 OA
BRANCH  13  14
ATOM     14  C   UNL d   1      14.879  13.036  -0.274  0.00  0.00     0.100 A 
ATOM     15  C   UNL d   1      15.145  12.433  -0.769  0.00  0.00     0.025 A 
ATOM     16  C   UNL d   1      14.670  11.811  -1.024  0.00  0.00     0.002 A 
ATOM     17  C   UNL d   1      13.874  11.788  -0.766  0.00  0.00     0.000 A 
ATOM     18  C   UNL d   1      13.580  12.389  -0.263  0.00  0.00     0.002 A 
ATOM     19  C   UNL d   1      14.082  13.014  -0.016  0.00  0.00     0.025 A 
ENDBRANCH  13  14
ENDBRANCH  12  13
ENDBRANCH  11  12
ENDBRANCH  10  11
ENDBRANCH   2  10
BRANCH   3  20
ATOM     20  C   UNL d   1      15.382  16.825  -0.841  0.00  0.00     0.271 C 
ATOM     21  O   UNL d   1      15.962  17.390  -0.615  0.00  0.00    -0.280 OA
ENDBRANCH   3  20
TORSDOF 6
ENDMDL
