MODEL 1
REMARK VINA RESULT:      -5.7      0.000      0.000
REMARK  6 active torsions:
REMARK  status: ('A' for Active; 'I' for Inactive)
REMARK    1  A    between atoms: C_3  and  C_2 
REMARK    2  A    between atoms: O_5  and  C_3 
REMARK    3  A    between atoms: C_9  and  O_5 
REMARK    4  A    between atoms: C_6  and  C_9 
REMARK    5  A    between atoms: C_7  and  C_6 
REMARK    6  A    between atoms: O_19  and  C_16 
ROOT
ATOM      1  C   UNL d   1      57.877   0.026  30.307  0.00  0.00     0.318 C 
ATOM      2  O   UNL d   1      57.359   0.575  29.974  0.00  0.00    -0.257 OA
ENDROOT
BRANCH   1   3
ATOM      3  C   UNL d   1      58.615  -0.113  29.964  0.00  0.00     0.145 A 
ATOM      4  N   UNL d   1      58.762  -0.837  29.573  0.00  0.00    -0.240 NA
ATOM      5  C   UNL d   1      59.496  -0.980  29.230  0.00  0.00     0.082 A 
ATOM      6  C   UNL d   1      60.099  -0.399  29.272  0.00  0.00     0.018 A 
ATOM      7  C   UNL d   1      59.641  -1.690  28.846  0.00  0.00     0.019 A 
ATOM      8  C   UNL d   1      59.954   0.324  29.661  0.00  0.00     0.003 A 
ATOM      9  C   UNL d   1      60.833  -0.540  28.929  0.00  0.00     0.002 A 
ATOM     10  C   UNL d   1      59.214   0.465  30.006  0.00  0.00     0.025 A 
ATOM     11  C   UNL d   1      60.969  -1.261  28.544  0.00  0.00     0.000 A 
ATOM     12  C   UNL d   1      60.377  -1.832  28.503  0.00  0.00     0.002 A 
ENDBRANCH   1   3
BRANCH   1  13
ATOM     13  O   UNL d   1      57.654  -0.390  30.990  0.00  0.00    -0.266 OA
BRANCH  13  14
ATOM     14  C   UNL d   1      56.986  -0.161  31.414  0.00  0.00     0.168 C 
BRANCH  14  15
ATOM     15  C   UNL d   1      56.617  -0.687  31.928  0.00  0.00     0.220 C 
ATOM     16  O   UNL d   1      56.711  -1.498  31.814  0.00  0.00    -0.284 OA
BRANCH  15  17
ATOM     17  C   UNL d   1      56.156  -0.404  32.552  0.00  0.00     0.041 A 
ATOM     18  C   UNL d   1      55.870  -0.933  33.117  0.00  0.00     0.005 A 
ATOM     19  C   UNL d   1      55.411  -0.647  33.737  0.00  0.00     0.024 A 
ATOM     20  C   UNL d   1      55.240   0.163  33.792  0.00  0.00     0.094 A 
ATOM     21  C   UNL d   1      55.532   0.682  33.221  0.00  0.00     0.024 A 
ATOM     22  C   UNL d   1      55.991   0.397  32.600  0.00  0.00     0.005 A 
BRANCH  20  23
ATOM     23  O   UNL d   1      54.784   0.442  34.409  0.00  0.00    -0.328 OA
ATOM     24  C   UNL d   1      55.139   0.626  35.135  0.00  0.00     0.181 C 
ENDBRANCH  20  23
ENDBRANCH  15  17
ENDBRANCH  14  15
ENDBRANCH  13  14
ENDBRANCH   1  13
TORSDOF 6
ENDMDL
