MODEL 1
REMARK VINA RESULT:      -7.1      0.000      0.000
REMARK  7 active torsions:
REMARK  status: ('A' for Active; 'I' for Inactive)
REMARK    1  A    between atoms: C_2  and  C_1 
REMARK    2  A    between atoms: O_13  and  C_11 
REMARK    3  A    between atoms: C_18  and  O_13 
REMARK    4  A    between atoms: C_15  and  C_18 
REMARK       I    between atoms: N_21  and  C_15 
REMARK    5  A    between atoms: C_23  and  C_16 
REMARK    6  A    between atoms: C_26  and  N_21 
REMARK    7  A    between atoms: C_27  and  C_26 
ROOT
ATOM      1  C   UNL d   1     -48.423  14.564  22.813  0.00  0.00     0.087 A 
ATOM      2  C   UNL d   1     -48.230  13.834  23.147  0.00  0.00     0.201 A 
ATOM      3  C   UNL d   1     -47.456  13.534  23.057  0.00  0.00     0.062 A 
ATOM      4  C   UNL d   1     -47.860  14.993  22.396  0.00  0.00     0.128 A 
ATOM      5  C   UNL d   1     -46.894  13.963  22.640  0.00  0.00     0.105 A 
ATOM      6  O   UNL d   1     -47.086  14.706  22.299  0.00  0.00    -0.305 OA
ATOM      7  C   UNL d   1     -47.265  12.805  23.391  0.00  0.00     0.007 A 
ATOM      8  C   UNL d   1     -45.936  12.941  22.882  0.00  0.00     0.102 A 
ATOM      9  C   UNL d   1     -46.121  13.677  22.543  0.00  0.00     0.050 A 
ATOM     10  C   UNL d   1     -46.498  12.513  23.299  0.00  0.00     0.023 A 
ATOM     11  O   UNL d   1     -48.793  13.405  23.564  0.00  0.00    -0.286 OA
ENDROOT
BRANCH   8  12
ATOM     12  O   UNL d   1     -45.158  12.651  22.786  0.00  0.00    -0.302 OA
BRANCH  12  13
ATOM     13  C   UNL d   1     -44.827  12.618  22.043  0.00  0.00     0.158 C 
ATOM     14  C   UNL d   1     -45.288  12.723  21.364  0.00  0.00     0.032 C 
BRANCH  13  15
ATOM     15  C   UNL d   1     -44.004  12.476  21.956  0.00  0.00     0.302 C 
ATOM     16  O   UNL d   1     -43.697  11.746  22.169  0.00  0.00    -0.263 OA
ATOM     17  N   UNL d   1     -43.538  13.071  21.662  0.00  0.00    -0.201 NA
BRANCH  17  18
ATOM     18  C   UNL d   1     -42.780  12.987  21.564  0.00  0.00     0.148 C 
BRANCH  18  19
ATOM     19  C   UNL d   1     -42.302  13.695  21.164  0.00  0.00     0.255 C 
ATOM     20  O   UNL d   1     -41.484  13.758  21.215  0.00  0.00    -0.281 OA
ENDBRANCH  18  19
ENDBRANCH  17  18
ENDBRANCH  13  15
ENDBRANCH  12  13
ENDBRANCH   8  12
BRANCH  10  21
ATOM     21  C   UNL d   1     -46.295  11.853  23.591  0.00  0.00     0.002 C 
ATOM     22  C   UNL d   1     -46.802  11.303  23.692  0.00  0.00     0.000 C 
ENDBRANCH  10  21
BRANCH   1  23
ATOM     23  C   UNL d   1     -49.192  14.859  22.904  0.00  0.00     0.116 A 
ATOM     24  N   UNL d   1     -49.540  15.350  23.453  0.00  0.00    -0.238 NA
ATOM     25  C   UNL d   1     -50.335  15.448  23.253  0.00  0.00     0.088 A 
ATOM     26  C   UNL d   1     -50.920  15.905  23.652  0.00  0.00     0.021 C 
ATOM     27  C   UNL d   1     -50.479  15.034  22.603  0.00  0.00     0.056 A 
ATOM     28  S   UNL d   1     -49.772  14.648  22.356  0.00  0.00    -0.066 SA
ENDBRANCH   1  23
TORSDOF 7
ENDMDL
MODEL 2
REMARK VINA RESULT:      -5.4      1.501      2.248
REMARK  7 active torsions:
REMARK  status: ('A' for Active; 'I' for Inactive)
REMARK    1  A    between atoms: C_2  and  C_1 
REMARK    2  A    between atoms: O_13  and  C_11 
REMARK    3  A    between atoms: C_18  and  O_13 
REMARK    4  A    between atoms: C_15  and  C_18 
REMARK       I    between atoms: N_21  and  C_15 
REMARK    5  A    between atoms: C_23  and  C_16 
REMARK    6  A    between atoms: C_26  and  N_21 
REMARK    7  A    between atoms: C_27  and  C_26 
ROOT
ATOM      1  C   UNL d   1     -48.920  13.303  22.741  0.00  0.00     0.087 A 
ATOM      2  C   UNL d   1     -48.156  13.586  22.614  0.00  0.00     0.201 A 
ATOM      3  C   UNL d   1     -47.503  13.095  22.788  0.00  0.00     0.062 A 
ATOM      4  C   UNL d   1     -49.041  12.546  23.036  0.00  0.00     0.128 A 
ATOM      5  C   UNL d   1     -47.623  12.339  23.083  0.00  0.00     0.105 A 
ATOM      6  O   UNL d   1     -48.401  12.047  23.214  0.00  0.00    -0.305 OA
ATOM      7  C   UNL d   1     -46.740  13.379  22.661  0.00  0.00     0.007 A 
ATOM      8  C   UNL d   1     -46.218  12.133  23.129  0.00  0.00     0.102 A 
ATOM      9  C   UNL d   1     -46.984  11.840  23.261  0.00  0.00     0.050 A 
ATOM     10  C   UNL d   1     -46.098  12.890  22.834  0.00  0.00     0.023 A 
ATOM     11  O   UNL d   1     -48.035  14.343  22.319  0.00  0.00    -0.286 OA
ENDROOT
BRANCH   8  12
ATOM     12  O   UNL d   1     -45.572  11.633  23.307  0.00  0.00    -0.302 OA
BRANCH  12  13
ATOM     13  C   UNL d   1     -45.706  10.859  23.516  0.00  0.00     0.158 C 
ATOM     14  C   UNL d   1     -46.473  10.575  23.643  0.00  0.00     0.032 C 
BRANCH  13  15
ATOM     15  C   UNL d   1     -45.058  10.330  23.607  0.00  0.00     0.302 C 
ATOM     16  O   UNL d   1     -45.203   9.529  23.698  0.00  0.00    -0.263 OA
ATOM     17  N   UNL d   1     -44.307  10.635  23.601  0.00  0.00    -0.201 NA
BRANCH  17  18
ATOM     18  C   UNL d   1     -43.685  10.191  23.680  0.00  0.00     0.148 C 
BRANCH  18  19
ATOM     19  C   UNL d   1     -42.837  10.593  23.586  0.00  0.00     0.255 C 
ATOM     20  O   UNL d   1     -42.699  11.213  23.064  0.00  0.00    -0.281 OA
ENDBRANCH  18  19
ENDBRANCH  17  18
ENDBRANCH  13  15
ENDBRANCH  12  13
ENDBRANCH   8  12
BRANCH  10  21
ATOM     21  C   UNL d   1     -45.392  13.120  22.729  0.00  0.00     0.002 C 
ATOM     22  C   UNL d   1     -45.235  13.666  22.231  0.00  0.00     0.000 C 
ENDBRANCH  10  21
BRANCH   1  23
ATOM     23  C   UNL d   1     -49.567  13.792  22.568  0.00  0.00     0.116 A 
ATOM     24  N   UNL d   1     -49.902  14.429  22.947  0.00  0.00    -0.238 NA
ATOM     25  C   UNL d   1     -50.545  14.694  22.503  0.00  0.00     0.088 A 
ATOM     26  C   UNL d   1     -51.064  15.336  22.669  0.00  0.00     0.021 C 
ATOM     27  C   UNL d   1     -50.609  14.239  21.867  0.00  0.00     0.056 A 
ATOM     28  S   UNL d   1     -50.001  13.656  21.879  0.00  0.00    -0.066 SA
ENDBRANCH   1  23
TORSDOF 7
ENDMDL
MODEL 3
REMARK VINA RESULT:      -4.7      5.203      9.356
REMARK  7 active torsions:
REMARK  status: ('A' for Active; 'I' for Inactive)
REMARK    1  A    between atoms: C_2  and  C_1 
REMARK    2  A    between atoms: O_13  and  C_11 
REMARK    3  A    between atoms: C_18  and  O_13 
REMARK    4  A    between atoms: C_15  and  C_18 
REMARK       I    between atoms: N_21  and  C_15 
REMARK    5  A    between atoms: C_23  and  C_16 
REMARK    6  A    between atoms: C_26  and  N_21 
REMARK    7  A    between atoms: C_27  and  C_26 
ROOT
ATOM      1  C   UNL d   1     -39.008  14.725  17.179  0.00  0.00     0.087 A 
ATOM      2  C   UNL d   1     -38.727  15.161  17.821  0.00  0.00     0.201 A 
ATOM      3  C   UNL d   1     -39.092  15.072  18.567  0.00  0.00     0.062 A 
ATOM      4  C   UNL d   1     -39.640  14.208  17.271  0.00  0.00     0.128 A 
ATOM      5  C   UNL d   1     -39.724  14.556  18.658  0.00  0.00     0.105 A 
ATOM      6  O   UNL d   1     -40.012  14.110  18.007  0.00  0.00    -0.305 OA
ATOM      7  C   UNL d   1     -38.811  15.508  19.208  0.00  0.00     0.007 A 
ATOM      8  C   UNL d   1     -39.806  14.901  20.034  0.00  0.00     0.102 A 
ATOM      9  C   UNL d   1     -40.096  14.458  19.394  0.00  0.00     0.050 A 
ATOM     10  C   UNL d   1     -39.175  15.417  19.943  0.00  0.00     0.023 A 
ATOM     11  O   UNL d   1     -38.096  15.677  17.730  0.00  0.00    -0.286 OA
ENDROOT
BRANCH   8  12
ATOM     12  O   UNL d   1     -40.179  14.804  20.776  0.00  0.00    -0.302 OA
BRANCH  12  13
ATOM     13  C   UNL d   1     -40.977  14.653  20.812  0.00  0.00     0.158 C 
ATOM     14  C   UNL d   1     -41.522  15.136  20.418  0.00  0.00     0.032 C 
BRANCH  13  15
ATOM     15  C   UNL d   1     -41.262  13.997  21.253  0.00  0.00     0.302 C 
ATOM     16  O   UNL d   1     -40.786  13.665  21.832  0.00  0.00    -0.263 OA
ATOM     17  N   UNL d   1     -42.003  13.714  21.090  0.00  0.00    -0.201 NA
BRANCH  17  18
ATOM     18  C   UNL d   1     -42.305  13.116  21.467  0.00  0.00     0.148 C 
BRANCH  18  19
ATOM     19  C   UNL d   1     -43.227  12.944  21.363  0.00  0.00     0.255 C 
ATOM     20  O   UNL d   1     -43.556  12.204  21.505  0.00  0.00    -0.281 OA
ENDBRANCH  18  19
ENDBRANCH  17  18
ENDBRANCH  13  15
ENDBRANCH  12  13
ENDBRANCH   8  12
BRANCH  10  21
ATOM     21  C   UNL d   1     -38.941  15.799  20.544  0.00  0.00     0.002 C 
ATOM     22  C   UNL d   1     -38.204  15.888  20.682  0.00  0.00     0.000 C 
ENDBRANCH  10  21
BRANCH   1  23
ATOM     23  C   UNL d   1     -38.644  14.814  16.439  0.00  0.00     0.116 A 
ATOM     24  N   UNL d   1     -38.584  15.437  15.919  0.00  0.00    -0.238 NA
ATOM     25  C   UNL d   1     -38.148  15.193  15.263  0.00  0.00     0.088 A 
ATOM     26  C   UNL d   1     -37.940  15.640  14.580  0.00  0.00     0.021 C 
ATOM     27  C   UNL d   1     -37.942  14.444  15.369  0.00  0.00     0.056 A 
ATOM     28  S   UNL d   1     -38.243  14.174  16.108  0.00  0.00    -0.066 SA
ENDBRANCH   1  23
TORSDOF 7
ENDMDL
