MODEL 1
REMARK VINA RESULT:      -6.4      0.000      0.000
REMARK  7 active torsions:
REMARK  status: ('A' for Active; 'I' for Inactive)
REMARK    1  A    between atoms: C_2  and  S_1 
REMARK    2  A    between atoms: N_8  and  S_1 
REMARK    3  A    between atoms: C_13  and  N_8 
REMARK    4  A    between atoms: N_9  and  C_14 
REMARK    5  A    between atoms: O_15  and  C_10 
REMARK    6  A    between atoms: C_14  and  C_13 
REMARK    7  A    between atoms: C_22  and  O_15 
ROOT
ATOM      1  C   UNL d   1     -46.910  12.821  22.797  0.00  0.00     0.105 A 
ATOM      2  C   UNL d   1     -46.470  12.173  23.029  0.00  0.00     0.014 A 
ATOM      3  C   UNL d   1     -45.671  12.121  22.832  0.00  0.00     0.024 A 
ATOM      4  C   UNL d   1     -46.552  13.429  22.363  0.00  0.00     0.015 A 
ATOM      5  C   UNL d   1     -45.311  12.716  22.404  0.00  0.00     0.100 A 
ATOM      6  C   UNL d   1     -45.752  13.376  22.166  0.00  0.00     0.025 A 
ATOM      7  C   UNL d   1     -46.829  11.570  23.462  0.00  0.00     0.001 A 
ATOM      8  C   UNL d   1     -45.230  11.465  23.068  0.00  0.00     0.002 A 
ATOM      9  C   UNL d   1     -46.388  10.913  23.698  0.00  0.00     0.000 A 
ATOM     10  C   UNL d   1     -45.589  10.861  23.501  0.00  0.00     0.000 A 
ENDROOT
BRANCH   1  11
ATOM     11  S   UNL d   1     -47.709  12.874  22.994  0.00  0.00     0.285 S 
ATOM     12  O   UNL d   1     -47.510  13.271  23.697  0.00  0.00    -0.198 OA
ATOM     13  O   UNL d   1     -47.905  12.484  22.305  0.00  0.00    -0.198 OA
BRANCH  11  14
ATOM     14  N   UNL d   1     -48.509  12.926  23.191  0.00  0.00    -0.155 NA
BRANCH  14  15
ATOM     15  C   UNL d   1     -48.944  13.585  22.980  0.00  0.00     0.131 C 
BRANCH  15  16
ATOM     16  C   UNL d   1     -49.708  13.691  23.272  0.00  0.00     0.102 C 
BRANCH  16  17
ATOM     17  N   UNL d   1     -50.134  14.369  23.076  0.00  0.00    -0.298 N 
ATOM     18  C   UNL d   1     -50.059  15.051  23.535  0.00  0.00     0.107 A 
ATOM     19  C   UNL d   1     -50.486  15.734  23.339  0.00  0.00     0.142 A 
ATOM     20  O   UNL d   1     -50.987  15.732  22.683  0.00  0.00    -0.300 OA
ATOM     21  C   UNL d   1     -51.061  15.046  22.223  0.00  0.00     0.142 A 
ATOM     22  C   UNL d   1     -50.634  14.367  22.420  0.00  0.00     0.107 A 
ENDBRANCH  16  17
ENDBRANCH  15  16
ENDBRANCH  14  15
ENDBRANCH  11  14
ENDBRANCH   1  11
BRANCH   5  23
ATOM     23  O   UNL d   1     -44.513  12.670  22.204  0.00  0.00    -0.305 OA
BRANCH  23  24
ATOM     24  C   UNL d   1     -44.209  13.121  21.586  0.00  0.00     0.123 C 
ATOM     25  C   UNL d   1     -43.442  12.986  21.313  0.00  0.00     0.029 C 
ENDBRANCH  23  24
ENDBRANCH   5  23
TORSDOF 7
ENDMDL
MODEL 2
REMARK VINA RESULT:      -5.7      1.640      5.238
REMARK  7 active torsions:
REMARK  status: ('A' for Active; 'I' for Inactive)
REMARK    1  A    between atoms: C_2  and  S_1 
REMARK    2  A    between atoms: N_8  and  S_1 
REMARK    3  A    between atoms: C_13  and  N_8 
REMARK    4  A    between atoms: N_9  and  C_14 
REMARK    5  A    between atoms: O_15  and  C_10 
REMARK    6  A    between atoms: C_14  and  C_13 
REMARK    7  A    between atoms: C_22  and  O_15 
ROOT
ATOM      1  C   UNL d   1     -47.762  13.471  22.875  0.00  0.00     0.105 A 
ATOM      2  C   UNL d   1     -48.358  14.026  22.812  0.00  0.00     0.014 A 
ATOM      3  C   UNL d   1     -49.131  13.833  23.025  0.00  0.00     0.024 A 
ATOM      4  C   UNL d   1     -47.935  12.710  23.154  0.00  0.00     0.015 A 
ATOM      5  C   UNL d   1     -49.309  13.085  23.301  0.00  0.00     0.100 A 
ATOM      6  C   UNL d   1     -48.708  12.517  23.367  0.00  0.00     0.025 A 
ATOM      7  C   UNL d   1     -48.184  14.782  22.534  0.00  0.00     0.001 A 
ATOM      8  C   UNL d   1     -49.730  14.396  22.959  0.00  0.00     0.002 A 
ATOM      9  C   UNL d   1     -48.782  15.347  22.468  0.00  0.00     0.000 A 
ATOM     10  C   UNL d   1     -49.556  15.154  22.681  0.00  0.00     0.000 A 
ENDROOT
BRANCH   1  11
ATOM     11  S   UNL d   1     -46.989  13.664  22.662  0.00  0.00     0.285 S 
ATOM     12  O   UNL d   1     -46.827  13.882  23.449  0.00  0.00    -0.198 OA
ATOM     13  O   UNL d   1     -47.148  13.451  21.892  0.00  0.00    -0.198 OA
BRANCH  11  14
ATOM     14  N   UNL d   1     -46.216  13.857  22.450  0.00  0.00    -0.155 NA
BRANCH  14  15
ATOM     15  C   UNL d   1     -45.668  13.269  22.305  0.00  0.00     0.131 C 
BRANCH  15  16
ATOM     16  C   UNL d   1     -44.973  13.437  21.893  0.00  0.00     0.102 C 
BRANCH  16  17
ATOM     17  N   UNL d   1     -44.335  12.918  21.931  0.00  0.00    -0.298 N 
ATOM     18  C   UNL d   1     -44.385  12.234  22.391  0.00  0.00     0.107 A 
ATOM     19  C   UNL d   1     -43.744  11.711  22.431  0.00  0.00     0.142 A 
ATOM     20  O   UNL d   1     -43.054  11.874  22.010  0.00  0.00    -0.300 OA
ATOM     21  C   UNL d   1     -43.004  12.561  21.549  0.00  0.00     0.142 A 
ATOM     22  C   UNL d   1     -43.644  13.081  21.510  0.00  0.00     0.107 A 
ENDBRANCH  16  17
ENDBRANCH  15  16
ENDBRANCH  14  15
ENDBRANCH  11  14
ENDBRANCH   1  11
BRANCH   5  23
ATOM     23  O   UNL d   1     -50.079  12.885  23.515  0.00  0.00    -0.305 OA
BRANCH  23  24
ATOM     24  C   UNL d   1     -50.275  12.107  23.698  0.00  0.00     0.123 C 
ATOM     25  C   UNL d   1     -51.064  11.868  23.696  0.00  0.00     0.029 C 
ENDBRANCH  23  24
ENDBRANCH   5  23
TORSDOF 7
ENDMDL
MODEL 3
REMARK VINA RESULT:      -5.7      0.978      2.021
REMARK  7 active torsions:
REMARK  status: ('A' for Active; 'I' for Inactive)
REMARK    1  A    between atoms: C_2  and  S_1 
REMARK    2  A    between atoms: N_8  and  S_1 
REMARK    3  A    between atoms: C_13  and  N_8 
REMARK    4  A    between atoms: N_9  and  C_14 
REMARK    5  A    between atoms: O_15  and  C_10 
REMARK    6  A    between atoms: C_14  and  C_13 
REMARK    7  A    between atoms: C_22  and  O_15 
ROOT
ATOM      1  C   UNL d   1     -46.304  12.899  22.995  0.00  0.00     0.105 A 
ATOM      2  C   UNL d   1     -45.599  12.870  22.584  0.00  0.00     0.014 A 
ATOM      3  C   UNL d   1     -45.094  12.223  22.669  0.00  0.00     0.024 A 
ATOM      4  C   UNL d   1     -46.515  12.276  23.498  0.00  0.00     0.015 A 
ATOM      5  C   UNL d   1     -45.296  11.604  23.164  0.00  0.00     0.100 A 
ATOM      6  C   UNL d   1     -46.011  11.628  23.583  0.00  0.00     0.025 A 
ATOM      7  C   UNL d   1     -45.391  13.492  22.084  0.00  0.00     0.001 A 
ATOM      8  C   UNL d   1     -44.383  12.196  22.253  0.00  0.00     0.002 A 
ATOM      9  C   UNL d   1     -44.679  13.467  21.668  0.00  0.00     0.000 A 
ATOM     10  C   UNL d   1     -44.175  12.819  21.752  0.00  0.00     0.000 A 
ENDROOT
BRANCH   1  11
ATOM     11  S   UNL d   1     -46.808  13.547  22.910  0.00  0.00     0.285 S 
ATOM     12  O   UNL d   1     -46.419  13.932  23.537  0.00  0.00    -0.198 OA
ATOM     13  O   UNL d   1     -47.189  13.170  22.296  0.00  0.00    -0.198 OA
BRANCH  11  14
ATOM     14  N   UNL d   1     -47.312  14.194  22.826  0.00  0.00    -0.155 NA
BRANCH  14  15
ATOM     15  C   UNL d   1     -48.122  14.098  22.886  0.00  0.00     0.131 C 
BRANCH  15  16
ATOM     16  C   UNL d   1     -48.631  14.713  22.679  0.00  0.00     0.102 C 
BRANCH  16  17
ATOM     17  N   UNL d   1     -49.439  14.646  22.825  0.00  0.00    -0.298 N 
ATOM     18  C   UNL d   1     -49.888  14.087  22.415  0.00  0.00     0.107 A 
ATOM     19  C   UNL d   1     -50.701  14.017  22.561  0.00  0.00     0.142 A 
ATOM     20  O   UNL d   1     -51.062  14.508  23.117  0.00  0.00    -0.300 OA
ATOM     21  C   UNL d   1     -50.610  15.069  23.528  0.00  0.00     0.142 A 
ATOM     22  C   UNL d   1     -49.800  15.137  23.381  0.00  0.00     0.107 A 
ENDBRANCH  16  17
ENDBRANCH  15  16
ENDBRANCH  14  15
ENDBRANCH  11  14
ENDBRANCH   1  11
BRANCH   5  23
ATOM     23  O   UNL d   1     -44.797  10.955  23.252  0.00  0.00    -0.305 OA
BRANCH  23  24
ATOM     24  C   UNL d   1     -45.034  10.301  23.694  0.00  0.00     0.123 C 
ATOM     25  C   UNL d   1     -44.668   9.571  23.580  0.00  0.00     0.029 C 
ENDBRANCH  23  24
ENDBRANCH   5  23
TORSDOF 7
ENDMDL
MODEL 4
REMARK VINA RESULT:      -5.1      1.250      4.994
REMARK  7 active torsions:
REMARK  status: ('A' for Active; 'I' for Inactive)
REMARK    1  A    between atoms: C_2  and  S_1 
REMARK    2  A    between atoms: N_8  and  S_1 
REMARK    3  A    between atoms: C_13  and  N_8 
REMARK    4  A    between atoms: N_9  and  C_14 
REMARK    5  A    between atoms: O_15  and  C_10 
REMARK    6  A    between atoms: C_14  and  C_13 
REMARK    7  A    between atoms: C_22  and  O_15 
ROOT
ATOM      1  C   UNL d   1     -48.353  13.279  22.993  0.00  0.00     0.105 A 
ATOM      2  C   UNL d   1     -49.067  12.916  23.151  0.00  0.00     0.014 A 
ATOM      3  C   UNL d   1     -49.747  13.368  23.269  0.00  0.00     0.024 A 
ATOM      4  C   UNL d   1     -48.311  14.105  22.950  0.00  0.00     0.015 A 
ATOM      5  C   UNL d   1     -49.713  14.183  23.229  0.00  0.00     0.100 A 
ATOM      6  C   UNL d   1     -48.991  14.557  23.068  0.00  0.00     0.025 A 
ATOM      7  C   UNL d   1     -49.107  12.093  23.193  0.00  0.00     0.001 A 
ATOM      8  C   UNL d   1     -50.467  12.997  23.429  0.00  0.00     0.002 A 
ATOM      9  C   UNL d   1     -49.826  11.722  23.353  0.00  0.00     0.000 A 
ATOM     10  C   UNL d   1     -50.506  12.174  23.471  0.00  0.00     0.000 A 
ENDROOT
BRANCH   1  11
ATOM     11  S   UNL d   1     -47.673  12.827  22.875  0.00  0.00     0.285 S 
ATOM     12  O   UNL d   1     -47.556  12.789  23.698  0.00  0.00    -0.198 OA
ATOM     13  O   UNL d   1     -47.789  12.864  22.069  0.00  0.00    -0.198 OA
BRANCH  11  14
ATOM     14  N   UNL d   1     -46.994  12.375  22.757  0.00  0.00    -0.155 NA
BRANCH  14  15
ATOM     15  C   UNL d   1     -46.284  12.736  22.575  0.00  0.00     0.131 C 
BRANCH  15  16
ATOM     16  C   UNL d   1     -45.579  12.459  22.901  0.00  0.00     0.102 C 
BRANCH  16  17
ATOM     17  N   UNL d   1     -44.883  12.481  22.459  0.00  0.00    -0.298 N 
ATOM     18  C   UNL d   1     -44.306  11.902  22.569  0.00  0.00     0.107 A 
ATOM     19  C   UNL d   1     -43.606  11.922  22.126  0.00  0.00     0.142 A 
ATOM     20  O   UNL d   1     -43.487  12.523  21.573  0.00  0.00    -0.300 OA
ATOM     21  C   UNL d   1     -44.068  13.104  21.464  0.00  0.00     0.142 A 
ATOM     22  C   UNL d   1     -44.764  13.082  21.907  0.00  0.00     0.107 A 
ENDBRANCH  16  17
ENDBRANCH  15  16
ENDBRANCH  14  15
ENDBRANCH  11  14
ENDBRANCH   1  11
BRANCH   5  23
ATOM     23  O   UNL d   1     -50.389  14.640  23.346  0.00  0.00    -0.305 OA
BRANCH  23  24
ATOM     24  C   UNL d   1     -50.327  15.446  23.500  0.00  0.00     0.123 C 
ATOM     25  C   UNL d   1     -51.002  15.922  23.494  0.00  0.00     0.029 C 
ENDBRANCH  23  24
ENDBRANCH   5  23
TORSDOF 7
ENDMDL
MODEL 5
REMARK VINA RESULT:      -5.1      1.777      5.336
REMARK  7 active torsions:
REMARK  status: ('A' for Active; 'I' for Inactive)
REMARK    1  A    between atoms: C_2  and  S_1 
REMARK    2  A    between atoms: N_8  and  S_1 
REMARK    3  A    between atoms: C_13  and  N_8 
REMARK    4  A    between atoms: N_9  and  C_14 
REMARK    5  A    between atoms: O_15  and  C_10 
REMARK    6  A    between atoms: C_14  and  C_13 
REMARK    7  A    between atoms: C_22  and  O_15 
ROOT
ATOM      1  C   UNL d   1     -47.364  13.233  22.834  0.00  0.00     0.105 A 
ATOM      2  C   UNL d   1     -47.650  13.986  22.702  0.00  0.00     0.014 A 
ATOM      3  C   UNL d   1     -48.440  14.165  22.860  0.00  0.00     0.024 A 
ATOM      4  C   UNL d   1     -47.869  12.645  23.127  0.00  0.00     0.015 A 
ATOM      5  C   UNL d   1     -48.944  13.590  23.149  0.00  0.00     0.100 A 
ATOM      6  C   UNL d   1     -48.659  12.824  23.285  0.00  0.00     0.025 A 
ATOM      7  C   UNL d   1     -47.146  14.569  22.411  0.00  0.00     0.001 A 
ATOM      8  C   UNL d   1     -48.726  14.927  22.725  0.00  0.00     0.002 A 
ATOM      9  C   UNL d   1     -47.430  15.332  22.276  0.00  0.00     0.000 A 
ATOM     10  C   UNL d   1     -48.220  15.511  22.433  0.00  0.00     0.000 A 
ENDROOT
BRANCH   1  11
ATOM     11  S   UNL d   1     -46.574  13.054  22.677  0.00  0.00     0.285 S 
ATOM     12  O   UNL d   1     -46.776  12.846  21.897  0.00  0.00    -0.198 OA
ATOM     13  O   UNL d   1     -46.376  13.257  23.441  0.00  0.00    -0.198 OA
BRANCH  11  14
ATOM     14  N   UNL d   1     -45.784  12.875  22.520  0.00  0.00    -0.155 NA
BRANCH  14  15
ATOM     15  C   UNL d   1     -45.466  12.163  22.762  0.00  0.00     0.131 C 
BRANCH  15  16
ATOM     16  C   UNL d   1     -44.669  11.996  22.630  0.00  0.00     0.102 C 
BRANCH  16  17
ATOM     17  N   UNL d   1     -44.326  11.329  22.972  0.00  0.00    -0.298 N 
ATOM     18  C   UNL d   1     -43.509  11.218  22.932  0.00  0.00     0.107 A 
ATOM     19  C   UNL d   1     -43.162  10.548  23.275  0.00  0.00     0.142 A 
ATOM     20  O   UNL d   1     -43.635   9.991  23.657  0.00  0.00    -0.300 OA
ATOM     21  C   UNL d   1     -44.456  10.104  23.697  0.00  0.00     0.142 A 
ATOM     22  C   UNL d   1     -44.799  10.772  23.355  0.00  0.00     0.107 A 
ENDBRANCH  16  17
ENDBRANCH  15  16
ENDBRANCH  14  15
ENDBRANCH  11  14
ENDBRANCH   1  11
BRANCH   5  23
ATOM     23  O   UNL d   1     -49.734  13.762  23.308  0.00  0.00    -0.305 OA
BRANCH  23  24
ATOM     24  C   UNL d   1     -50.255  13.167  23.536  0.00  0.00     0.123 C 
ATOM     25  C   UNL d   1     -51.064  13.253  23.404  0.00  0.00     0.029 C 
ENDBRANCH  23  24
ENDBRANCH   5  23
TORSDOF 7
ENDMDL
MODEL 6
REMARK VINA RESULT:      -4.7      1.636      5.001
REMARK  7 active torsions:
REMARK  status: ('A' for Active; 'I' for Inactive)
REMARK    1  A    between atoms: C_2  and  S_1 
REMARK    2  A    between atoms: N_8  and  S_1 
REMARK    3  A    between atoms: C_13  and  N_8 
REMARK    4  A    between atoms: N_9  and  C_14 
REMARK    5  A    between atoms: O_15  and  C_10 
REMARK    6  A    between atoms: C_14  and  C_13 
REMARK    7  A    between atoms: C_22  and  O_15 
ROOT
ATOM      1  C   UNL d   1     -47.210  13.302  22.965  0.00  0.00     0.105 A 
ATOM      2  C   UNL d   1     -47.884  12.895  23.181  0.00  0.00     0.014 A 
ATOM      3  C   UNL d   1     -48.612  13.282  23.215  0.00  0.00     0.024 A 
ATOM      4  C   UNL d   1     -47.256  14.108  22.779  0.00  0.00     0.015 A 
ATOM      5  C   UNL d   1     -48.665  14.077  23.033  0.00  0.00     0.100 A 
ATOM      6  C   UNL d   1     -47.984  14.496  22.813  0.00  0.00     0.025 A 
ATOM      7  C   UNL d   1     -47.836  12.093  23.366  0.00  0.00     0.001 A 
ATOM      8  C   UNL d   1     -49.290  12.868  23.434  0.00  0.00     0.002 A 
ATOM      9  C   UNL d   1     -48.514  11.677  23.585  0.00  0.00     0.000 A 
ATOM     10  C   UNL d   1     -49.241  12.065  23.619  0.00  0.00     0.000 A 
ENDROOT
BRANCH   1  11
ATOM     11  S   UNL d   1     -46.483  12.914  22.931  0.00  0.00     0.285 S 
ATOM     12  O   UNL d   1     -46.303  13.185  23.697  0.00  0.00    -0.198 OA
ATOM     13  O   UNL d   1     -46.659  12.650  22.180  0.00  0.00    -0.198 OA
BRANCH  11  14
ATOM     14  N   UNL d   1     -45.755  12.527  22.897  0.00  0.00    -0.155 NA
BRANCH  14  15
ATOM     15  C   UNL d   1     -45.176  12.780  22.379  0.00  0.00     0.131 C 
BRANCH  15  16
ATOM     16  C   UNL d   1     -44.595  12.258  22.115  0.00  0.00     0.102 C 
BRANCH  16  17
ATOM     17  N   UNL d   1     -43.886  12.549  21.811  0.00  0.00    -0.298 N 
ATOM     18  C   UNL d   1     -43.890  13.205  21.310  0.00  0.00     0.107 A 
ATOM     19  C   UNL d   1     -43.180  13.500  21.002  0.00  0.00     0.142 A 
ATOM     20  O   UNL d   1     -42.466  13.135  21.198  0.00  0.00    -0.300 OA
ATOM     21  C   UNL d   1     -42.463  12.476  21.701  0.00  0.00     0.142 A 
ATOM     22  C   UNL d   1     -43.172  12.185  22.006  0.00  0.00     0.107 A 
ENDBRANCH  16  17
ENDBRANCH  15  16
ENDBRANCH  14  15
ENDBRANCH  11  14
ENDBRANCH   1  11
BRANCH   5  23
ATOM     23  O   UNL d   1     -49.389  14.470  23.065  0.00  0.00    -0.305 OA
BRANCH  23  24
ATOM     24  C   UNL d   1     -49.429  15.284  22.949  0.00  0.00     0.123 C 
ATOM     25  C   UNL d   1     -50.147  15.680  23.036  0.00  0.00     0.029 C 
ENDBRANCH  23  24
ENDBRANCH   5  23
TORSDOF 7
ENDMDL
