MODEL 1
REMARK VINA RESULT:      -4.4      0.000      0.000
REMARK  0 active torsions:
REMARK  status: ('A' for Active; 'I' for Inactive)
ROOT
ATOM      1  C   UNL d   1      57.446   0.676  33.373  0.00  0.00     0.267 A 
ATOM      2  N   UNL d   1      56.944   0.677  33.996  0.00  0.00    -0.270 N 
ATOM      3  C   UNL d   1      57.274   0.675  32.712  0.00  0.00     0.081 A 
ATOM      4  C   UNL d   1      56.561   0.675  32.307  0.00  0.00     0.105 A 
ATOM      5  O   UNL d   1      55.882   0.676  32.506  0.00  0.00    -0.305 OA
ATOM      6  C   UNL d   1      56.112   0.678  33.952  0.00  0.00     0.090 A 
ATOM      7  C   UNL d   1      55.618   0.677  33.261  0.00  0.00     0.116 A 
ATOM      8  C   UNL d   1      57.979   0.674  32.300  0.00  0.00     0.028 A 
ATOM      9  O   UNL d   1      58.249   0.676  33.543  0.00  0.00    -0.267 OA
ATOM     10  C   UNL d   1      56.554   0.674  31.490  0.00  0.00     0.026 A 
ATOM     11  C   UNL d   1      57.977   0.673  31.475  0.00  0.00     0.103 A 
ATOM     12  C   UNL d   1      57.276   0.678  34.742  0.00  0.00     0.102 C 
ATOM     13  N   UNL d   1      58.687   0.672  31.064  0.00  0.00    -0.148 N 
ATOM     14  C   UNL d   1      57.265   0.673  31.070  0.00  0.00     0.023 A 
ATOM     15  C   UNL d   1      55.760   0.679  34.722  0.00  0.00     0.020 A 
ATOM     16  C   UNL d   1      54.785   0.678  33.345  0.00  0.00     0.026 A 
ATOM     17  C   UNL d   1      54.919   0.679  34.802  0.00  0.00     0.002 A 
ATOM     18  C   UNL d   1      54.428   0.679  34.109  0.00  0.00     0.002 A 
ENDROOT
TORSDOF 0
ENDMDL
MODEL 2
REMARK VINA RESULT:      -4.2      1.438      1.902
REMARK  0 active torsions:
REMARK  status: ('A' for Active; 'I' for Inactive)
ROOT
ATOM      1  C   UNL d   1      56.639  -0.970  31.898  0.00  0.00     0.267 A 
ATOM      2  N   UNL d   1      56.174  -1.026  32.548  0.00  0.00    -0.270 N 
ATOM      3  C   UNL d   1      57.092  -0.478  31.764  0.00  0.00     0.081 A 
ATOM      4  C   UNL d   1      57.336   0.198  32.160  0.00  0.00     0.105 A 
ATOM      5  O   UNL d   1      57.158   0.499  32.775  0.00  0.00    -0.305 OA
ATOM      6  C   UNL d   1      56.158  -0.489  33.184  0.00  0.00     0.090 A 
ATOM      7  C   UNL d   1      56.614   0.219  33.291  0.00  0.00     0.116 A 
ATOM      8  C   UNL d   1      57.420  -0.670  31.042  0.00  0.00     0.028 A 
ATOM      9  O   UNL d   1      56.565  -1.564  31.336  0.00  0.00    -0.267 OA
ATOM     10  C   UNL d   1      57.908   0.681  31.832  0.00  0.00     0.026 A 
ATOM     11  C   UNL d   1      57.998  -0.186  30.707  0.00  0.00     0.103 A 
ATOM     12  C   UNL d   1      55.670  -1.668  32.591  0.00  0.00     0.102 C 
ATOM     13  N   UNL d   1      58.325  -0.382  29.981  0.00  0.00    -0.148 N 
ATOM     14  C   UNL d   1      58.242   0.490  31.102  0.00  0.00     0.023 A 
ATOM     15  C   UNL d   1      55.599  -0.724  33.775  0.00  0.00     0.020 A 
ATOM     16  C   UNL d   1      56.509   0.682  33.980  0.00  0.00     0.026 A 
ATOM     17  C   UNL d   1      55.495  -0.254  34.469  0.00  0.00     0.002 A 
ATOM     18  C   UNL d   1      55.954   0.454  34.573  0.00  0.00     0.002 A 
ENDROOT
TORSDOF 0
ENDMDL
MODEL 3
REMARK VINA RESULT:      -3.9      0.836      2.990
REMARK  0 active torsions:
REMARK  status: ('A' for Active; 'I' for Inactive)
ROOT
ATOM      1  C   UNL d   1      57.268   0.676  33.663  0.00  0.00     0.267 A 
ATOM      2  N   UNL d   1      57.840   0.678  33.103  0.00  0.00    -0.270 N 
ATOM      3  C   UNL d   1      56.595   0.673  33.555  0.00  0.00     0.081 A 
ATOM      4  C   UNL d   1      56.123   0.671  32.884  0.00  0.00     0.105 A 
ATOM      5  O   UNL d   1      56.256   0.671  32.189  0.00  0.00    -0.305 OA
ATOM      6  C   UNL d   1      57.717   0.677  32.279  0.00  0.00     0.090 A 
ATOM      7  C   UNL d   1      56.983   0.674  31.854  0.00  0.00     0.116 A 
ATOM      8  C   UNL d   1      56.251   0.672  34.296  0.00  0.00     0.028 A 
ATOM      9  O   UNL d   1      57.514   0.678  34.446  0.00  0.00    -0.267 OA
ATOM     10  C   UNL d   1      55.309   0.667  32.955  0.00  0.00     0.026 A 
ATOM     11  C   UNL d   1      55.431   0.669  34.373  0.00  0.00     0.103 A 
ATOM     12  C   UNL d   1      58.616   0.682  33.362  0.00  0.00     0.102 C 
ATOM     13  N   UNL d   1      55.089   0.668  35.119  0.00  0.00    -0.148 N 
ATOM     14  C   UNL d   1      54.959   0.666  33.702  0.00  0.00     0.023 A 
ATOM     15  C   UNL d   1      58.451   0.680  31.855  0.00  0.00     0.020 A 
ATOM     16  C   UNL d   1      56.986   0.673  31.017  0.00  0.00     0.026 A 
ATOM     17  C   UNL d   1      58.450   0.679  31.011  0.00  0.00     0.002 A 
ATOM     18  C   UNL d   1      57.713   0.676  30.588  0.00  0.00     0.002 A 
ENDROOT
TORSDOF 0
ENDMDL
MODEL 4
REMARK VINA RESULT:      -3.1     10.702     10.982
REMARK  0 active torsions:
REMARK  status: ('A' for Active; 'I' for Inactive)
ROOT
ATOM      1  C   UNL d   1      59.708  -9.782  31.970  0.00  0.00     0.267 A 
ATOM      2  N   UNL d   1      60.195  -9.773  32.605  0.00  0.00    -0.270 N 
ATOM      3  C   UNL d   1      59.026  -9.793  31.982  0.00  0.00     0.081 A 
ATOM      4  C   UNL d   1      58.464  -9.799  32.580  0.00  0.00     0.105 A 
ATOM      5  O   UNL d   1      58.498  -9.796  33.287  0.00  0.00    -0.305 OA
ATOM      6  C   UNL d   1      59.957  -9.774  33.403  0.00  0.00     0.090 A 
ATOM      7  C   UNL d   1      59.171  -9.784  33.721  0.00  0.00     0.116 A 
ATOM      8  C   UNL d   1      58.790  -9.799  31.200  0.00  0.00     0.028 A 
ATOM      9  O   UNL d   1      60.062  -9.780  31.229  0.00  0.00    -0.267 OA
ATOM     10  C   UNL d   1      57.668  -9.811  32.395  0.00  0.00     0.026 A 
ATOM     11  C   UNL d   1      57.989  -9.811  31.008  0.00  0.00     0.103 A 
ATOM     12  C   UNL d   1      60.999  -9.761  32.457  0.00  0.00     0.102 C 
ATOM     13  N   UNL d   1      57.756  -9.818  30.221  0.00  0.00    -0.148 N 
ATOM     14  C   UNL d   1      57.427  -9.818  31.606  0.00  0.00     0.023 A 
ATOM     15  C   UNL d   1      60.624  -9.762  33.926  0.00  0.00     0.020 A 
ATOM     16  C   UNL d   1      59.056  -9.783  34.550  0.00  0.00     0.026 A 
ATOM     17  C   UNL d   1      60.504  -9.761  34.762  0.00  0.00     0.002 A 
ATOM     18  C   UNL d   1      59.715  -9.771  35.077  0.00  0.00     0.002 A 
ENDROOT
TORSDOF 0
ENDMDL
MODEL 5
REMARK VINA RESULT:      -3.1      4.313      5.689
REMARK  0 active torsions:
REMARK  status: ('A' for Active; 'I' for Inactive)
ROOT
ATOM      1  C   UNL d   1      60.351  -1.812  29.007  0.00  0.00     0.267 A 
ATOM      2  N   UNL d   1      60.286  -1.037  29.197  0.00  0.00    -0.270 N 
ATOM      3  C   UNL d   1      59.843  -2.266  28.977  0.00  0.00     0.081 A 
ATOM      4  C   UNL d   1      59.034  -2.229  29.106  0.00  0.00     0.105 A 
ATOM      5  O   UNL d   1      58.588  -1.711  29.293  0.00  0.00    -0.305 OA
ATOM      6  C   UNL d   1      59.580  -0.640  29.394  0.00  0.00     0.090 A 
ATOM      7  C   UNL d   1      58.793  -0.951  29.439  0.00  0.00     0.116 A 
ATOM      8  C   UNL d   1      60.190  -2.973  28.761  0.00  0.00     0.028 A 
ATOM      9  O   UNL d   1      61.103  -2.090  28.831  0.00  0.00    -0.267 OA
ATOM     10  C   UNL d   1      58.573  -2.899  29.019  0.00  0.00     0.026 A 
ATOM     11  C   UNL d   1      59.730  -3.652  28.672  0.00  0.00     0.103 A 
ATOM     12  C   UNL d   1      60.973  -0.595  29.197  0.00  0.00     0.102 C 
ATOM     13  N   UNL d   1      60.082  -4.360  28.455  0.00  0.00    -0.148 N 
ATOM     14  C   UNL d   1      58.921  -3.614  28.801  0.00  0.00     0.023 A 
ATOM     15  C   UNL d   1      59.721   0.178  29.563  0.00  0.00     0.020 A 
ATOM     16  C   UNL d   1      58.157  -0.449  29.650  0.00  0.00     0.026 A 
ATOM     17  C   UNL d   1      59.078   0.682  29.776  0.00  0.00     0.002 A 
ATOM     18  C   UNL d   1      58.290   0.366  29.820  0.00  0.00     0.002 A 
ENDROOT
TORSDOF 0
ENDMDL
MODEL 6
REMARK VINA RESULT:      -3.1      1.802      4.359
REMARK  0 active torsions:
REMARK  status: ('A' for Active; 'I' for Inactive)
ROOT
ATOM      1  C   UNL d   1      57.766   0.639  30.494  0.00  0.00     0.267 A 
ATOM      2  N   UNL d   1      58.399   0.642  30.003  0.00  0.00    -0.270 N 
ATOM      3  C   UNL d   1      57.781   0.647  31.176  0.00  0.00     0.081 A 
ATOM      4  C   UNL d   1      58.381   0.662  31.735  0.00  0.00     0.105 A 
ATOM      5  O   UNL d   1      59.088   0.671  31.697  0.00  0.00    -0.305 OA
ATOM      6  C   UNL d   1      59.198   0.656  30.238  0.00  0.00     0.090 A 
ATOM      7  C   UNL d   1      59.519   0.669  31.023  0.00  0.00     0.116 A 
ATOM      8  C   UNL d   1      57.000   0.639  31.415  0.00  0.00     0.028 A 
ATOM      9  O   UNL d   1      57.024   0.625  30.143  0.00  0.00    -0.267 OA
ATOM     10  C   UNL d   1      58.200   0.669  32.531  0.00  0.00     0.026 A 
ATOM     11  C   UNL d   1      56.812   0.646  32.217  0.00  0.00     0.103 A 
ATOM     12  C   UNL d   1      58.248   0.630  29.200  0.00  0.00     0.102 C 
ATOM     13  N   UNL d   1      56.026   0.638  32.454  0.00  0.00    -0.148 N 
ATOM     14  C   UNL d   1      57.412   0.661  32.776  0.00  0.00     0.023 A 
ATOM     15  C   UNL d   1      59.718   0.655  29.569  0.00  0.00     0.020 A 
ATOM     16  C   UNL d   1      60.349   0.682  31.134  0.00  0.00     0.026 A 
ATOM     17  C   UNL d   1      60.555   0.668  29.685  0.00  0.00     0.002 A 
ATOM     18  C   UNL d   1      60.873   0.681  30.473  0.00  0.00     0.002 A 
ENDROOT
TORSDOF 0
ENDMDL
MODEL 7
REMARK VINA RESULT:      -2.9     10.707     11.202
REMARK  0 active torsions:
REMARK  status: ('A' for Active; 'I' for Inactive)
ROOT
ATOM      1  C   UNL d   1      58.054  -9.805  32.061  0.00  0.00     0.267 A 
ATOM      2  N   UNL d   1      57.786  -9.804  31.307  0.00  0.00    -0.270 N 
ATOM      3  C   UNL d   1      58.706  -9.809  32.261  0.00  0.00     0.081 A 
ATOM      4  C   UNL d   1      59.425  -9.814  31.866  0.00  0.00     0.105 A 
ATOM      5  O   UNL d   1      59.611  -9.815  31.182  0.00  0.00    -0.305 OA
ATOM      6  C   UNL d   1      58.259  -9.807  30.621  0.00  0.00     0.090 A 
ATOM      7  C   UNL d   1      59.105  -9.813  30.562  0.00  0.00     0.116 A 
ATOM      8  C   UNL d   1      58.689  -9.809  33.077  0.00  0.00     0.028 A 
ATOM      9  O   UNL d   1      57.488  -9.801  32.656  0.00  0.00    -0.267 OA
ATOM     10  C   UNL d   1      60.125  -9.818  32.288  0.00  0.00     0.026 A 
ATOM     11  C   UNL d   1      59.392  -9.813  33.508  0.00  0.00     0.103 A 
ATOM     12  C   UNL d   1      56.976  -9.799  31.199  0.00  0.00     0.102 C 
ATOM     13  N   UNL d   1      59.370  -9.812  34.327  0.00  0.00    -0.148 N 
ATOM     14  C   UNL d   1      60.110  -9.817  33.112  0.00  0.00     0.023 A 
ATOM     15  C   UNL d   1      57.787  -9.805  29.918  0.00  0.00     0.020 A 
ATOM     16  C   UNL d   1      59.471  -9.815  29.809  0.00  0.00     0.026 A 
ATOM     17  C   UNL d   1      58.159  -9.808  29.160  0.00  0.00     0.002 A 
ATOM     18  C   UNL d   1      59.007  -9.813  29.104  0.00  0.00     0.002 A 
ENDROOT
TORSDOF 0
ENDMDL
MODEL 8
REMARK VINA RESULT:      -2.8      1.453      2.289
REMARK  0 active torsions:
REMARK  status: ('A' for Active; 'I' for Inactive)
ROOT
ATOM      1  C   UNL d   1      58.801   0.678  31.330  0.00  0.00     0.267 A 
ATOM      2  N   UNL d   1      58.466   0.678  32.057  0.00  0.00    -0.270 N 
ATOM      3  C   UNL d   1      58.473   0.676  30.732  0.00  0.00     0.081 A 
ATOM      4  C   UNL d   1      57.683   0.671  30.513  0.00  0.00     0.105 A 
ATOM      5  O   UNL d   1      57.073   0.669  30.873  0.00  0.00    -0.305 OA
ATOM      6  C   UNL d   1      57.649   0.675  32.218  0.00  0.00     0.090 A 
ATOM      7  C   UNL d   1      57.002   0.671  31.669  0.00  0.00     0.116 A 
ATOM      8  C   UNL d   1      59.056   0.677  30.160  0.00  0.00     0.028 A 
ATOM      9  O   UNL d   1      59.621   0.682  31.299  0.00  0.00    -0.267 OA
ATOM     10  C   UNL d   1      57.476   0.669  29.723  0.00  0.00     0.026 A 
ATOM     11  C   UNL d   1      58.853   0.674  29.361  0.00  0.00     0.103 A 
ATOM     12  C   UNL d   1      58.971   0.682  32.700  0.00  0.00     0.102 C 
ATOM     13  N   UNL d   1      59.441   0.676  28.789  0.00  0.00    -0.148 N 
ATOM     14  C   UNL d   1      58.062   0.670  29.142  0.00  0.00     0.023 A 
ATOM     15  C   UNL d   1      57.496   0.676  33.051  0.00  0.00     0.020 A 
ATOM     16  C   UNL d   1      56.214   0.668  31.954  0.00  0.00     0.026 A 
ATOM     17  C   UNL d   1      56.701   0.673  33.335  0.00  0.00     0.002 A 
ATOM     18  C   UNL d   1      56.054   0.669  32.782  0.00  0.00     0.002 A 
ENDROOT
TORSDOF 0
ENDMDL
MODEL 9
REMARK VINA RESULT:      -2.7      1.569      3.670
REMARK  0 active torsions:
REMARK  status: ('A' for Active; 'I' for Inactive)
ROOT
ATOM      1  C   UNL d   1      56.643  -1.043  31.908  0.00  0.00     0.267 A 
ATOM      2  N   UNL d   1      57.117  -1.102  31.265  0.00  0.00    -0.270 N 
ATOM      3  C   UNL d   1      56.629  -0.529  32.356  0.00  0.00     0.081 A 
ATOM      4  C   UNL d   1      57.040   0.177  32.429  0.00  0.00     0.105 A 
ATOM      5  O   UNL d   1      57.550   0.491  32.052  0.00  0.00    -0.305 OA
ATOM      6  C   UNL d   1      57.683  -0.541  31.023  0.00  0.00     0.090 A 
ATOM      7  C   UNL d   1      57.885   0.198  31.387  0.00  0.00     0.116 A 
ATOM      8  C   UNL d   1      56.058  -0.729  32.905  0.00  0.00     0.028 A 
ATOM      9  O   UNL d   1      56.122  -1.663  32.044  0.00  0.00    -0.267 OA
ATOM     10  C   UNL d   1      56.880   0.682  33.052  0.00  0.00     0.026 A 
ATOM     11  C   UNL d   1      55.892  -0.223  33.534  0.00  0.00     0.103 A 
ATOM     12  C   UNL d   1      57.038  -1.773  30.804  0.00  0.00     0.102 C 
ATOM     13  N   UNL d   1      55.319  -0.427  34.084  0.00  0.00    -0.148 N 
ATOM     14  C   UNL d   1      56.304   0.483  33.608  0.00  0.00     0.023 A 
ATOM     15  C   UNL d   1      58.082  -0.787  30.317  0.00  0.00     0.020 A 
ATOM     16  C   UNL d   1      58.478   0.682  31.048  0.00  0.00     0.026 A 
ATOM     17  C   UNL d   1      58.680  -0.297  29.978  0.00  0.00     0.002 A 
ATOM     18  C   UNL d   1      58.879   0.443  30.345  0.00  0.00     0.002 A 
ENDROOT
TORSDOF 0
ENDMDL
