MODEL 1
REMARK VINA RESULT:       1.8      0.000      0.000
REMARK  4 active torsions:
REMARK  status: ('A' for Active; 'I' for Inactive)
REMARK    1  A    between atoms: S_5  and  C_3 
REMARK    2  A    between atoms: C_13  and  S_5 
REMARK    3  A    between atoms: C_23  and  N_7 
REMARK    4  A    between atoms: C_29  and  C_23 
ROOT
ATOM      1  C   UNL d   1     -41.531-121.761 -52.613  0.00  0.00     0.155 A 
ATOM      2  C   UNL d   1     -41.767-122.528 -52.484  0.00  0.00     0.092 A 
ATOM      3  C   UNL d   1     -41.729-122.311 -51.092  0.00  0.00     0.124 A 
ATOM      4  N   UNL d   1     -41.431-121.485 -53.379  0.00  0.00    -0.210 NA
ATOM      5  N   UNL d   1     -41.806-122.750 -53.880  0.00  0.00    -0.258 N 
ATOM      6  N   UNL d   1     -41.393-121.267 -51.987  0.00  0.00    -0.273 N 
ATOM      7  C   UNL d   1     -41.567-121.974 -54.005  0.00  0.00     0.152 A 
ATOM      8  C   UNL d   1     -41.490-121.535 -51.222  0.00  0.00     0.181 A 
ATOM      9  C   UNL d   1     -41.906-123.027 -53.118  0.00  0.00     0.269 A 
ATOM     10  C   UNL d   1     -41.867-122.805 -51.727  0.00  0.00     0.022 A 
ATOM     11  C   UNL d   1     -41.468-121.698 -54.771  0.00  0.00     0.035 A 
ATOM     12  C   UNL d   1     -41.942-123.241 -54.523  0.00  0.00     0.084 A 
ATOM     13  N   UNL d   1     -41.349-121.027 -50.586  0.00  0.00    -0.128 N 
ATOM     14  O   UNL d   1     -42.147-123.812 -52.991  0.00  0.00    -0.266 OA
ATOM     15  C   UNL d   1     -41.843-122.964 -55.281  0.00  0.00     0.019 A 
ATOM     16  C   UNL d   1     -41.604-122.188 -55.406  0.00  0.00     0.005 A 
ATOM     17  C   UNL d   1     -41.226-120.913 -54.897  0.00  0.00     0.003 C 
ENDROOT
BRANCH   3  18
ATOM     18  S   UNL d   1     -41.829-122.587 -50.322  0.00  0.00     0.213 S 
ATOM     19  O   UNL d   1     -42.537-122.155 -50.248  0.00  0.00    -0.217 OA
ATOM     20  O   UNL d   1     -41.129-123.018 -50.385  0.00  0.00    -0.217 OA
BRANCH  18  21
ATOM     21  C   UNL d   1     -41.921-122.871 -49.546  0.00  0.00     0.088 A 
ATOM     22  C   UNL d   1     -42.613-122.715 -49.126  0.00  0.00     0.014 A 
ATOM     23  C   UNL d   1     -42.705-122.999 -48.350  0.00  0.00     0.030 A 
ATOM     24  C   UNL d   1     -42.101-123.439 -47.997  0.00  0.00     0.140 A 
ATOM     25  C   UNL d   1     -41.400-123.594 -48.428  0.00  0.00     0.030 A 
ATOM     26  F   UNL d   1     -42.184-123.725 -47.226  0.00  0.00    -0.204 F 
ATOM     27  C   UNL d   1     -41.312-123.310 -49.200  0.00  0.00     0.014 A 
ENDBRANCH  18  21
ENDBRANCH   3  18
BRANCH   6  28
ATOM     28  C   UNL d   1     -41.151-120.479 -52.119  0.00  0.00     0.083 C 
BRANCH  28  29
ATOM     29  C   UNL d   1     -41.180-119.930 -51.494  0.00  0.00     0.019 C 
ATOM     30  C   UNL d   1     -41.123-119.114 -51.646  0.00  0.00     0.002 C 
ENDBRANCH  28  29
ENDBRANCH   6  28
TORSDOF 4
ENDMDL
MODEL 2
REMARK VINA RESULT:       4.4      2.141      4.615
REMARK  4 active torsions:
REMARK  status: ('A' for Active; 'I' for Inactive)
REMARK    1  A    between atoms: S_5  and  C_3 
REMARK    2  A    between atoms: C_13  and  S_5 
REMARK    3  A    between atoms: C_23  and  N_7 
REMARK    4  A    between atoms: C_29  and  C_23 
ROOT
ATOM      1  C   UNL d   1     -41.735-121.885 -51.016  0.00  0.00     0.155 A 
ATOM      2  C   UNL d   1     -42.078-122.526 -51.381  0.00  0.00     0.092 A 
ATOM      3  C   UNL d   1     -41.903-121.911 -52.636  0.00  0.00     0.124 A 
ATOM      4  N   UNL d   1     -41.651-121.874 -50.200  0.00  0.00    -0.210 NA
ATOM      5  N   UNL d   1     -42.256-123.147 -50.122  0.00  0.00    -0.258 N 
ATOM      6  N   UNL d   1     -41.475-121.259 -51.456  0.00  0.00    -0.273 N 
ATOM      7  C   UNL d   1     -41.908-122.497 -49.759  0.00  0.00     0.152 A 
ATOM      8  C   UNL d   1     -41.556-121.263 -52.268  0.00  0.00     0.181 A 
ATOM      9  C   UNL d   1     -42.340-123.160 -50.935  0.00  0.00     0.269 A 
ATOM     10  C   UNL d   1     -42.164-122.542 -52.189  0.00  0.00     0.022 A 
ATOM     11  C   UNL d   1     -41.824-122.485 -48.943  0.00  0.00     0.035 A 
ATOM     12  C   UNL d   1     -42.515-123.777 -49.666  0.00  0.00     0.084 A 
ATOM     13  N   UNL d   1     -41.289-120.620 -52.713  0.00  0.00    -0.128 N 
ATOM     14  O   UNL d   1     -42.692-123.817 -51.303  0.00  0.00    -0.266 OA
ATOM     15  C   UNL d   1     -42.430-123.762 -48.857  0.00  0.00     0.019 A 
ATOM     16  C   UNL d   1     -42.082-123.112 -48.493  0.00  0.00     0.005 A 
ATOM     17  C   UNL d   1     -41.472-121.828 -48.575  0.00  0.00     0.003 C 
ENDROOT
BRANCH   3  18
ATOM     18  S   UNL d   1     -41.987-121.922 -53.456  0.00  0.00     0.213 S 
ATOM     19  O   UNL d   1     -42.740-121.571 -53.394  0.00  0.00    -0.217 OA
ATOM     20  O   UNL d   1     -41.244-122.270 -53.529  0.00  0.00    -0.217 OA
BRANCH  18  21
ATOM     21  C   UNL d   1     -42.063-121.937 -54.284  0.00  0.00     0.088 A 
ATOM     22  C   UNL d   1     -42.772-121.712 -54.640  0.00  0.00     0.014 A 
ATOM     23  C   UNL d   1     -42.847-121.728 -55.468  0.00  0.00     0.030 A 
ATOM     24  C   UNL d   1     -42.211-121.968 -55.937  0.00  0.00     0.140 A 
ATOM     25  C   UNL d   1     -41.494-122.195 -55.570  0.00  0.00     0.030 A 
ATOM     26  F   UNL d   1     -42.278-121.986 -56.761  0.00  0.00    -0.204 F 
ATOM     27  C   UNL d   1     -41.421-122.179 -54.746  0.00  0.00     0.014 A 
ENDBRANCH  18  21
ENDBRANCH   3  18
BRANCH   6  28
ATOM     28  C   UNL d   1     -41.123-120.601 -51.082  0.00  0.00     0.083 C 
BRANCH  28  29
ATOM     29  C   UNL d   1     -41.123-119.861 -51.465  0.00  0.00     0.019 C 
ATOM     30  C   UNL d   1     -41.158-119.157 -51.023  0.00  0.00     0.002 C 
ENDBRANCH  28  29
ENDBRANCH   6  28
TORSDOF 4
ENDMDL
