MODEL 1
REMARK VINA RESULT:       7.9      0.000      0.000
REMARK  3 active torsions:
REMARK  status: ('A' for Active; 'I' for Inactive)
REMARK    1  A    between atoms: C_6  and  C_3 
REMARK    2  A    between atoms: C_9  and  C_6 
REMARK    3  A    between atoms: C_10  and  C_9 
ROOT
ATOM      1  N   UNL d   1     -51.649  25.218  33.339  0.00  0.00    -0.225 NA
ATOM      2  N   UNL d   1     -50.466  24.573  33.307  0.00  0.00    -0.225 NA
ATOM      3  C   UNL d   1     -51.287  24.452  33.321  0.00  0.00     0.163 A 
ATOM      4  C   UNL d   1     -51.065  25.772  33.337  0.00  0.00     0.101 A 
ATOM      5  C   UNL d   1     -50.319  25.365  33.316  0.00  0.00     0.101 A 
ATOM      6  C   UNL d   1     -51.023  26.596  33.348  0.00  0.00     0.021 A 
ATOM      7  C   UNL d   1     -49.615  25.795  33.309  0.00  0.00     0.021 A 
ATOM      8  C   UNL d   1     -50.372  26.991  33.342  0.00  0.00     0.002 A 
ATOM      9  C   UNL d   1     -49.648  26.596  33.322  0.00  0.00     0.002 A 
ENDROOT
BRANCH   3  10
ATOM     10  C   UNL d   1     -51.681  23.729  33.318  0.00  0.00     0.039 C 
BRANCH  10  11
ATOM     11  C   UNL d   1     -52.506  23.708  33.306  0.00  0.00     0.003 C 
BRANCH  11  12
ATOM     12  C   UNL d   1     -52.915  23.221  33.832  0.00  0.00     0.000 C 
ATOM     13  C   UNL d   1     -53.743  23.201  33.816  0.00  0.00     0.000 C 
ENDBRANCH  11  12
ENDBRANCH  10  11
ENDBRANCH   3  10
TORSDOF 3
ENDMDL
