MODEL 1
REMARK VINA RESULT:      -9.5      0.000      0.000
REMARK  3 active torsions:
REMARK  status: ('A' for Active; 'I' for Inactive)
REMARK    1  A    between atoms: N_2  and  S_1 
REMARK    2  A    between atoms: C_3  and  S_1 
REMARK    3  A    between atoms: O_17  and  C_11 
ROOT
ATOM      1  S   UNL d   1      53.402  32.550  53.732  0.00  0.00     0.274 S 
ATOM      2  O   UNL d   1      54.040  32.621  53.183  0.00  0.00    -0.199 OA
ATOM      3  O   UNL d   1      52.759  32.461  54.265  0.00  0.00    -0.199 OA
ENDROOT
BRANCH   1   4
ATOM      4  N   UNL d   1      53.116  31.898  53.299  0.00  0.00    -0.212 N 
ATOM      5  C   UNL d   1      52.716  31.964  52.591  0.00  0.00     0.193 A 
ATOM      6  N   UNL d   1      52.530  31.162  52.347  0.00  0.00    -0.223 NA
ATOM      7  C   UNL d   1      52.822  30.649  52.912  0.00  0.00     0.100 A 
ATOM      8  C   UNL d   1      53.195  31.112  53.518  0.00  0.00     0.094 A 
ATOM      9  C   UNL d   1      52.809  29.826  52.976  0.00  0.00     0.021 A 
ATOM     10  C   UNL d   1      53.539  30.730  54.161  0.00  0.00     0.020 A 
ATOM     11  C   UNL d   1      53.522  29.907  54.217  0.00  0.00     0.002 A 
ATOM     12  C   UNL d   1      53.165  29.447  53.638  0.00  0.00     0.002 A 
ENDBRANCH   1   4
BRANCH   1  13
ATOM     13  C   UNL d   1      53.705  33.229  54.177  0.00  0.00     0.127 A 
ATOM     14  C   UNL d   1      54.367  33.131  54.634  0.00  0.00     0.026 A 
ATOM     15  C   UNL d   1      54.643  33.807  55.058  0.00  0.00     0.059 A 
ATOM     16 CL   UNL d   1      55.334  33.712  55.536  0.00  0.00    -0.082 Cl
ATOM     17  C   UNL d   1      54.257  34.531  55.009  0.00  0.00     0.013 A 
ATOM     18  C   UNL d   1      53.573  34.599  54.528  0.00  0.00     0.026 A 
ATOM     19  C   UNL d   1      53.302  33.944  54.113  0.00  0.00     0.106 A 
BRANCH  19  20
ATOM     20  O   UNL d   1      52.612  34.039  53.636  0.00  0.00    -0.327 OA
ATOM     21  C   UNL d   1      52.251  34.757  53.529  0.00  0.00     0.181 C 
ENDBRANCH  19  20
ENDBRANCH   1  13
TORSDOF 3
ENDMDL
MODEL 2
REMARK VINA RESULT:      -8.9      1.597      2.261
REMARK  3 active torsions:
REMARK  status: ('A' for Active; 'I' for Inactive)
REMARK    1  A    between atoms: N_2  and  S_1 
REMARK    2  A    between atoms: C_3  and  S_1 
REMARK    3  A    between atoms: O_17  and  C_11 
ROOT
ATOM      1  S   UNL d   1      52.831  32.839  53.301  0.00  0.00     0.274 S 
ATOM      2  O   UNL d   1      53.212  32.958  52.556  0.00  0.00    -0.199 OA
ATOM      3  O   UNL d   1      52.467  32.703  54.044  0.00  0.00    -0.199 OA
ENDROOT
BRANCH   1   4
ATOM      4  N   UNL d   1      53.326  32.183  53.438  0.00  0.00    -0.212 N 
ATOM      5  C   UNL d   1      54.104  32.244  53.675  0.00  0.00     0.193 A 
ATOM      6  N   UNL d   1      54.395  31.439  53.747  0.00  0.00    -0.223 NA
ATOM      7  C   UNL d   1      53.786  30.930  53.552  0.00  0.00     0.100 A 
ATOM      8  C   UNL d   1      53.106  31.398  53.355  0.00  0.00     0.094 A 
ATOM      9  C   UNL d   1      53.739  30.106  53.521  0.00  0.00     0.021 A 
ATOM     10  C   UNL d   1      52.408  31.020  53.135  0.00  0.00     0.020 A 
ATOM     11  C   UNL d   1      52.370  30.196  53.107  0.00  0.00     0.002 A 
ATOM     12  C   UNL d   1      53.020  29.731  53.295  0.00  0.00     0.002 A 
ENDBRANCH   1   4
BRANCH   1  13
ATOM     13  C   UNL d   1      52.320  33.523  53.151  0.00  0.00     0.127 A 
ATOM     14  C   UNL d   1      51.719  33.450  52.612  0.00  0.00     0.026 A 
ATOM     15  C   UNL d   1      51.235  34.130  52.483  0.00  0.00     0.059 A 
ATOM     16 CL   UNL d   1      50.607  34.060  51.922  0.00  0.00    -0.082 Cl
ATOM     17  C   UNL d   1      51.367  34.833  52.888  0.00  0.00     0.013 A 
ATOM     18  C   UNL d   1      51.997  34.875  53.440  0.00  0.00     0.026 A 
ATOM     19  C   UNL d   1      52.471  34.216  53.568  0.00  0.00     0.106 A 
BRANCH  19  20
ATOM     20  O   UNL d   1      53.098  34.286  54.129  0.00  0.00    -0.327 OA
ATOM     21  C   UNL d   1      53.237  34.967  54.546  0.00  0.00     0.181 C 
ENDBRANCH  19  20
ENDBRANCH   1  13
TORSDOF 3
ENDMDL
MODEL 3
REMARK VINA RESULT:      -8.2      1.862      3.520
REMARK  3 active torsions:
REMARK  status: ('A' for Active; 'I' for Inactive)
REMARK    1  A    between atoms: N_2  and  S_1 
REMARK    2  A    between atoms: C_3  and  S_1 
REMARK    3  A    between atoms: O_17  and  C_11 
ROOT
ATOM      1  S   UNL d   1      52.674  32.815  53.226  0.00  0.00     0.274 S 
ATOM      2  O   UNL d   1      52.996  32.786  52.445  0.00  0.00    -0.199 OA
ATOM      3  O   UNL d   1      52.345  32.866  53.996  0.00  0.00    -0.199 OA
ENDROOT
BRANCH   1   4
ATOM      4  N   UNL d   1      52.336  33.555  53.047  0.00  0.00    -0.212 N 
ATOM      5  C   UNL d   1      52.770  34.231  52.908  0.00  0.00     0.193 A 
ATOM      6  N   UNL d   1      52.199  34.853  52.748  0.00  0.00    -0.223 NA
ATOM      7  C   UNL d   1      51.451  34.530  52.796  0.00  0.00     0.100 A 
ATOM      8  C   UNL d   1      51.532  33.707  52.986  0.00  0.00     0.094 A 
ATOM      9  C   UNL d   1      50.697  34.854  52.698  0.00  0.00     0.021 A 
ATOM     10  C   UNL d   1      50.855  33.244  53.068  0.00  0.00     0.020 A 
ATOM     11  C   UNL d   1      50.107  33.577  52.968  0.00  0.00     0.002 A 
ATOM     12  C   UNL d   1      50.014  34.372  52.784  0.00  0.00     0.002 A 
ENDBRANCH   1   4
BRANCH   1  13
ATOM     13  C   UNL d   1      53.030  32.045  53.405  0.00  0.00     0.127 A 
ATOM     14  C   UNL d   1      52.751  31.388  53.020  0.00  0.00     0.026 A 
ATOM     15  C   UNL d   1      53.113  30.650  53.211  0.00  0.00     0.059 A 
ATOM     16 CL   UNL d   1      52.827  29.961  52.813  0.00  0.00    -0.082 Cl
ATOM     17  C   UNL d   1      53.720  30.601  53.763  0.00  0.00     0.013 A 
ATOM     18  C   UNL d   1      53.986  31.300  54.144  0.00  0.00     0.026 A 
ATOM     19  C   UNL d   1      53.636  32.020  53.960  0.00  0.00     0.106 A 
BRANCH  19  20
ATOM     20  O   UNL d   1      53.922  32.708  54.358  0.00  0.00    -0.327 OA
ATOM     21  C   UNL d   1      54.456  32.670  54.967  0.00  0.00     0.181 C 
ENDBRANCH  19  20
ENDBRANCH   1  13
TORSDOF 3
ENDMDL
MODEL 4
REMARK VINA RESULT:      -7.3      1.737      3.480
REMARK  3 active torsions:
REMARK  status: ('A' for Active; 'I' for Inactive)
REMARK    1  A    between atoms: N_2  and  S_1 
REMARK    2  A    between atoms: C_3  and  S_1 
REMARK    3  A    between atoms: O_17  and  C_11 
ROOT
ATOM      1  S   UNL d   1      53.925  31.846  53.686  0.00  0.00     0.274 S 
ATOM      2  O   UNL d   1      54.556  31.459  53.278  0.00  0.00    -0.199 OA
ATOM      3  O   UNL d   1      53.313  32.250  54.094  0.00  0.00    -0.199 OA
ENDROOT
BRANCH   1   4
ATOM      4  N   UNL d   1      54.420  32.508  53.799  0.00  0.00    -0.212 N 
ATOM      5  C   UNL d   1      54.852  32.858  53.203  0.00  0.00     0.193 A 
ATOM      6  N   UNL d   1      55.275  33.511  53.567  0.00  0.00    -0.223 NA
ATOM      7  C   UNL d   1      55.081  33.529  54.361  0.00  0.00     0.100 A 
ATOM      8  C   UNL d   1      54.539  32.894  54.512  0.00  0.00     0.094 A 
ATOM      9  C   UNL d   1      55.313  34.025  54.979  0.00  0.00     0.021 A 
ATOM     10  C   UNL d   1      54.253  32.784  55.277  0.00  0.00     0.020 A 
ATOM     11  C   UNL d   1      54.489  33.284  55.888  0.00  0.00     0.002 A 
ATOM     12  C   UNL d   1      55.014  33.903  55.755  0.00  0.00     0.002 A 
ENDBRANCH   1   4
BRANCH   1  13
ATOM     13  C   UNL d   1      53.418  31.155  53.564  0.00  0.00     0.127 A 
ATOM     14  C   UNL d   1      53.624  30.453  53.914  0.00  0.00     0.026 A 
ATOM     15  C   UNL d   1      53.113  29.794  53.780  0.00  0.00     0.059 A 
ATOM     16 CL   UNL d   1      53.323  29.060  54.142  0.00  0.00    -0.082 Cl
ATOM     17  C   UNL d   1      52.438  29.862  53.317  0.00  0.00     0.013 A 
ATOM     18  C   UNL d   1      52.253  30.602  52.969  0.00  0.00     0.026 A 
ATOM     19  C   UNL d   1      52.747  31.246  53.096  0.00  0.00     0.106 A 
BRANCH  19  20
ATOM     20  O   UNL d   1      52.537  31.980  52.734  0.00  0.00    -0.327 OA
ATOM     21  C   UNL d   1      51.784  32.143  52.483  0.00  0.00     0.181 C 
ENDBRANCH  19  20
ENDBRANCH   1  13
TORSDOF 3
ENDMDL
MODEL 5
REMARK VINA RESULT:      -7.3      1.665      3.242
REMARK  3 active torsions:
REMARK  status: ('A' for Active; 'I' for Inactive)
REMARK    1  A    between atoms: N_2  and  S_1 
REMARK    2  A    between atoms: C_3  and  S_1 
REMARK    3  A    between atoms: O_17  and  C_11 
ROOT
ATOM      1  S   UNL d   1      52.478  33.611  53.269  0.00  0.00     0.274 S 
ATOM      2  O   UNL d   1      53.003  34.200  52.968  0.00  0.00    -0.199 OA
ATOM      3  O   UNL d   1      51.939  33.033  53.551  0.00  0.00    -0.199 OA
ENDROOT
BRANCH   1   4
ATOM      4  N   UNL d   1      51.912  33.842  52.702  0.00  0.00    -0.212 N 
ATOM      5  C   UNL d   1      52.032  33.794  51.897  0.00  0.00     0.193 A 
ATOM      6  N   UNL d   1      51.311  34.088  51.531  0.00  0.00    -0.223 NA
ATOM      7  C   UNL d   1      50.792  34.299  52.125  0.00  0.00     0.100 A 
ATOM      8  C   UNL d   1      51.169  34.145  52.869  0.00  0.00     0.094 A 
ATOM      9  C   UNL d   1      50.027  34.610  52.110  0.00  0.00     0.021 A 
ATOM     10  C   UNL d   1      50.763  34.309  53.567  0.00  0.00     0.020 A 
ATOM     11  C   UNL d   1      49.999  34.620  53.543  0.00  0.00     0.002 A 
ATOM     12  C   UNL d   1      49.623  34.774  52.829  0.00  0.00     0.002 A 
ENDBRANCH   1   4
BRANCH   1  13
ATOM     13  C   UNL d   1      53.071  33.377  53.855  0.00  0.00     0.127 A 
ATOM     14  C   UNL d   1      53.307  33.920  54.409  0.00  0.00     0.026 A 
ATOM     15  C   UNL d   1      53.886  33.668  54.970  0.00  0.00     0.059 A 
ATOM     16 CL   UNL d   1      54.136  34.229  55.550  0.00  0.00    -0.082 Cl
ATOM     17  C   UNL d   1      54.195  32.906  54.954  0.00  0.00     0.013 A 
ATOM     18  C   UNL d   1      53.929  32.368  54.367  0.00  0.00     0.026 A 
ATOM     19  C   UNL d   1      53.366  32.610  53.820  0.00  0.00     0.106 A 
BRANCH  19  20
ATOM     20  O   UNL d   1      53.116  32.049  53.240  0.00  0.00    -0.327 OA
ATOM     21  C   UNL d   1      53.375  31.281  53.236  0.00  0.00     0.181 C 
ENDBRANCH  19  20
ENDBRANCH   1  13
TORSDOF 3
ENDMDL
MODEL 6
REMARK VINA RESULT:      -6.8      2.818      4.237
REMARK  3 active torsions:
REMARK  status: ('A' for Active; 'I' for Inactive)
REMARK    1  A    between atoms: N_2  and  S_1 
REMARK    2  A    between atoms: C_3  and  S_1 
REMARK    3  A    between atoms: O_17  and  C_11 
ROOT
ATOM      1  S   UNL d   1      51.047  34.016  52.969  0.00  0.00     0.274 S 
ATOM      2  O   UNL d   1      50.669  33.517  53.536  0.00  0.00    -0.199 OA
ATOM      3  O   UNL d   1      51.401  34.524  52.403  0.00  0.00    -0.199 OA
ENDROOT
BRANCH   1   4
ATOM      4  N   UNL d   1      50.323  34.414  52.854  0.00  0.00    -0.212 N 
ATOM      5  C   UNL d   1      49.950  34.852  53.432  0.00  0.00     0.193 A 
ATOM      6  N   UNL d   1      49.232  35.158  53.072  0.00  0.00    -0.223 NA
ATOM      7  C   UNL d   1      49.202  34.895  52.300  0.00  0.00     0.100 A 
ATOM      8  C   UNL d   1      49.893  34.423  52.157  0.00  0.00     0.094 A 
ATOM      9  C   UNL d   1      48.652  35.010  51.694  0.00  0.00     0.021 A 
ATOM     10  C   UNL d   1      50.002  34.086  51.413  0.00  0.00     0.020 A 
ATOM     11  C   UNL d   1      49.448  34.206  50.814  0.00  0.00     0.002 A 
ATOM     12  C   UNL d   1      48.775  34.660  50.939  0.00  0.00     0.002 A 
ENDBRANCH   1   4
BRANCH   1  13
ATOM     13  C   UNL d   1      51.795  33.597  53.094  0.00  0.00     0.127 A 
ATOM     14  C   UNL d   1      51.853  32.824  52.857  0.00  0.00     0.026 A 
ATOM     15  C   UNL d   1      52.593  32.438  52.990  0.00  0.00     0.059 A 
ATOM     16 CL   UNL d   1      52.660  31.632  52.745  0.00  0.00    -0.082 Cl
ATOM     17  C   UNL d   1      53.223  32.829  53.343  0.00  0.00     0.013 A 
ATOM     18  C   UNL d   1      53.130  33.629  53.577  0.00  0.00     0.026 A 
ATOM     19  C   UNL d   1      52.413  34.008  53.450  0.00  0.00     0.106 A 
BRANCH  19  20
ATOM     20  O   UNL d   1      52.346  34.814  53.694  0.00  0.00    -0.327 OA
ATOM     21  C   UNL d   1      52.941  35.203  54.084  0.00  0.00     0.181 C 
ENDBRANCH  19  20
ENDBRANCH   1  13
TORSDOF 3
ENDMDL
MODEL 7
REMARK VINA RESULT:      -6.8      1.754      3.441
REMARK  3 active torsions:
REMARK  status: ('A' for Active; 'I' for Inactive)
REMARK    1  A    between atoms: N_2  and  S_1 
REMARK    2  A    between atoms: C_3  and  S_1 
REMARK    3  A    between atoms: O_17  and  C_11 
ROOT
ATOM      1  S   UNL d   1      53.117  33.097  53.519  0.00  0.00     0.274 S 
ATOM      2  O   UNL d   1      53.278  33.565  52.834  0.00  0.00    -0.199 OA
ATOM      3  O   UNL d   1      52.980  32.634  54.205  0.00  0.00    -0.199 OA
ENDROOT
BRANCH   1   4
ATOM      4  N   UNL d   1      53.926  33.127  53.717  0.00  0.00    -0.212 N 
ATOM      5  C   UNL d   1      54.516  32.797  53.263  0.00  0.00     0.193 A 
ATOM      6  N   UNL d   1      55.253  32.960  53.673  0.00  0.00    -0.223 NA
ATOM      7  C   UNL d   1      55.078  33.378  54.353  0.00  0.00     0.100 A 
ATOM      8  C   UNL d   1      54.237  33.487  54.385  0.00  0.00     0.094 A 
ATOM      9  C   UNL d   1      55.553  33.682  54.956  0.00  0.00     0.021 A 
ATOM     10  C   UNL d   1      53.909  33.896  55.020  0.00  0.00     0.020 A 
ATOM     11  C   UNL d   1      54.391  34.196  55.618  0.00  0.00     0.002 A 
ATOM     12  C   UNL d   1      55.206  34.098  55.600  0.00  0.00     0.002 A 
ENDBRANCH   1   4
BRANCH   1  13
ATOM     13  C   UNL d   1      52.277  33.070  53.307  0.00  0.00     0.127 A 
ATOM     14  C   UNL d   1      51.855  33.763  53.296  0.00  0.00     0.026 A 
ATOM     15  C   UNL d   1      51.039  33.711  53.086  0.00  0.00     0.059 A 
ATOM     16 CL   UNL d   1      50.594  34.429  53.073  0.00  0.00    -0.082 Cl
ATOM     17  C   UNL d   1      50.689  32.990  52.901  0.00  0.00     0.013 A 
ATOM     18  C   UNL d   1      51.154  32.292  52.922  0.00  0.00     0.026 A 
ATOM     19  C   UNL d   1      51.948  32.338  53.125  0.00  0.00     0.106 A 
BRANCH  19  20
ATOM     20  O   UNL d   1      52.393  31.620  53.138  0.00  0.00    -0.327 OA
ATOM     21  C   UNL d   1      52.075  30.907  52.922  0.00  0.00     0.181 C 
ENDBRANCH  19  20
ENDBRANCH   1  13
TORSDOF 3
ENDMDL
