MODEL 1
REMARK VINA RESULT:      70.2      0.000      0.000
REMARK  6 active torsions:
REMARK  status: ('A' for Active; 'I' for Inactive)
REMARK    1  A    between atoms: S_3  and  N_1 
REMARK    2  A    between atoms: C_19  and  S_3 
REMARK    3  A    between atoms: S_4  and  N_8 
REMARK    4  A    between atoms: C_11  and  C_5 
REMARK    5  A    between atoms: C_12  and  C_6 
REMARK    6  A    between atoms: N_8  and  C_20 
ROOT
ATOM      1  N   UNL d   1     -55.211-101.319 -43.212  0.00  0.00    -0.152 N 
ATOM      2  N   UNL d   1     -54.892-101.746 -42.575  0.00  0.00    -0.155 NA
ATOM      3  C   UNL d   1     -55.806-100.821 -42.909  0.00  0.00     0.096 A 
ATOM      4  C   UNL d   1     -55.284-101.514 -41.885  0.00  0.00     0.104 A 
ATOM      5  C   UNL d   1     -55.847-100.944 -42.096  0.00  0.00     0.041 A 
ENDROOT
BRANCH   4   6
ATOM      6  C   UNL d   1     -55.142-101.799 -41.125  0.00  0.00     0.019 A 
ATOM      7  C   UNL d   1     -54.931-102.597 -41.014  0.00  0.00     0.003 A 
ATOM      8  C   UNL d   1     -54.789-102.879 -40.256  0.00  0.00     0.020 A 
ATOM      9  C   UNL d   1     -54.855-102.376 -39.601  0.00  0.00     0.093 A 
ATOM     10  C   UNL d   1     -55.066-101.581 -39.716  0.00  0.00     0.020 A 
ATOM     11  C   UNL d   1     -55.209-101.294 -40.482  0.00  0.00     0.003 A 
BRANCH   9  12
ATOM     12  N   UNL d   1     -54.713-102.654 -38.835  0.00  0.00    -0.162 NA
BRANCH  12  13
ATOM     13  S   UNL d   1     -55.314-102.677 -38.278  0.00  0.00     0.266 S 
ATOM     14  O   UNL d   1     -55.785-102.635 -38.961  0.00  0.00    -0.203 OA
ATOM     15  O   UNL d   1     -56.097-102.682 -38.002  0.00  0.00    -0.203 OA
ATOM     16  C   UNL d   1     -54.870-102.718 -37.584  0.00  0.00     0.165 C 
ENDBRANCH  12  13
ENDBRANCH   9  12
ENDBRANCH   4   6
BRANCH   1  17
ATOM     17  S   UNL d   1     -54.975-101.385 -44.002  0.00  0.00     0.287 S 
ATOM     18  O   UNL d   1     -54.717-101.034 -44.705  0.00  0.00    -0.198 OA
ATOM     19  O   UNL d   1     -55.001-100.642 -43.637  0.00  0.00    -0.198 OA
BRANCH  17  20
ATOM     20  C   UNL d   1     -54.971-102.147 -44.302  0.00  0.00     0.118 C 
ATOM     21  C   UNL d   1     -54.932-102.265 -45.123  0.00  0.00     0.014 C 
ENDBRANCH  17  20
ENDBRANCH   1  17
BRANCH   3  22
ATOM     22  C   UNL d   1     -56.263-100.304 -43.351  0.00  0.00     0.019 A 
ATOM     23  C   UNL d   1     -57.085-100.359 -43.314  0.00  0.00     0.004 A 
ATOM     24  C   UNL d   1     -57.552 -99.841 -43.757  0.00  0.00     0.030 A 
ATOM     25  C   UNL d   1     -57.192 -99.279 -44.229  0.00  0.00     0.140 A 
ATOM     26  C   UNL d   1     -56.381 -99.225 -44.265  0.00  0.00     0.030 A 
ATOM     27  F   UNL d   1     -57.664 -98.756 -44.675  0.00  0.00    -0.204 F 
ATOM     28  C   UNL d   1     -55.910 -99.734 -43.829  0.00  0.00     0.004 A 
ENDBRANCH   3  22
TORSDOF 6
ENDMDL
