MODEL 1
REMARK VINA RESULT:      43.1      0.000      0.000
REMARK  4 active torsions:
REMARK  status: ('A' for Active; 'I' for Inactive)
REMARK    1  A    between atoms: N_3  and  S_1 
REMARK    2  A    between atoms: N_4  and  S_1 
REMARK    3  A    between atoms: N_2  and  C_7 
REMARK    4  A    between atoms: C_10  and  N_4 
ROOT
ATOM      1  N   UNL d   1     -55.484-101.569 -41.179  0.00  0.00    -0.144 NA
ENDROOT
BRANCH   1   2
ATOM      2  S   UNL d   1     -55.100-102.153 -40.739  0.00  0.00     0.351 S 
ATOM      3  O   UNL d   1     -54.987-102.596 -41.425  0.00  0.00    -0.180 OA
ATOM      4  O   UNL d   1     -54.712-102.879 -40.700  0.00  0.00    -0.180 OA
BRANCH   2   5
ATOM      5  N   UNL d   1     -55.006-102.060 -39.924  0.00  0.00    -0.215 N 
ATOM      6  C   UNL d   1     -54.813-101.321 -39.613  0.00  0.00     0.093 A 
ATOM      7  C   UNL d   1     -54.720-101.228 -38.799  0.00  0.00     0.020 A 
ATOM      8  C   UNL d   1     -54.820-101.874 -38.300  0.00  0.00     0.003 A 
ATOM      9  C   UNL d   1     -55.012-102.613 -38.607  0.00  0.00     0.020 A 
ATOM     10  C   UNL d   1     -55.106-102.706 -39.421  0.00  0.00     0.093 A 
ENDBRANCH   2   5
ENDBRANCH   1   2
BRANCH   1  11
ATOM     11  C   UNL d   1     -55.324-101.489 -41.985  0.00  0.00     0.095 A 
ATOM     12  C   UNL d   1     -55.234-100.737 -42.314  0.00  0.00     0.022 A 
ATOM     13  C   UNL d   1     -55.074-100.656 -43.119  0.00  0.00     0.025 A 
ATOM     14  C   UNL d   1     -55.004-101.327 -43.595  0.00  0.00     0.127 A 
ATOM     15  C   UNL d   1     -55.094-102.083 -43.266  0.00  0.00     0.025 A 
ATOM     16  C   UNL d   1     -55.254-102.163 -42.461  0.00  0.00     0.022 A 
BRANCH  14  17
ATOM     17  N   UNL d   1     -54.844-101.246 -44.401  0.00  0.00    -0.114 N 
ATOM     18  O   UNL d   1     -54.815-101.918 -44.884  0.00  0.00    -0.532 OA
ATOM     19  O   UNL d   1     -54.713-100.497 -44.721  0.00  0.00    -0.532 OA
ENDBRANCH  14  17
ENDBRANCH   1  11
TORSDOF 4
ENDMDL
