MODEL 1
REMARK VINA RESULT:      53.2      0.000      0.000
REMARK  5 active torsions:
REMARK  status: ('A' for Active; 'I' for Inactive)
REMARK    1  A    between atoms: N_2  and  S_1 
REMARK    2  A    between atoms: C_3  and  S_1 
REMARK    3  A    between atoms: C_14  and  C_5 
REMARK    4  A    between atoms: O_15  and  C_8 
REMARK    5  A    between atoms: C_18  and  C_14 
ROOT
ATOM      1  C   UNL d   1     -51.251  26.394  33.899  0.00  0.00     0.104 A 
ATOM      2  C   UNL d   1     -51.120  25.580  33.860  0.00  0.00     0.015 A 
ATOM      3  C   UNL d   1     -51.739  25.070  33.663  0.00  0.00     0.023 A 
ATOM      4  C   UNL d   1     -52.490  25.373  33.505  0.00  0.00     0.094 A 
ATOM      5  C   UNL d   1     -52.002  26.697  33.740  0.00  0.00     0.015 A 
ATOM      6  C   UNL d   1     -52.621  26.187  33.543  0.00  0.00     0.025 A 
ENDROOT
BRANCH   1   7
ATOM      7  S   UNL d   1     -50.632  26.905  34.095  0.00  0.00     0.272 S 
ATOM      8  O   UNL d   1     -50.601  27.169  33.313  0.00  0.00    -0.200 OA
ATOM      9  O   UNL d   1     -50.663  26.640  34.878  0.00  0.00    -0.200 OA
BRANCH   7  10
ATOM     10  N   UNL d   1     -50.015  27.413  34.291  0.00  0.00    -0.225 N 
ATOM     11  C   UNL d   1     -49.406  27.154  34.784  0.00  0.00     0.118 A 
ATOM     12  C   UNL d   1     -48.787  27.664  34.981  0.00  0.00     0.142 A 
ATOM     13  O   UNL d   1     -48.776  28.434  34.685  0.00  0.00    -0.300 OA
ATOM     14  C   UNL d   1     -49.384  28.694  34.192  0.00  0.00     0.142 A 
ATOM     15  C   UNL d   1     -50.004  28.183  33.995  0.00  0.00     0.118 A 
ENDBRANCH   7  10
ENDBRANCH   1   7
BRANCH   3  16
ATOM     16  C   UNL d   1     -51.609  24.257  33.625  0.00  0.00     0.002 C 
ATOM     17  C   UNL d   1     -52.227  23.753  33.412  0.00  0.00     0.000 C 
BRANCH  16  18
ATOM     18  C   UNL d   1     -50.863  23.948  33.799  0.00  0.00     0.000 C 
ATOM     19  C   UNL d   1     -50.526  23.378  33.306  0.00  0.00     0.000 C 
ENDBRANCH  16  18
ENDBRANCH   3  16
BRANCH   4  20
ATOM     20  O   UNL d   1     -53.109  24.862  33.308  0.00  0.00    -0.328 OA
ATOM     21  C   UNL d   1     -53.865  24.992  33.613  0.00  0.00     0.181 C 
ENDBRANCH   4  20
TORSDOF 5
ENDMDL
MODEL 2
REMARK VINA RESULT:      53.7      4.694      6.543
REMARK  5 active torsions:
REMARK  status: ('A' for Active; 'I' for Inactive)
REMARK    1  A    between atoms: N_2  and  S_1 
REMARK    2  A    between atoms: C_3  and  S_1 
REMARK    3  A    between atoms: C_14  and  C_5 
REMARK    4  A    between atoms: O_15  and  C_8 
REMARK    5  A    between atoms: C_18  and  C_14 
ROOT
ATOM      1  C   UNL d   1     -47.403  31.188  35.269  0.00  0.00     0.104 A 
ATOM      2  C   UNL d   1     -47.804  30.467  35.245  0.00  0.00     0.015 A 
ATOM      3  C   UNL d   1     -47.564  29.844  35.732  0.00  0.00     0.023 A 
ATOM      4  C   UNL d   1     -46.923  29.940  36.242  0.00  0.00     0.094 A 
ATOM      5  C   UNL d   1     -46.762  31.285  35.779  0.00  0.00     0.015 A 
ATOM      6  C   UNL d   1     -46.522  30.661  36.266  0.00  0.00     0.025 A 
ENDROOT
BRANCH   1   7
ATOM      7  S   UNL d   1     -47.643  31.811  34.782  0.00  0.00     0.272 S 
ATOM      8  O   UNL d   1     -47.232  32.344  35.262  0.00  0.00    -0.200 OA
ATOM      9  O   UNL d   1     -48.054  31.278  34.302  0.00  0.00    -0.200 OA
BRANCH   7  10
ATOM     10  N   UNL d   1     -47.882  32.432  34.298  0.00  0.00    -0.225 N 
ATOM     11  C   UNL d   1     -48.680  32.636  34.252  0.00  0.00     0.118 A 
ATOM     12  C   UNL d   1     -48.920  33.260  33.765  0.00  0.00     0.142 A 
ATOM     13  O   UNL d   1     -48.362  33.679  33.325  0.00  0.00    -0.300 OA
ATOM     14  C   UNL d   1     -47.564  33.475  33.371  0.00  0.00     0.142 A 
ATOM     15  C   UNL d   1     -47.324  32.851  33.858  0.00  0.00     0.118 A 
ENDBRANCH   7  10
ENDBRANCH   1   7
BRANCH   3  16
ATOM     16  C   UNL d   1     -47.964  29.123  35.709  0.00  0.00     0.002 C 
ATOM     17  C   UNL d   1     -48.465  28.913  36.330  0.00  0.00     0.000 C 
BRANCH  16  18
ATOM     18  C   UNL d   1     -47.863  28.613  35.067  0.00  0.00     0.000 C 
ATOM     19  C   UNL d   1     -48.448  28.061  34.881  0.00  0.00     0.000 C 
ENDBRANCH  16  18
ENDBRANCH   3  16
BRANCH   4  20
ATOM     20  O   UNL d   1     -46.683  29.317  36.729  0.00  0.00    -0.328 OA
ATOM     21  C   UNL d   1     -46.015  29.398  37.207  0.00  0.00     0.181 C 
ENDBRANCH   4  20
TORSDOF 5
ENDMDL
