MODEL 1
REMARK VINA RESULT:      -6.4      0.000      0.000
REMARK  4 active torsions:
REMARK  status: ('A' for Active; 'I' for Inactive)
REMARK    1  A    between atoms: C_6  and  N_2 
REMARK    2  A    between atoms: C_11  and  C_6 
REMARK    3  A    between atoms: C_10  and  C_11 
REMARK       I    between atoms: N_14  and  C_10 
REMARK    4  A    between atoms: C_16  and  N_14 
ROOT
ATOM      1  C   UNL d   1     -42.013-122.526 -50.770  0.00  0.00     0.082 C 
ENDROOT
BRANCH   1   2
ATOM      2  C   UNL d   1     -41.871-122.619 -51.490  0.00  0.00     0.281 C 
ATOM      3  N   UNL d   1     -41.240-122.852 -51.961  0.00  0.00    -0.208 NA
ATOM      4  O   UNL d   1     -42.596-122.392 -51.573  0.00  0.00    -0.265 OA
BRANCH   3   5
ATOM      5  C   UNL d   1     -41.335-122.876 -52.785  0.00  0.00     0.087 A 
ATOM      6  C   UNL d   1     -41.567-122.196 -53.184  0.00  0.00     0.046 A 
ATOM      7  C   UNL d   1     -41.661-122.221 -54.008  0.00  0.00     0.124 A 
ATOM      8  O   UNL d   1     -41.893-121.542 -54.406  0.00  0.00    -0.301 OA
ATOM      9  C   UNL d   1     -41.526-122.909 -54.423  0.00  0.00     0.123 A 
ATOM     10  C   UNL d   1     -41.990-121.551 -55.221  0.00  0.00     0.149 A 
ATOM     11  C   UNL d   1     -41.852-122.252 -55.633  0.00  0.00     0.149 A 
ATOM     12  O   UNL d   1     -41.620-122.931 -55.235  0.00  0.00    -0.301 OA
ATOM     13  C   UNL d   1     -41.294-123.586 -54.012  0.00  0.00     0.028 A 
ATOM     14  C   UNL d   1     -41.197-123.576 -53.198  0.00  0.00     0.021 A 
ENDBRANCH   3   5
ENDBRANCH   1   2
BRANCH   1  15
ATOM     15  C   UNL d   1     -41.894-122.862 -50.033  0.00  0.00     0.100 C 
BRANCH  15  16
ATOM     16  N   UNL d   1     -42.357-123.177 -49.453  0.00  0.00    -0.197 N 
ATOM     17  S   UNL d   1     -42.887-123.515 -48.891  0.00  0.00     0.274 S 
ATOM     18  C   UNL d   1     -42.498-123.518 -48.137  0.00  0.00     0.109 A 
ATOM     19  O   UNL d   1     -43.232-123.817 -48.142  0.00  0.00    -0.200 OA
ATOM     20  O   UNL d   1     -43.653-123.782 -49.109  0.00  0.00    -0.200 OA
ATOM     21  C   UNL d   1     -41.734-123.183 -48.238  0.00  0.00     0.069 A 
ATOM     22  C   UNL d   1     -42.742-123.781 -47.380  0.00  0.00     0.013 A 
ATOM     23  C   UNL d   1     -41.211-123.109 -47.582  0.00  0.00     0.005 A 
ATOM     24  C   UNL d   1     -41.646-122.973 -49.046  0.00  0.00     0.275 A 
ATOM     25  C   UNL d   1     -41.465-123.375 -46.833  0.00  0.00     0.000 A 
ATOM     26  C   UNL d   1     -42.228-123.709 -46.732  0.00  0.00     0.001 A 
ATOM     27  O   UNL d   1     -41.123-122.678 -49.418  0.00  0.00    -0.266 OA
ENDBRANCH  15  16
ENDBRANCH   1  15
TORSDOF 4
ENDMDL
MODEL 2
REMARK VINA RESULT:      -5.8      1.324      5.829
REMARK  4 active torsions:
REMARK  status: ('A' for Active; 'I' for Inactive)
REMARK    1  A    between atoms: C_6  and  N_2 
REMARK    2  A    between atoms: C_11  and  C_6 
REMARK    3  A    between atoms: C_10  and  C_11 
REMARK       I    between atoms: N_14  and  C_10 
REMARK    4  A    between atoms: C_16  and  N_14 
ROOT
ATOM      1  C   UNL d   1     -41.691-122.311 -51.454  0.00  0.00     0.082 C 
ENDROOT
BRANCH   1   2
ATOM      2  C   UNL d   1     -41.825-122.610 -50.791  0.00  0.00     0.281 C 
ATOM      3  N   UNL d   1     -41.727-123.335 -50.418  0.00  0.00    -0.208 NA
ATOM      4  O   UNL d   1     -42.095-121.914 -50.629  0.00  0.00    -0.265 OA
BRANCH   3   5
ATOM      5  C   UNL d   1     -41.969-123.422 -49.629  0.00  0.00     0.087 A 
ATOM      6  C   UNL d   1     -41.425-123.307 -49.026  0.00  0.00     0.046 A 
ATOM      7  C   UNL d   1     -41.667-123.395 -48.237  0.00  0.00     0.124 A 
ATOM      8  O   UNL d   1     -41.123-123.280 -47.633  0.00  0.00    -0.301 OA
ATOM      9  C   UNL d   1     -42.437-123.594 -48.057  0.00  0.00     0.123 A 
ATOM     10  C   UNL d   1     -41.348-123.364 -46.849  0.00  0.00     0.149 A 
ATOM     11  C   UNL d   1     -42.129-123.565 -46.676  0.00  0.00     0.149 A 
ATOM     12  O   UNL d   1     -42.674-123.680 -47.279  0.00  0.00    -0.301 OA
ATOM     13  C   UNL d   1     -42.975-123.707 -48.671  0.00  0.00     0.028 A 
ATOM     14  C   UNL d   1     -42.750-123.623 -49.455  0.00  0.00     0.021 A 
ENDBRANCH   3   5
ENDBRANCH   1   2
BRANCH   1  15
ATOM     15  C   UNL d   1     -41.692-122.476 -52.256  0.00  0.00     0.100 C 
BRANCH  15  16
ATOM     16  N   UNL d   1     -41.995-122.137 -52.921  0.00  0.00    -0.197 N 
ATOM     17  S   UNL d   1     -42.345-121.742 -53.579  0.00  0.00     0.274 S 
ATOM     18  C   UNL d   1     -42.045-122.101 -54.287  0.00  0.00     0.109 A 
ATOM     19  O   UNL d   1     -42.559-121.508 -54.398  0.00  0.00    -0.200 OA
ATOM     20  O   UNL d   1     -42.890-121.110 -53.478  0.00  0.00    -0.200 OA
ATOM     21  C   UNL d   1     -41.513-122.711 -54.063  0.00  0.00     0.069 A 
ATOM     22  C   UNL d   1     -42.188-121.948 -55.098  0.00  0.00     0.013 A 
ATOM     23  C   UNL d   1     -41.123-123.172 -54.649  0.00  0.00     0.005 A 
ATOM     24  C   UNL d   1     -41.482-122.735 -53.224  0.00  0.00     0.275 A 
ATOM     25  C   UNL d   1     -41.272-123.012 -55.453  0.00  0.00     0.000 A 
ATOM     26  C   UNL d   1     -41.803-122.401 -55.677  0.00  0.00     0.001 A 
ATOM     27  O   UNL d   1     -41.129-123.136 -52.761  0.00  0.00    -0.266 OA
ENDBRANCH  15  16
ENDBRANCH   1  15
TORSDOF 4
ENDMDL
