MODEL 1
REMARK VINA RESULT:      -8.8      0.000      0.000
REMARK  1 active torsions:
REMARK  status: ('A' for Active; 'I' for Inactive)
REMARK    1  A    between atoms: N_2  and  C_1 
ROOT
ATOM      1  C   UNL d   1     -47.968  13.371  22.830  0.00  0.00     0.110 A 
ATOM      2  C   UNL d   1     -47.908  12.626  23.211  0.00  0.00     0.212 A 
ATOM      3  C   UNL d   1     -47.291  13.727  22.510  0.00  0.00     0.056 A 
ATOM      4  C   UNL d   1     -47.177  12.255  23.264  0.00  0.00     0.046 A 
ATOM      5  S   UNL d   1     -46.552  13.338  22.572  0.00  0.00    -0.085 SA
ATOM      6  C   UNL d   1     -46.496  12.606  22.947  0.00  0.00     0.033 A 
ATOM      7  O   UNL d   1     -48.579  12.273  23.527  0.00  0.00    -0.285 OA
ATOM      8  C   UNL d   1     -47.114  11.524  23.638  0.00  0.00     0.004 A 
ATOM      9  C   UNL d   1     -45.768  12.231  23.003  0.00  0.00     0.007 A 
ATOM     10  C   UNL d   1     -46.389  11.143  23.697  0.00  0.00     0.000 A 
ATOM     11  C   UNL d   1     -45.712  11.499  23.378  0.00  0.00     0.001 A 
ENDROOT
BRANCH   1  12
ATOM     12  N   UNL d   1     -48.701  13.751  22.772  0.00  0.00    -0.301 N 
ATOM     13  C   UNL d   1     -48.871  14.388  23.251  0.00  0.00     0.080 A 
ATOM     14  C   UNL d   1     -49.604  14.772  23.196  0.00  0.00     0.018 A 
ATOM     15  C   UNL d   1     -49.773  15.412  23.679  0.00  0.00     0.002 A 
ATOM     16  C   UNL d   1     -50.162  14.507  22.653  0.00  0.00     0.003 A 
ATOM     17  C   UNL d   1     -50.504  15.793  23.623  0.00  0.00     0.000 A 
ATOM     18  C   UNL d   1     -51.064  15.528  23.078  0.00  0.00     0.000 A 
ATOM     19  C   UNL d   1     -50.892  14.881  22.591  0.00  0.00     0.000 A 
ATOM     20  C   UNL d   1     -49.994  13.855  22.158  0.00  0.00     0.019 A 
ATOM     21  C   UNL d   1     -49.263  13.485  22.224  0.00  0.00     0.080 A 
ENDBRANCH   1  12
TORSDOF 1
ENDMDL
MODEL 2
REMARK VINA RESULT:      -8.3      1.035      4.260
REMARK  1 active torsions:
REMARK  status: ('A' for Active; 'I' for Inactive)
REMARK    1  A    between atoms: N_2  and  C_1 
ROOT
ATOM      1  C   UNL d   1     -48.336  13.690  22.764  0.00  0.00     0.110 A 
ATOM      2  C   UNL d   1     -48.861  13.517  22.133  0.00  0.00     0.212 A 
ATOM      3  C   UNL d   1     -48.545  14.259  23.330  0.00  0.00     0.056 A 
ATOM      4  C   UNL d   1     -49.579  13.913  22.081  0.00  0.00     0.046 A 
ATOM      5  S   UNL d   1     -49.279  14.656  23.265  0.00  0.00    -0.085 SA
ATOM      6  C   UNL d   1     -49.793  14.483  22.644  0.00  0.00     0.033 A 
ATOM      7  O   UNL d   1     -48.654  12.953  21.572  0.00  0.00    -0.285 OA
ATOM      8  C   UNL d   1     -50.097  13.746  21.463  0.00  0.00     0.004 A 
ATOM      9  C   UNL d   1     -50.512  14.877  22.588  0.00  0.00     0.007 A 
ATOM     10  C   UNL d   1     -50.817  14.135  21.401  0.00  0.00     0.000 A 
ATOM     11  C   UNL d   1     -51.025  14.704  21.967  0.00  0.00     0.001 A 
ENDROOT
BRANCH   1  12
ATOM     12  N   UNL d   1     -47.611  13.296  22.823  0.00  0.00    -0.301 N 
ATOM     13  C   UNL d   1     -47.568  12.573  23.197  0.00  0.00     0.080 A 
ATOM     14  C   UNL d   1     -46.844  12.174  23.259  0.00  0.00     0.018 A 
ATOM     15  C   UNL d   1     -46.802  11.447  23.635  0.00  0.00     0.002 A 
ATOM     16  C   UNL d   1     -46.166  12.512  22.940  0.00  0.00     0.003 A 
ATOM     17  C   UNL d   1     -46.080  11.051  23.696  0.00  0.00     0.000 A 
ATOM     18  C   UNL d   1     -45.399  11.390  23.376  0.00  0.00     0.000 A 
ATOM     19  C   UNL d   1     -45.442  12.124  22.996  0.00  0.00     0.000 A 
ATOM     20  C   UNL d   1     -46.203  13.253  22.555  0.00  0.00     0.019 A 
ATOM     21  C   UNL d   1     -46.927  13.636  22.502  0.00  0.00     0.080 A 
ENDBRANCH   1  12
TORSDOF 1
ENDMDL
MODEL 3
REMARK VINA RESULT:      -6.8      9.221     10.271
REMARK  1 active torsions:
REMARK  status: ('A' for Active; 'I' for Inactive)
REMARK    1  A    between atoms: N_2  and  C_1 
ROOT
ATOM      1  C   UNL d   1     -39.430  14.985  19.429  0.00  0.00     0.110 A 
ATOM      2  C   UNL d   1     -40.073  14.735  18.951  0.00  0.00     0.212 A 
ATOM      3  C   UNL d   1     -38.894  15.546  19.137  0.00  0.00     0.056 A 
ATOM      4  C   UNL d   1     -40.166  15.049  18.198  0.00  0.00     0.046 A 
ATOM      5  S   UNL d   1     -39.000  15.858  18.368  0.00  0.00    -0.085 SA
ATOM      6  C   UNL d   1     -39.633  15.610  17.901  0.00  0.00     0.033 A 
ATOM      7  O   UNL d   1     -40.605  14.179  19.240  0.00  0.00    -0.285 OA
ATOM      8  C   UNL d   1     -40.796  14.806  17.726  0.00  0.00     0.004 A 
ATOM      9  C   UNL d   1     -39.730  15.922  17.147  0.00  0.00     0.007 A 
ATOM     10  C   UNL d   1     -40.899  15.113  16.972  0.00  0.00     0.000 A 
ATOM     11  C   UNL d   1     -40.362  15.674  16.681  0.00  0.00     0.001 A 
ENDROOT
BRANCH   1  12
ATOM     12  N   UNL d   1     -39.330  14.673  20.188  0.00  0.00    -0.301 N 
ATOM     13  C   UNL d   1     -38.758  14.110  20.327  0.00  0.00     0.080 A 
ATOM     14  C   UNL d   1     -38.654  13.794  21.088  0.00  0.00     0.018 A 
ATOM     15  C   UNL d   1     -38.078  13.227  21.226  0.00  0.00     0.002 A 
ATOM     16  C   UNL d   1     -39.132  14.054  21.704  0.00  0.00     0.003 A 
ATOM     17  C   UNL d   1     -37.976  12.915  21.984  0.00  0.00     0.000 A 
ATOM     18  C   UNL d   1     -38.456  13.175  22.602  0.00  0.00     0.000 A 
ATOM     19  C   UNL d   1     -39.037  13.747  22.462  0.00  0.00     0.000 A 
ATOM     20  C   UNL d   1     -39.721  14.632  21.568  0.00  0.00     0.019 A 
ATOM     21  C   UNL d   1     -39.812  14.934  20.810  0.00  0.00     0.080 A 
ENDBRANCH   1  12
TORSDOF 1
ENDMDL
MODEL 4
REMARK VINA RESULT:      -6.6      1.312      2.048
REMARK  1 active torsions:
REMARK  status: ('A' for Active; 'I' for Inactive)
REMARK    1  A    between atoms: N_2  and  C_1 
ROOT
ATOM      1  C   UNL d   1     -46.975  12.543  23.057  0.00  0.00     0.110 A 
ATOM      2  C   UNL d   1     -46.174  12.565  22.809  0.00  0.00     0.212 A 
ATOM      3  C   UNL d   1     -47.252  11.898  23.498  0.00  0.00     0.056 A 
ATOM      4  C   UNL d   1     -45.671  11.947  23.005  0.00  0.00     0.046 A 
ATOM      5  S   UNL d   1     -46.729  11.274  23.691  0.00  0.00    -0.085 SA
ATOM      6  C   UNL d   1     -45.942  11.299  23.446  0.00  0.00     0.033 A 
ATOM      7  O   UNL d   1     -45.899  13.204  22.372  0.00  0.00    -0.285 OA
ATOM      8  C   UNL d   1     -44.884  11.965  22.763  0.00  0.00     0.004 A 
ATOM      9  C   UNL d   1     -45.434  10.682  23.639  0.00  0.00     0.007 A 
ATOM     10  C   UNL d   1     -44.371  11.353  22.953  0.00  0.00     0.000 A 
ATOM     11  C   UNL d   1     -44.648  10.708  23.394  0.00  0.00     0.001 A 
ENDROOT
BRANCH   1  12
ATOM     12  N   UNL d   1     -47.489  13.162  22.864  0.00  0.00    -0.301 N 
ATOM     13  C   UNL d   1     -48.149  13.019  22.409  0.00  0.00     0.080 A 
ATOM     14  C   UNL d   1     -48.666  13.637  22.213  0.00  0.00     0.018 A 
ATOM     15  C   UNL d   1     -49.331  13.491  21.755  0.00  0.00     0.002 A 
ATOM     16  C   UNL d   1     -48.510  14.398  22.480  0.00  0.00     0.003 A 
ATOM     17  C   UNL d   1     -49.845  14.108  21.560  0.00  0.00     0.000 A 
ATOM     18  C   UNL d   1     -49.688  14.872  21.829  0.00  0.00     0.000 A 
ATOM     19  C   UNL d   1     -49.018  15.018  22.291  0.00  0.00     0.000 A 
ATOM     20  C   UNL d   1     -47.835  14.552  22.948  0.00  0.00     0.019 A 
ATOM     21  C   UNL d   1     -47.331  13.930  23.134  0.00  0.00     0.080 A 
ENDBRANCH   1  12
TORSDOF 1
ENDMDL
MODEL 5
REMARK VINA RESULT:      -6.3      9.378     10.016
REMARK  1 active torsions:
REMARK  status: ('A' for Active; 'I' for Inactive)
REMARK    1  A    between atoms: N_2  and  C_1 
ROOT
ATOM      1  C   UNL d   1     -39.308  14.745  20.105  0.00  0.00     0.110 A 
ATOM      2  C   UNL d   1     -38.742  14.144  20.257  0.00  0.00     0.212 A 
ATOM      3  C   UNL d   1     -39.766  15.046  20.727  0.00  0.00     0.056 A 
ATOM      4  C   UNL d   1     -38.648  13.858  21.020  0.00  0.00     0.046 A 
ATOM      5  S   UNL d   1     -39.660  14.745  21.501  0.00  0.00    -0.085 SA
ATOM      6  C   UNL d   1     -39.103  14.154  21.647  0.00  0.00     0.033 A 
ATOM      7  O   UNL d   1     -38.288  13.846  19.640  0.00  0.00    -0.285 OA
ATOM      8  C   UNL d   1     -38.094  13.268  21.172  0.00  0.00     0.004 A 
ATOM      9  C   UNL d   1     -39.005  13.865  22.409  0.00  0.00     0.007 A 
ATOM     10  C   UNL d   1     -37.991  12.974  21.932  0.00  0.00     0.000 A 
ATOM     11  C   UNL d   1     -38.449  13.274  22.554  0.00  0.00     0.001 A 
ENDROOT
BRANCH   1  12
ATOM     12  N   UNL d   1     -39.409  15.039  19.339  0.00  0.00    -0.301 N 
ATOM     13  C   UNL d   1     -40.053  14.811  18.895  0.00  0.00     0.080 A 
ATOM     14  C   UNL d   1     -40.158  15.103  18.126  0.00  0.00     0.018 A 
ATOM     15  C   UNL d   1     -40.807  14.873  17.680  0.00  0.00     0.002 A 
ATOM     16  C   UNL d   1     -39.608  15.626  17.811  0.00  0.00     0.003 A 
ATOM     17  C   UNL d   1     -40.910  15.165  16.914  0.00  0.00     0.000 A 
ATOM     18  C   UNL d   1     -40.358  15.690  16.598  0.00  0.00     0.000 A 
ATOM     19  C   UNL d   1     -39.703  15.922  17.049  0.00  0.00     0.000 A 
ATOM     20  C   UNL d   1     -38.945  15.864  18.261  0.00  0.00     0.019 A 
ATOM     21  C   UNL d   1     -38.854  15.567  19.021  0.00  0.00     0.080 A 
ENDBRANCH   1  12
TORSDOF 1
ENDMDL
