MODEL 1
REMARK VINA RESULT:      50.7      0.000      0.000
REMARK  3 active torsions:
REMARK  status: ('A' for Active; 'I' for Inactive)
REMARK    1  A    between atoms: N_5  and  C_1 
REMARK    2  A    between atoms: C_10  and  C_2 
REMARK       I    between atoms: C_8  and  N_5 
REMARK    3  A    between atoms: C_7  and  C_8 
ROOT
ATOM      1  C   UNL d   1     -52.290  25.137  33.530  0.00  0.00     0.119 A 
ATOM      2  C   UNL d   1     -52.945  24.652  33.709  0.00  0.00     0.084 A 
ATOM      3  S   UNL d   1     -51.648  24.646  33.382  0.00  0.00    -0.068 SA
ATOM      4  C   UNL d   1     -52.699  23.864  33.669  0.00  0.00     0.013 A 
ATOM      5  C   UNL d   1     -51.891  23.860  33.466  0.00  0.00     0.031 A 
ATOM      6  C   UNL d   1     -53.163  23.197  33.805  0.00  0.00     0.001 C 
ATOM      7  C   UNL d   1     -51.424  23.189  33.367  0.00  0.00     0.007 C 
ENDROOT
BRANCH   1   8
ATOM      8  N   UNL d   1     -52.292  25.960  33.507  0.00  0.00    -0.201 NA
ATOM      9  C   UNL d   1     -51.578  26.367  33.404  0.00  0.00     0.286 C 
ATOM     10  O   UNL d   1     -50.872  25.967  33.324  0.00  0.00    -0.265 OA
BRANCH   9  11
ATOM     11  C   UNL d   1     -51.580  27.196  33.381  0.00  0.00     0.088 A 
ATOM     12  S   UNL d   1     -52.250  27.692  33.389  0.00  0.00    -0.075 SA
ATOM     13  C   UNL d   1     -51.991  28.483  33.359  0.00  0.00     0.064 A 
ATOM     14 BR   UNL d   1     -52.472  29.168  33.356  0.00  0.00    -0.042 Br
ATOM     15  C   UNL d   1     -51.166  28.463  33.332  0.00  0.00     0.014 A 
ATOM     16  C   UNL d   1     -50.917  27.681  33.345  0.00  0.00     0.012 A 
ENDBRANCH   9  11
ENDBRANCH   1   8
BRANCH   2  17
ATOM     17  C   UNL d   1     -53.705  24.915  33.893  0.00  0.00     0.299 C 
ATOM     18  O   UNL d   1     -54.001  24.825  34.668  0.00  0.00    -0.264 OA
ATOM     19  N   UNL d   1     -54.182  25.272  33.312  0.00  0.00    -0.102 N 
ENDBRANCH   2  17
TORSDOF 3
ENDMDL
MODEL 2
REMARK VINA RESULT:      52.5      1.814      2.075
REMARK  3 active torsions:
REMARK  status: ('A' for Active; 'I' for Inactive)
REMARK    1  A    between atoms: N_5  and  C_1 
REMARK    2  A    between atoms: C_10  and  C_2 
REMARK       I    between atoms: C_8  and  N_5 
REMARK    3  A    between atoms: C_7  and  C_8 
ROOT
ATOM      1  C   UNL d   1     -50.678  25.347  33.368  0.00  0.00     0.119 A 
ATOM      2  C   UNL d   1     -51.472  25.090  33.351  0.00  0.00     0.084 A 
ATOM      3  S   UNL d   1     -50.198  24.680  33.356  0.00  0.00    -0.068 SA
ATOM      4  C   UNL d   1     -51.473  24.264  33.329  0.00  0.00     0.013 A 
ATOM      5  C   UNL d   1     -50.680  24.009  33.332  0.00  0.00     0.031 A 
ATOM      6  C   UNL d   1     -52.135  23.774  33.308  0.00  0.00     0.001 C 
ATOM      7  C   UNL d   1     -50.428  23.225  33.315  0.00  0.00     0.007 C 
ENDROOT
BRANCH   1   8
ATOM      8  N   UNL d   1     -50.426  26.131  33.392  0.00  0.00    -0.201 NA
ATOM      9  C   UNL d   1     -49.952  26.388  34.020  0.00  0.00     0.286 C 
ATOM     10  O   UNL d   1     -49.730  25.879  34.617  0.00  0.00    -0.265 OA
BRANCH   9  11
ATOM     11  C   UNL d   1     -49.699  27.177  34.044  0.00  0.00     0.088 A 
ATOM     12  S   UNL d   1     -49.028  27.471  34.441  0.00  0.00    -0.075 SA
ATOM     13  C   UNL d   1     -48.988  28.294  34.315  0.00  0.00     0.064 A 
ATOM     14 BR   UNL d   1     -48.406  28.818  34.610  0.00  0.00    -0.042 Br
ATOM     15  C   UNL d   1     -49.634  28.494  33.843  0.00  0.00     0.014 A 
ATOM     16  C   UNL d   1     -50.066  27.815  33.678  0.00  0.00     0.012 A 
ENDBRANCH   9  11
ENDBRANCH   1   8
BRANCH   2  17
ATOM     17  C   UNL d   1     -52.138  25.577  33.356  0.00  0.00     0.299 C 
ATOM     18  O   UNL d   1     -52.900  25.241  33.411  0.00  0.00    -0.264 OA
ATOM     19  N   UNL d   1     -52.059  26.404  33.307  0.00  0.00    -0.102 N 
ENDBRANCH   2  17
TORSDOF 3
ENDMDL
