MODEL 1
REMARK VINA RESULT:      18.1      0.000      0.000
REMARK  3 active torsions:
REMARK  status: ('A' for Active; 'I' for Inactive)
REMARK    1  A    between atoms: S_10  and  C_6 
REMARK    2  A    between atoms: C_14  and  S_10 
REMARK    3  A    between atoms: C_15  and  C_14 
ROOT
ATOM      1  C   UNL d   1      13.852  12.439  -2.482  0.00  0.00     0.141 A 
ATOM      2  O   UNL d   1      13.951  11.826  -1.937  0.00  0.00    -0.303 OA
ATOM      3  C   UNL d   1      14.193  13.119  -2.165  0.00  0.00     0.110 A 
ATOM      4  C   UNL d   1      14.503  12.929  -1.424  0.00  0.00     0.043 A 
ATOM      5  C   UNL d   1      14.353  12.129  -1.283  0.00  0.00     0.102 A 
ATOM      6  C   UNL d   1      13.495  12.463  -3.225  0.00  0.00     0.137 A 
ATOM      7  N   UNL d   1      13.480  13.169  -3.652  0.00  0.00    -0.215 NA
ATOM      8  N   UNL d   1      14.178  13.825  -2.591  0.00  0.00    -0.222 NA
ATOM      9  C   UNL d   1      13.821  13.850  -3.335  0.00  0.00     0.200 A 
ATOM     10  C   UNL d   1      14.902  13.378  -0.860  0.00  0.00     0.004 A 
ATOM     11  C   UNL d   1      14.603  11.780  -0.579  0.00  0.00     0.025 A 
ATOM     12  C   UNL d   1      15.151  13.030  -0.155  0.00  0.00     0.000 A 
ATOM     13  C   UNL d   1      15.002  12.231  -0.014  0.00  0.00     0.002 A 
ENDROOT
BRANCH   6  14
ATOM     14  S   UNL d   1      13.154  11.783  -3.542  0.00  0.00    -0.062 SA
BRANCH  14  15
ATOM     15  C   UNL d   1      12.793  11.809  -4.284  0.00  0.00     0.082 C 
BRANCH  15  16
ATOM     16  C   UNL d   1      13.254  11.780  -4.968  0.00  0.00     0.241 C 
ATOM     17  O   UNL d   1      12.896  11.845  -5.708  0.00  0.00    -0.283 OA
ENDBRANCH  15  16
ENDBRANCH  14  15
ENDBRANCH   6  14
TORSDOF 3
ENDMDL
MODEL 2
REMARK VINA RESULT:      20.6      1.668      2.475
REMARK  3 active torsions:
REMARK  status: ('A' for Active; 'I' for Inactive)
REMARK    1  A    between atoms: S_10  and  C_6 
REMARK    2  A    between atoms: C_14  and  S_10 
REMARK    3  A    between atoms: C_15  and  C_14 
ROOT
ATOM      1  C   UNL d   1      14.640  13.138  -1.370  0.00  0.00     0.141 A 
ATOM      2  O   UNL d   1      14.633  13.816  -1.841  0.00  0.00    -0.303 OA
ATOM      3  C   UNL d   1      14.869  13.358  -0.609  0.00  0.00     0.110 A 
ATOM      4  C   UNL d   1      15.003  14.172  -0.609  0.00  0.00     0.043 A 
ATOM      5  C   UNL d   1      14.858  14.455  -1.370  0.00  0.00     0.102 A 
ATOM      6  C   UNL d   1      14.467  12.348  -1.537  0.00  0.00     0.137 A 
ATOM      7  N   UNL d   1      14.524  11.779  -0.943  0.00  0.00    -0.215 NA
ATOM      8  N   UNL d   1      14.925  12.789  -0.015  0.00  0.00    -0.222 NA
ATOM      9  C   UNL d   1      14.753  11.999  -0.182  0.00  0.00     0.200 A 
ATOM     10  C   UNL d   1      15.240  14.692  -0.014  0.00  0.00     0.004 A 
ATOM     11  C   UNL d   1      14.948  15.258  -1.536  0.00  0.00     0.025 A 
ATOM     12  C   UNL d   1      15.330  15.495  -0.180  0.00  0.00     0.000 A 
ATOM     13  C   UNL d   1      15.185  15.778  -0.941  0.00  0.00     0.002 A 
ENDROOT
BRANCH   6  14
ATOM     14  S   UNL d   1      14.239  12.128  -2.298  0.00  0.00    -0.062 SA
BRANCH  14  15
ATOM     15  C   UNL d   1      13.501  11.780  -2.423  0.00  0.00     0.082 C 
BRANCH  15  16
ATOM     16  C   UNL d   1      13.022  12.040  -3.043  0.00  0.00     0.241 C 
ATOM     17  O   UNL d   1      13.261  11.925  -3.823  0.00  0.00    -0.283 OA
ENDBRANCH  15  16
ENDBRANCH  14  15
ENDBRANCH   6  14
TORSDOF 3
ENDMDL
