MODEL 1
REMARK VINA RESULT:      73.2      0.000      0.000
REMARK  6 active torsions:
REMARK  status: ('A' for Active; 'I' for Inactive)
REMARK    1  A    between atoms: C_7  and  C_1 
REMARK    2  A    between atoms: C_6  and  O_13 
REMARK    3  A    between atoms: C_12  and  C_6 
REMARK    4  A    between atoms: O_13  and  C_10 
REMARK    5  A    between atoms: C_28  and  C_14 
REMARK    6  A    between atoms: C_31  and  C_28 
ROOT
ATOM      1  C   UNL d   1     -54.786-101.006 -42.569  0.00  0.00     0.064 A 
ATOM      2  C   UNL d   1     -54.764-101.250 -41.165  0.00  0.00     0.062 A 
ATOM      3  C   UNL d   1     -54.780-100.721 -41.797  0.00  0.00     0.199 A 
ATOM      4  C   UNL d   1     -54.775-101.817 -42.711  0.00  0.00     0.126 A 
ATOM      5  C   UNL d   1     -54.753-102.062 -41.307  0.00  0.00     0.105 A 
ATOM      6  O   UNL d   1     -54.759-102.346 -42.080  0.00  0.00    -0.305 OA
ATOM      7  C   UNL d   1     -54.758-100.965 -40.393  0.00  0.00     0.007 A 
ATOM      8  C   UNL d   1     -54.731-102.307 -39.899  0.00  0.00     0.105 A 
ATOM      9  C   UNL d   1     -54.737-102.591 -40.676  0.00  0.00     0.050 A 
ATOM     10  C   UNL d   1     -54.742-101.495 -39.758  0.00  0.00     0.023 A 
ATOM     11  O   UNL d   1     -54.791 -99.908 -41.655  0.00  0.00    -0.286 OA
ENDROOT
BRANCH   1  12
ATOM     12  C   UNL d   1     -54.802-100.476 -43.200  0.00  0.00     0.007 A 
ATOM     13  C   UNL d   1     -54.891-100.756 -43.981  0.00  0.00     0.027 A 
ATOM     14  C   UNL d   1     -54.908-100.236 -44.609  0.00  0.00     0.123 A 
ATOM     15  O   UNL d   1     -54.996-100.518 -45.377  0.00  0.00    -0.301 OA
ATOM     16  C   UNL d   1     -54.835 -99.413 -44.473  0.00  0.00     0.123 A 
ATOM     17  C   UNL d   1     -55.012 -99.988 -46.013  0.00  0.00     0.149 A 
ATOM     18  C   UNL d   1     -54.941 -99.177 -45.883  0.00  0.00     0.149 A 
ATOM     19  O   UNL d   1     -54.852 -98.888 -45.106  0.00  0.00    -0.301 OA
ATOM     20  C   UNL d   1     -54.746 -99.133 -43.693  0.00  0.00     0.027 A 
ATOM     21  C   UNL d   1     -54.730 -99.662 -43.062  0.00  0.00     0.002 A 
ENDBRANCH   1  12
BRANCH  10  22
ATOM     22  C   UNL d   1     -54.736-101.212 -38.976  0.00  0.00     0.002 C 
BRANCH  22  23
ATOM     23  C   UNL d   1     -54.712-100.402 -38.831  0.00  0.00     0.000 C 
ATOM     24  C   UNL d   1     -54.906-100.109 -38.091  0.00  0.00     0.000 C 
ENDBRANCH  22  23
ENDBRANCH  10  22
BRANCH   8  25
ATOM     25  O   UNL d   1     -54.715-102.837 -39.260  0.00  0.00    -0.271 OA
BRANCH  25  26
ATOM     26  C   UNL d   1     -55.205-102.714 -38.608  0.00  0.00     0.323 C 
ATOM     27  O   UNL d   1     -54.885-102.538 -37.873  0.00  0.00    -0.257 OA
BRANCH  26  28
ATOM     28  C   UNL d   1     -56.027-102.769 -38.694  0.00  0.00     0.163 A 
ATOM     29  O   UNL d   1     -56.576-102.838 -38.086  0.00  0.00    -0.300 OA
ATOM     30  C   UNL d   1     -57.332-102.876 -38.416  0.00  0.00     0.123 A 
ATOM     31  C   UNL d   1     -57.245-102.830 -39.240  0.00  0.00     0.029 A 
ATOM     32  C   UNL d   1     -56.434-102.763 -39.408  0.00  0.00     0.032 A 
ENDBRANCH  26  28
ENDBRANCH  25  26
ENDBRANCH   8  25
TORSDOF 6
ENDMDL
