MODEL 1
REMARK VINA RESULT:      -4.8      0.000      0.000
REMARK  2 active torsions:
REMARK  status: ('A' for Active; 'I' for Inactive)
REMARK    1  A    between atoms: C_2  and  CA_1 
REMARK    2  A    between atoms: C_3  and  CA_1 
ROOT
ATOM      1  C   UNL d   1      56.715  -0.331  32.435  0.00  0.00     0.025 A 
ATOM      2  C   UNL d   1      56.427  -0.041  33.159  0.00  0.00     0.002 A 
ATOM      3  C   UNL d   1      56.444  -1.054  32.146  0.00  0.00     0.002 A 
ATOM      4  C   UNL d   1      56.699   0.682  33.449  0.00  0.00     0.000 C 
ATOM      5  C   UNL d   1      55.872  -0.474  33.585  0.00  0.00     0.000 A 
ATOM      6  C   UNL d   1      55.883  -1.487  32.579  0.00  0.00     0.000 A 
ATOM      7  C   UNL d   1      55.600  -1.197  33.295  0.00  0.00     0.000 A 
ENDROOT
BRANCH   1   8
ATOM      8  CA  UNL d   1      57.273   0.106  32.010  0.00  0.00     0.167 C 
ATOM      9  N   UNL d   1      57.847   0.542  32.405  0.00  0.00    -0.142 N 
BRANCH   8  10
ATOM     10  C   UNL d   1      57.251   0.103  31.185  0.00  0.00     0.231 C 
ATOM     11  O   UNL d   1      56.833   0.680  30.773  0.00  0.00    -0.643 OA
ATOM     12  OXT UNL d   1      57.653  -0.485  30.763  0.00  0.00    -0.643 OA
ENDBRANCH   8  10
ENDBRANCH   1   8
TORSDOF 2
ENDMDL
MODEL 2
REMARK VINA RESULT:      -4.4      1.841      2.666
REMARK  2 active torsions:
REMARK  status: ('A' for Active; 'I' for Inactive)
REMARK    1  A    between atoms: C_2  and  CA_1 
REMARK    2  A    between atoms: C_3  and  CA_1 
ROOT
ATOM      1  C   UNL d   1      56.327  -0.219  32.731  0.00  0.00     0.025 A 
ATOM      2  C   UNL d   1      56.470  -0.836  32.193  0.00  0.00     0.002 A 
ATOM      3  C   UNL d   1      56.713   0.504  32.636  0.00  0.00     0.002 A 
ATOM      4  C   UNL d   1      56.084  -1.559  32.287  0.00  0.00     0.000 C 
ATOM      5  C   UNL d   1      56.995  -0.727  31.569  0.00  0.00     0.000 A 
ATOM      6  C   UNL d   1      57.242   0.610  32.005  0.00  0.00     0.000 A 
ATOM      7  C   UNL d   1      57.381  -0.004  31.475  0.00  0.00     0.000 A 
ENDROOT
BRANCH   1   8
ATOM      8  CA  UNL d   1      55.799  -0.332  33.356  0.00  0.00     0.167 C 
ATOM      9  N   UNL d   1      55.591  -1.092  33.590  0.00  0.00    -0.142 N 
BRANCH   8  10
ATOM     10  C   UNL d   1      55.481   0.323  33.745  0.00  0.00     0.231 C 
ATOM     11  O   UNL d   1      55.880   0.672  34.375  0.00  0.00    -0.643 OA
ATOM     12  OXT UNL d   1      54.754   0.634  33.503  0.00  0.00    -0.643 OA
ENDBRANCH   8  10
ENDBRANCH   1   8
TORSDOF 2
ENDMDL
MODEL 3
REMARK VINA RESULT:      -4.1      1.649      2.335
REMARK  2 active torsions:
REMARK  status: ('A' for Active; 'I' for Inactive)
REMARK    1  A    between atoms: C_2  and  CA_1 
REMARK    2  A    between atoms: C_3  and  CA_1 
ROOT
ATOM      1  C   UNL d   1      56.521  -0.318  32.515  0.00  0.00     0.025 A 
ATOM      2  C   UNL d   1      56.932   0.348  32.793  0.00  0.00     0.002 A 
ATOM      3  C   UNL d   1      56.717  -0.644  31.783  0.00  0.00     0.002 A 
ATOM      4  C   UNL d   1      56.736   0.674  33.526  0.00  0.00     0.000 C 
ATOM      5  C   UNL d   1      57.532   0.682  32.340  0.00  0.00     0.000 A 
ATOM      6  C   UNL d   1      57.323  -0.304  31.329  0.00  0.00     0.000 A 
ATOM      7  C   UNL d   1      57.728   0.356  31.608  0.00  0.00     0.000 A 
ENDROOT
BRANCH   1   8
ATOM      8  CA  UNL d   1      55.919  -0.651  32.972  0.00  0.00     0.167 C 
ATOM      9  N   UNL d   1      55.357  -0.170  33.331  0.00  0.00    -0.142 N 
BRANCH   8  10
ATOM     10  C   UNL d   1      55.884  -1.470  33.068  0.00  0.00     0.231 C 
ATOM     11  O   UNL d   1      56.261  -1.836  33.701  0.00  0.00    -0.643 OA
ATOM     12  OXT UNL d   1      55.465  -1.932  32.523  0.00  0.00    -0.643 OA
ENDBRANCH   8  10
ENDBRANCH   1   8
TORSDOF 2
ENDMDL
MODEL 4
REMARK VINA RESULT:      -3.4      8.695      9.285
REMARK  2 active torsions:
REMARK  status: ('A' for Active; 'I' for Inactive)
REMARK    1  A    between atoms: C_2  and  CA_1 
REMARK    2  A    between atoms: C_3  and  CA_1 
ROOT
ATOM      1  C   UNL d   1      59.807  -8.147  35.597  0.00  0.00     0.025 A 
ATOM      2  C   UNL d   1      60.502  -7.921  35.992  0.00  0.00     0.002 A 
ATOM      3  C   UNL d   1      59.176  -7.618  35.543  0.00  0.00     0.002 A 
ATOM      4  C   UNL d   1      61.133  -8.449  36.045  0.00  0.00     0.000 C 
ATOM      5  C   UNL d   1      60.561  -7.172  36.328  0.00  0.00     0.000 A 
ATOM      6  C   UNL d   1      59.240  -6.864  35.884  0.00  0.00     0.000 A 
ATOM      7  C   UNL d   1      59.930  -6.643  36.274  0.00  0.00     0.000 A 
ENDROOT
BRANCH   1   8
ATOM      8  CA  UNL d   1      59.751  -8.899  35.261  0.00  0.00     0.167 C 
ATOM      9  N   UNL d   1      59.852  -9.569  35.726  0.00  0.00    -0.142 N 
BRANCH   8  10
ATOM     10  C   UNL d   1      59.592  -8.975  34.455  0.00  0.00     0.231 C 
ATOM     11  O   UNL d   1      58.825  -9.111  34.188  0.00  0.00    -0.643 OA
ATOM     12  OXT UNL d   1      60.208  -8.916  33.905  0.00  0.00    -0.643 OA
ENDBRANCH   8  10
ENDBRANCH   1   8
TORSDOF 2
ENDMDL
MODEL 5
REMARK VINA RESULT:      -3.1      9.092      9.726
REMARK  2 active torsions:
REMARK  status: ('A' for Active; 'I' for Inactive)
REMARK    1  A    between atoms: C_2  and  CA_1 
REMARK    2  A    between atoms: C_3  and  CA_1 
ROOT
ATOM      1  C   UNL d   1      59.843  -9.035  34.715  0.00  0.00     0.025 A 
ATOM      2  C   UNL d   1      60.391  -9.070  34.091  0.00  0.00     0.002 A 
ATOM      3  C   UNL d   1      59.100  -9.385  34.628  0.00  0.00     0.002 A 
ATOM      4  C   UNL d   1      61.133  -8.720  34.178  0.00  0.00     0.000 C 
ATOM      5  C   UNL d   1      60.194  -9.452  33.389  0.00  0.00     0.000 A 
ATOM      6  C   UNL d   1      58.907  -9.769  33.917  0.00  0.00     0.000 A 
ATOM      7  C   UNL d   1      59.452  -9.802  33.302  0.00  0.00     0.000 A 
ENDROOT
BRANCH   1   8
ATOM      8  CA  UNL d   1      60.043  -8.651  35.418  0.00  0.00     0.167 C 
ATOM      9  N   UNL d   1      60.769  -8.795  35.776  0.00  0.00    -0.142 N 
BRANCH   8  10
ATOM     10  C   UNL d   1      59.510  -8.123  35.761  0.00  0.00     0.231 C 
ATOM     11  O   UNL d   1      58.971  -8.377  36.329  0.00  0.00    -0.643 OA
ATOM     12  OXT UNL d   1      59.514  -7.326  35.534  0.00  0.00    -0.643 OA
ENDBRANCH   8  10
ENDBRANCH   1   8
TORSDOF 2
ENDMDL
MODEL 6
REMARK VINA RESULT:      -2.6      3.717      4.607
REMARK  2 active torsions:
REMARK  status: ('A' for Active; 'I' for Inactive)
REMARK    1  A    between atoms: C_2  and  CA_1 
REMARK    2  A    between atoms: C_3  and  CA_1 
ROOT
ATOM      1  C   UNL d   1      59.274  -1.379  29.124  0.00  0.00     0.025 A 
ATOM      2  C   UNL d   1      59.977  -1.589  28.735  0.00  0.00     0.002 A 
ATOM      3  C   UNL d   1      58.719  -1.960  29.311  0.00  0.00     0.002 A 
ATOM      4  C   UNL d   1      60.532  -1.008  28.548  0.00  0.00     0.000 C 
ATOM      5  C   UNL d   1      60.120  -2.375  28.537  0.00  0.00     0.000 A 
ATOM      6  C   UNL d   1      58.868  -2.752  29.109  0.00  0.00     0.000 A 
ATOM      7  C   UNL d   1      59.565  -2.957  28.724  0.00  0.00     0.000 A 
ENDROOT
BRANCH   1   8
ATOM      8  CA  UNL d   1      59.133  -0.589  29.321  0.00  0.00     0.167 C 
ATOM      9  N   UNL d   1      59.743  -0.119  29.608  0.00  0.00    -0.142 N 
BRANCH   8  10
ATOM     10  C   UNL d   1      58.376  -0.273  29.228  0.00  0.00     0.231 C 
ATOM     11  O   UNL d   1      58.116  -0.014  28.492  0.00  0.00    -0.643 OA
ATOM     12  OXT UNL d   1      57.870  -0.215  29.881  0.00  0.00    -0.643 OA
ENDBRANCH   8  10
ENDBRANCH   1   8
TORSDOF 2
ENDMDL
MODEL 7
REMARK VINA RESULT:      -2.3      2.586      3.433
REMARK  2 active torsions:
REMARK  status: ('A' for Active; 'I' for Inactive)
REMARK    1  A    between atoms: C_2  and  CA_1 
REMARK    2  A    between atoms: C_3  and  CA_1 
ROOT
ATOM      1  C   UNL d   1      58.246  -0.560  29.841  0.00  0.00     0.025 A 
ATOM      2  C   UNL d   1      58.285   0.270  29.867  0.00  0.00     0.002 A 
ATOM      3  C   UNL d   1      57.849  -0.970  30.436  0.00  0.00     0.002 A 
ATOM      4  C   UNL d   1      58.682   0.681  29.272  0.00  0.00     0.000 C 
ATOM      5  C   UNL d   1      57.929   0.681  30.486  0.00  0.00     0.000 A 
ATOM      6  C   UNL d   1      57.491  -0.551  31.058  0.00  0.00     0.000 A 
ATOM      7  C   UNL d   1      57.532   0.270  31.081  0.00  0.00     0.000 A 
ENDROOT
BRANCH   1   8
ATOM      8  CA  UNL d   1      58.604  -0.969  29.220  0.00  0.00     0.167 C 
ATOM      9  N   UNL d   1      58.577  -0.668  28.455  0.00  0.00    -0.142 N 
BRANCH   8  10
ATOM     10  C   UNL d   1      58.990  -1.683  29.369  0.00  0.00     0.231 C 
ATOM     11  O   UNL d   1      58.568  -2.389  29.408  0.00  0.00    -0.643 OA
ATOM     12  OXT UNL d   1      59.810  -1.693  29.481  0.00  0.00    -0.643 OA
ENDBRANCH   8  10
ENDBRANCH   1   8
TORSDOF 2
ENDMDL
MODEL 8
REMARK VINA RESULT:      -2.0      4.164      5.138
REMARK  2 active torsions:
REMARK  status: ('A' for Active; 'I' for Inactive)
REMARK    1  A    between atoms: C_2  and  CA_1 
REMARK    2  A    between atoms: C_3  and  CA_1 
ROOT
ATOM      1  C   UNL d   1      59.884  -1.776  28.838  0.00  0.00     0.025 A 
ATOM      2  C   UNL d   1      59.231  -2.196  29.135  0.00  0.00     0.002 A 
ATOM      3  C   UNL d   1      60.540  -2.186  28.553  0.00  0.00     0.002 A 
ATOM      4  C   UNL d   1      58.574  -1.785  29.419  0.00  0.00     0.000 C 
ATOM      5  C   UNL d   1      59.240  -3.019  29.145  0.00  0.00     0.000 A 
ATOM      6  C   UNL d   1      60.544  -3.017  28.566  0.00  0.00     0.000 A 
ATOM      7  C   UNL d   1      59.897  -3.429  28.861  0.00  0.00     0.000 A 
ENDROOT
BRANCH   1   8
ATOM      8  CA  UNL d   1      59.872  -0.950  28.828  0.00  0.00     0.167 C 
ATOM      9  N   UNL d   1      59.191  -0.548  28.602  0.00  0.00    -0.142 N 
BRANCH   8  10
ATOM     10  C   UNL d   1      60.547  -0.529  29.047  0.00  0.00     0.231 C 
ATOM     11  O   UNL d   1      60.731  -0.412  29.841  0.00  0.00    -0.643 OA
ATOM     12  OXT UNL d   1      61.048  -0.220  28.465  0.00  0.00    -0.643 OA
ENDBRANCH   8  10
ENDBRANCH   1   8
TORSDOF 2
ENDMDL
MODEL 9
REMARK VINA RESULT:      -2.0      4.745      5.548
REMARK  2 active torsions:
REMARK  status: ('A' for Active; 'I' for Inactive)
REMARK    1  A    between atoms: C_2  and  CA_1 
REMARK    2  A    between atoms: C_3  and  CA_1 
ROOT
ATOM      1  C   UNL d   1      59.923  -2.276  28.953  0.00  0.00     0.025 A 
ATOM      2  C   UNL d   1      59.204  -1.889  29.105  0.00  0.00     0.002 A 
ATOM      3  C   UNL d   1      60.601  -1.834  28.790  0.00  0.00     0.002 A 
ATOM      4  C   UNL d   1      58.527  -2.330  29.268  0.00  0.00     0.000 C 
ATOM      5  C   UNL d   1      59.168  -1.066  29.093  0.00  0.00     0.000 A 
ATOM      6  C   UNL d   1      60.559  -1.005  28.779  0.00  0.00     0.000 A 
ATOM      7  C   UNL d   1      59.845  -0.624  28.930  0.00  0.00     0.000 A 
ENDROOT
BRANCH   1   8
ATOM      8  CA  UNL d   1      59.957  -3.101  28.965  0.00  0.00     0.167 C 
ATOM      9  N   UNL d   1      59.275  -3.545  28.848  0.00  0.00    -0.142 N 
BRANCH   8  10
ATOM     10  C   UNL d   1      60.679  -3.479  29.097  0.00  0.00     0.231 C 
ATOM     11  O   UNL d   1      60.956  -3.601  29.862  0.00  0.00    -0.643 OA
ATOM     12  OXT UNL d   1      61.132  -3.739  28.455  0.00  0.00    -0.643 OA
ENDBRANCH   8  10
ENDBRANCH   1   8
TORSDOF 2
ENDMDL
