MODEL 1
REMARK VINA RESULT:       0.1      0.000      0.000
REMARK  4 active torsions:
REMARK  status: ('A' for Active; 'I' for Inactive)
REMARK    1  A    between atoms: N_8  and  C_1 
REMARK    2  A    between atoms: C_13  and  C_2 
REMARK    3  A    between atoms: C_6  and  C_11 
REMARK       I    between atoms: C_11  and  N_8 
REMARK    4  A    between atoms: O_20  and  C_13 
ROOT
ATOM      1  C   UNL d   1     -42.397-123.248 -50.080  0.00  0.00     0.119 A 
ATOM      2  C   UNL d   1     -43.062-123.084 -49.618  0.00  0.00     0.087 A 
ATOM      3  C   UNL d   1     -42.856-123.207 -48.834  0.00  0.00     0.008 A 
ATOM      4  C   UNL d   1     -42.077-123.444 -48.802  0.00  0.00     0.028 A 
ATOM      5  S   UNL d   1     -41.783-123.472 -49.576  0.00  0.00    -0.070 SA
ATOM      6  C   UNL d   1     -41.715-123.610 -48.074  0.00  0.00     0.104 A 
ATOM      7  N   UNL d   1     -42.148-123.534 -47.378  0.00  0.00    -0.294 NA
ATOM      8  C   UNL d   1     -42.940-123.294 -47.410  0.00  0.00     0.099 A 
ATOM      9  C   UNL d   1     -43.297-123.129 -48.138  0.00  0.00    -0.004 A 
ATOM     10  C   UNL d   1     -41.195-123.815 -47.464  0.00  0.00     0.029 C 
ATOM     11  C   UNL d   1     -41.126-123.744 -48.634  0.00  0.00     0.029 C 
ATOM     12  C   UNL d   1     -43.731-123.053 -47.442  0.00  0.00     0.029 C 
ATOM     13  C   UNL d   1     -42.590-123.456 -46.682  0.00  0.00     0.029 C 
ENDROOT
BRANCH   1  14
ATOM     14  N   UNL d   1     -42.349-123.198 -50.905  0.00  0.00    -0.200 NA
ATOM     15  C   UNL d   1     -41.734-122.776 -51.258  0.00  0.00     0.303 C 
ATOM     16  O   UNL d   1     -41.170-122.405 -50.787  0.00  0.00    -0.263 OA
BRANCH  15  17
ATOM     17  C   UNL d   1     -41.686-122.726 -52.070  0.00  0.00     0.169 A 
ATOM     18  N   UNL d   1     -41.997-122.126 -52.555  0.00  0.00    -0.234 NA
ATOM     19  C   UNL d   1     -41.809-122.315 -53.344  0.00  0.00     0.088 A 
ATOM     20  C   UNL d   1     -41.966-121.938 -54.060  0.00  0.00     0.020 A 
ATOM     21  C   UNL d   1     -41.388-123.028 -53.317  0.00  0.00     0.049 A 
ATOM     22  C   UNL d   1     -41.700-122.272 -54.761  0.00  0.00     0.002 A 
ATOM     23  C   UNL d   1     -41.278-122.984 -54.750  0.00  0.00     0.001 A 
ATOM     24  C   UNL d   1     -41.123-123.358 -54.038  0.00  0.00     0.008 A 
ATOM     25  S   UNL d   1     -41.320-123.265 -52.546  0.00  0.00    -0.062 SA
ENDBRANCH  15  17
ENDBRANCH   1  14
BRANCH   2  26
ATOM     26  C   UNL d   1     -43.789-122.842 -49.907  0.00  0.00     0.298 C 
ATOM     27  O   UNL d   1     -44.366-123.414 -50.071  0.00  0.00    -0.259 OA
BRANCH  26  28
ATOM     28  O   UNL d   1     -43.949-122.034 -50.033  0.00  0.00    -0.296 OA
ATOM     29  C   UNL d   1     -44.631-121.807 -50.433  0.00  0.00     0.185 C 
ENDBRANCH  26  28
ENDBRANCH   2  26
TORSDOF 4
ENDMDL
