MODEL 1
REMARK VINA RESULT:      50.4      0.000      0.000
REMARK  4 active torsions:
REMARK  status: ('A' for Active; 'I' for Inactive)
REMARK    1  A    between atoms: C_3  and  C_1 
REMARK    2  A    between atoms: C_11  and  N_2 
REMARK    3  A    between atoms: C_12  and  C_11 
REMARK       I    between atoms: N_13  and  C_12 
REMARK    4  A    between atoms: C_16  and  N_13 
ROOT
ATOM      1  C   UNL d   1     -58.618 -98.764 -43.810  0.00  0.00     0.171 A 
ATOM      2  N   UNL d   1     -58.032 -98.764 -44.397  0.00  0.00    -0.284 N 
ATOM      3  N   UNL d   1     -59.355 -98.766 -44.190  0.00  0.00    -0.225 NA
ATOM      4  C   UNL d   1     -58.407 -98.766 -45.128  0.00  0.00     0.083 A 
ATOM      5  C   UNL d   1     -59.222 -98.767 -45.001  0.00  0.00     0.099 A 
ATOM      6  C   UNL d   1     -58.104 -98.768 -45.921  0.00  0.00     0.019 A 
ATOM      7  C   UNL d   1     -59.748 -98.770 -45.664  0.00  0.00     0.021 A 
ATOM      8  C   UNL d   1     -58.627 -98.770 -46.537  0.00  0.00     0.002 A 
ATOM      9  C   UNL d   1     -59.442 -98.771 -46.410  0.00  0.00     0.002 A 
ENDROOT
BRANCH   2  10
ATOM     10  C   UNL d   1     -57.220 -98.762 -44.258  0.00  0.00     0.145 C 
BRANCH  10  11
ATOM     11  C   UNL d   1     -56.878 -99.409 -43.895  0.00  0.00     0.297 C 
ATOM     12  N   UNL d   1     -56.147 -99.694 -44.160  0.00  0.00    -0.207 NA
ATOM     13  O   UNL d   1     -57.252 -99.791 -43.258  0.00  0.00    -0.264 OA
BRANCH  12  14
ATOM     14  C   UNL d   1     -55.596 -99.509 -44.740  0.00  0.00     0.085 A 
ATOM     15  C   UNL d   1     -55.304 -98.755 -44.919  0.00  0.00     0.019 A 
ATOM     16  C   UNL d   1     -54.766 -98.831 -45.534  0.00  0.00     0.002 A 
ATOM     17  C   UNL d   1     -54.713 -99.623 -45.750  0.00  0.00     0.002 A 
ATOM     18  C   UNL d   1     -55.221-100.032 -45.261  0.00  0.00     0.019 A 
ENDBRANCH  12  14
ENDBRANCH  10  11
ENDBRANCH   2  10
BRANCH   1  19
ATOM     19  C   UNL d   1     -58.490 -98.761 -42.987  0.00  0.00     0.184 A 
ATOM     20  C   UNL d   1     -59.076 -98.759 -42.407  0.00  0.00     0.235 A 
ATOM     21  N   UNL d   1     -58.702 -98.758 -41.667  0.00  0.00    -0.081 NA
ATOM     22  N   UNL d   1     -59.891 -98.758 -42.533  0.00  0.00    -0.123 N 
ATOM     23  O   UNL d   1     -57.887 -98.759 -41.794  0.00  0.00    -0.104 OA
ATOM     24  N   UNL d   1     -57.753 -98.761 -42.613  0.00  0.00    -0.097 NA
ENDBRANCH   1  19
TORSDOF 4
ENDMDL
