MODEL 1
REMARK VINA RESULT:      72.6      0.000      0.000
REMARK  6 active torsions:
REMARK  status: ('A' for Active; 'I' for Inactive)
REMARK    1  A    between atoms: N_8  and  S_1 
REMARK    2  A    between atoms: C_10  and  S_1 
REMARK    3  A    between atoms: C_2  and  N_6 
REMARK       I    between atoms: N_6  and  C_9 
REMARK    4  A    between atoms: C_9  and  C_15 
REMARK    5  A    between atoms: O_26  and  C_13 
REMARK    6  A    between atoms: O_27  and  C_14 
ROOT
ATOM      1  N   UNL d   1      15.389  15.299  -0.019  0.00  0.00    -0.183 NA
ATOM      2  C   UNL d   1      15.197  15.891  -0.567  0.00  0.00     0.281 C 
ATOM      3  O   UNL d   1      15.350  16.678  -0.381  0.00  0.00    -0.265 OA
ENDROOT
BRANCH   2   4
ATOM      4  C   UNL d   1      14.862  15.682  -1.275  0.00  0.00     0.058 A 
ATOM      5  C   UNL d   1      14.062  15.510  -1.330  0.00  0.00     0.005 A 
ATOM      6  C   UNL d   1      13.724  15.297  -2.049  0.00  0.00     0.013 A 
ATOM      7  C   UNL d   1      14.197  15.256  -2.729  0.00  0.00     0.104 A 
ATOM      8  C   UNL d   1      15.005  15.429  -2.681  0.00  0.00     0.013 A 
ATOM      9  C   UNL d   1      15.336  15.641  -1.955  0.00  0.00     0.005 A 
BRANCH   7  10
ATOM     10  S   UNL d   1      13.859  15.043  -3.452  0.00  0.00     0.272 S 
ATOM     11  O   UNL d   1      14.207  15.709  -3.806  0.00  0.00    -0.200 OA
ATOM     12  O   UNL d   1      13.517  14.385  -3.095  0.00  0.00    -0.200 OA
BRANCH  10  13
ATOM     13  N   UNL d   1      13.522  14.829  -4.172  0.00  0.00    -0.225 N 
ATOM     14  C   UNL d   1      13.598  15.317  -4.824  0.00  0.00     0.118 A 
ATOM     15  C   UNL d   1      13.256  15.093  -5.541  0.00  0.00     0.142 A 
ATOM     16  O   UNL d   1      12.846  14.390  -5.599  0.00  0.00    -0.300 OA
ATOM     17  C   UNL d   1      12.771  13.901  -4.942  0.00  0.00     0.142 A 
ATOM     18  C   UNL d   1      13.107  14.118  -4.231  0.00  0.00     0.118 A 
ENDBRANCH  10  13
ENDBRANCH   7  10
ENDBRANCH   2   4
BRANCH   1  19
ATOM     19  C   UNL d   1      15.237  14.497  -0.199  0.00  0.00     0.197 A 
ATOM     20  N   UNL d   1      14.533  14.091  -0.056  0.00  0.00    -0.218 NA
ATOM     21  C   UNL d   1      14.630  13.319  -0.319  0.00  0.00     0.114 A 
ATOM     22  C   UNL d   1      14.128  12.667  -0.324  0.00  0.00     0.112 A 
ATOM     23  C   UNL d   1      15.393  13.249  -0.623  0.00  0.00     0.074 A 
ATOM     24  C   UNL d   1      14.382  11.945  -0.631  0.00  0.00     0.028 A 
ATOM     25  C   UNL d   1      15.153  11.881  -0.936  0.00  0.00     0.027 A 
ATOM     26  C   UNL d   1      15.655  12.529  -0.933  0.00  0.00     0.102 A 
ATOM     27  S   UNL d   1      15.764  13.986  -0.545  0.00  0.00    -0.045 SA
BRANCH  22  28
ATOM     28  O   UNL d   1      13.353  12.730  -0.017  0.00  0.00    -0.327 OA
ATOM     29  C   UNL d   1      12.769  12.200  -0.260  0.00  0.00     0.181 C 
ENDBRANCH  22  28
BRANCH  26  30
ATOM     30  O   UNL d   1      16.429  12.466  -1.239  0.00  0.00    -0.328 OA
ATOM     31  C   UNL d   1      16.557  12.082  -1.956  0.00  0.00     0.181 C 
ENDBRANCH  26  30
ENDBRANCH   1  19
TORSDOF 6
ENDMDL
MODEL 2
REMARK VINA RESULT:      73.9      0.845      1.842
REMARK  6 active torsions:
REMARK  status: ('A' for Active; 'I' for Inactive)
REMARK    1  A    between atoms: N_8  and  S_1 
REMARK    2  A    between atoms: C_10  and  S_1 
REMARK    3  A    between atoms: C_2  and  N_6 
REMARK       I    between atoms: N_6  and  C_9 
REMARK    4  A    between atoms: C_9  and  C_15 
REMARK    5  A    between atoms: O_26  and  C_13 
REMARK    6  A    between atoms: O_27  and  C_14 
ROOT
ATOM      1  N   UNL d   1      15.281  15.383  -0.064  0.00  0.00    -0.183 NA
ATOM      2  C   UNL d   1      15.064  15.812  -0.741  0.00  0.00     0.281 C 
ATOM      3  O   UNL d   1      15.128  16.633  -0.736  0.00  0.00    -0.265 OA
ENDROOT
BRANCH   2   4
ATOM      4  C   UNL d   1      14.795  15.413  -1.393  0.00  0.00     0.058 A 
ATOM      5  C   UNL d   1      15.307  15.189  -1.993  0.00  0.00     0.005 A 
ATOM      6  C   UNL d   1      15.032  14.784  -2.654  0.00  0.00     0.013 A 
ATOM      7  C   UNL d   1      14.226  14.599  -2.716  0.00  0.00     0.104 A 
ATOM      8  C   UNL d   1      13.704  14.821  -2.114  0.00  0.00     0.013 A 
ATOM      9  C   UNL d   1      13.989  15.228  -1.454  0.00  0.00     0.005 A 
BRANCH   7  10
ATOM     10  S   UNL d   1      13.948  14.192  -3.379  0.00  0.00     0.272 S 
ATOM     11  O   UNL d   1      14.102  13.472  -2.997  0.00  0.00    -0.200 OA
ATOM     12  O   UNL d   1      13.797  14.911  -3.752  0.00  0.00    -0.200 OA
BRANCH  10  13
ATOM     13  N   UNL d   1      13.669  13.790  -4.041  0.00  0.00    -0.225 N 
ATOM     14  C   UNL d   1      13.638  12.972  -4.042  0.00  0.00     0.118 A 
ATOM     15  C   UNL d   1      13.357  12.577  -4.710  0.00  0.00     0.142 A 
ATOM     16  O   UNL d   1      13.113  13.000  -5.364  0.00  0.00    -0.300 OA
ATOM     17  C   UNL d   1      13.146  13.821  -5.361  0.00  0.00     0.142 A 
ATOM     18  C   UNL d   1      13.422  14.216  -4.703  0.00  0.00     0.118 A 
ENDBRANCH  10  13
ENDBRANCH   7  10
ENDBRANCH   2   4
BRANCH   1  19
ATOM     19  C   UNL d   1      15.220  14.549  -0.059  0.00  0.00     0.197 A 
ATOM     20  N   UNL d   1      15.849  14.016  -0.043  0.00  0.00    -0.218 NA
ATOM     21  C   UNL d   1      15.536  13.257  -0.044  0.00  0.00     0.114 A 
ATOM     22  C   UNL d   1      15.884  12.512  -0.031  0.00  0.00     0.112 A 
ATOM     23  C   UNL d   1      14.714  13.322  -0.061  0.00  0.00     0.074 A 
ATOM     24  C   UNL d   1      15.419  11.831  -0.036  0.00  0.00     0.028 A 
ATOM     25  C   UNL d   1      14.591  11.904  -0.053  0.00  0.00     0.027 A 
ATOM     26  C   UNL d   1      14.241  12.645  -0.065  0.00  0.00     0.102 A 
ATOM     27  S   UNL d   1      14.526  14.130  -0.070  0.00  0.00    -0.045 SA
BRANCH  22  28
ATOM     28  O   UNL d   1      16.717  12.437  -0.014  0.00  0.00    -0.327 OA
ATOM     29  C   UNL d   1      17.100  11.963  -0.570  0.00  0.00     0.181 C 
ENDBRANCH  22  28
BRANCH  26  30
ATOM     30  O   UNL d   1      13.409  12.720  -0.082  0.00  0.00    -0.328 OA
ATOM     31  C   UNL d   1      12.936  12.046  -0.084  0.00  0.00     0.181 C 
ENDBRANCH  26  30
ENDBRANCH   1  19
TORSDOF 6
ENDMDL
