MODEL 1
REMARK VINA RESULT:      11.5      0.000      0.000
REMARK  3 active torsions:
REMARK  status: ('A' for Active; 'I' for Inactive)
REMARK    1  A    between atoms: N_3  and  C_1 
REMARK       I    between atoms: C_5  and  N_3 
REMARK    2  A    between atoms: C_4  and  C_5 
REMARK    3  A    between atoms: C_12  and  C_6 
ROOT
ATOM      1  C   UNL d   1      45.756 -16.764  44.199  0.00  0.00     0.249 A 
ATOM      2  N   UNL d   1      46.028 -15.997  44.053  0.00  0.00    -0.210 NA
ATOM      3  C   UNL d   1      45.581 -15.472  44.524  0.00  0.00     0.091 A 
ATOM      4  S   UNL d   1      45.147 -16.732  44.752  0.00  0.00    -0.033 SA
ATOM      5  C   UNL d   1      45.038 -15.921  44.955  0.00  0.00     0.059 A 
ENDROOT
BRANCH   1   6
ATOM      6  N   UNL d   1      46.049 -17.450  43.847  0.00  0.00    -0.337 NA
ATOM      7  C   UNL d   1      46.390 -18.194  43.744  0.00  0.00     0.355 C 
ATOM      8  O   UNL d   1      46.647 -18.631  44.402  0.00  0.00    -0.249 OA
BRANCH   7   9
ATOM      9  C   UNL d   1      46.477 -18.511  42.981  0.00  0.00     0.197 A 
ATOM     10  O   UNL d   1      46.583 -18.078  42.274  0.00  0.00    -0.205 OA
ATOM     11  N   UNL d   1      46.645 -18.620  41.649  0.00  0.00    -0.124 NA
ATOM     12  C   UNL d   1      46.578 -19.384  41.965  0.00  0.00     0.130 A 
ATOM     13  C   UNL d   1      46.474 -19.323  42.786  0.00  0.00     0.056 A 
ENDBRANCH   7   9
ENDBRANCH   1   6
BRANCH   3  14
ATOM     14  C   UNL d   1      45.664 -14.657  44.554  0.00  0.00     0.018 A 
ATOM     15  C   UNL d   1      45.006 -14.175  44.501  0.00  0.00     0.002 A 
ATOM     16  C   UNL d   1      45.088 -13.355  44.530  0.00  0.00     0.000 A 
ATOM     17  C   UNL d   1      45.839 -13.026  44.614  0.00  0.00     0.000 A 
ATOM     18  C   UNL d   1      46.506 -13.507  44.668  0.00  0.00     0.000 A 
ATOM     19  C   UNL d   1      45.927 -12.202  44.644  0.00  0.00     0.000 C 
ATOM     20  C   UNL d   1      46.417 -14.331  44.637  0.00  0.00     0.002 A 
ENDBRANCH   3  14
TORSDOF 3
ENDMDL
MODEL 2
REMARK VINA RESULT:      11.7      1.621      4.875
REMARK  3 active torsions:
REMARK  status: ('A' for Active; 'I' for Inactive)
REMARK    1  A    between atoms: N_3  and  C_1 
REMARK       I    between atoms: C_5  and  N_3 
REMARK    2  A    between atoms: C_4  and  C_5 
REMARK    3  A    between atoms: C_12  and  C_6 
ROOT
ATOM      1  C   UNL d   1      45.906 -16.574  44.256  0.00  0.00     0.249 A 
ATOM      2  N   UNL d   1      45.905 -17.004  43.548  0.00  0.00    -0.210 NA
ATOM      3  C   UNL d   1      46.191 -17.771  43.715  0.00  0.00     0.091 A 
ATOM      4  S   UNL d   1      46.187 -17.056  44.861  0.00  0.00    -0.033 SA
ATOM      5  C   UNL d   1      46.365 -17.806  44.520  0.00  0.00     0.059 A 
ENDROOT
BRANCH   1   6
ATOM      6  N   UNL d   1      45.664 -15.791  44.339  0.00  0.00    -0.337 NA
ATOM      7  C   UNL d   1      45.192 -15.124  44.449  0.00  0.00     0.355 C 
ATOM      8  O   UNL d   1      44.373 -15.206  44.567  0.00  0.00    -0.249 OA
BRANCH   7   9
ATOM      9  C   UNL d   1      45.532 -14.366  44.443  0.00  0.00     0.197 A 
ATOM     10  O   UNL d   1      46.132 -14.087  44.954  0.00  0.00    -0.205 OA
ATOM     11  N   UNL d   1      46.299 -13.302  44.747  0.00  0.00    -0.124 NA
ATOM     12  C   UNL d   1      45.808 -13.093  44.113  0.00  0.00     0.130 A 
ATOM     13  C   UNL d   1      45.332 -13.745  43.920  0.00  0.00     0.056 A 
ENDBRANCH   7   9
ENDBRANCH   1   6
BRANCH   3  14
ATOM     14  C   UNL d   1      46.283 -18.380  43.174  0.00  0.00     0.018 A 
ATOM     15  C   UNL d   1      46.240 -19.159  43.421  0.00  0.00     0.002 A 
ATOM     16  C   UNL d   1      46.332 -19.773  42.879  0.00  0.00     0.000 A 
ATOM     17  C   UNL d   1      46.468 -19.596  42.086  0.00  0.00     0.000 A 
ATOM     18  C   UNL d   1      46.514 -18.813  41.831  0.00  0.00     0.000 A 
ATOM     19  C   UNL d   1      46.562 -20.209  41.536  0.00  0.00     0.000 C 
ATOM     20  C   UNL d   1      46.420 -18.200  42.380  0.00  0.00     0.002 A 
ENDBRANCH   3  14
TORSDOF 3
ENDMDL
