MODEL 1
REMARK VINA RESULT:      -5.7      0.000      0.000
REMARK  5 active torsions:
REMARK  status: ('A' for Active; 'I' for Inactive)
REMARK    1  A    between atoms: C_5  and  C_1 
REMARK    2  A    between atoms: C_9  and  N_2 
REMARK    3  A    between atoms: N_8  and  C_5 
REMARK    4  A    between atoms: N_6  and  C_10 
REMARK    5  A    between atoms: C_18  and  N_8 
ROOT
ATOM      1  C   UNL d   1     -41.524-122.844 -52.061  0.00  0.00     0.067 A 
ATOM      2  N   UNL d   1     -41.645-123.214 -50.745  0.00  0.00    -0.230 N 
ATOM      3  C   UNL d   1     -41.849-122.609 -51.312  0.00  0.00     0.087 A 
ATOM      4  N   UNL d   1     -41.196-123.817 -51.147  0.00  0.00    -0.164 NA
ATOM      5  C   UNL d   1     -41.123-123.586 -51.960  0.00  0.00     0.124 A 
ATOM      6  C   UNL d   1     -42.278-121.931 -51.157  0.00  0.00     0.021 C 
ENDROOT
BRANCH   1   7
ATOM      7  C   UNL d   1     -41.589-122.420 -52.767  0.00  0.00     0.139 C 
ATOM      8  S   UNL d   1     -41.123-121.763 -52.891  0.00  0.00    -0.057 SA
BRANCH   7   9
ATOM      9  N   UNL d   1     -42.120-122.660 -53.337  0.00  0.00    -0.235 NA
BRANCH   9  10
ATOM     10  C   UNL d   1     -42.000-122.449 -54.112  0.00  0.00     0.082 A 
ATOM     11  C   UNL d   1     -42.470-121.878 -54.463  0.00  0.00     0.019 A 
ATOM     12  C   UNL d   1     -42.347-121.674 -55.230  0.00  0.00     0.002 A 
ATOM     13  C   UNL d   1     -41.750-122.035 -55.670  0.00  0.00     0.000 A 
ATOM     14  C   UNL d   1     -41.282-122.600 -55.327  0.00  0.00     0.002 A 
ATOM     15  C   UNL d   1     -41.404-122.811 -54.545  0.00  0.00     0.019 A 
ENDBRANCH   9  10
ENDBRANCH   7   9
ENDBRANCH   1   7
BRANCH   2  16
ATOM     16  C   UNL d   1     -41.843-123.222 -49.944  0.00  0.00     0.083 A 
ATOM     17  C   UNL d   1     -41.251-123.084 -49.379  0.00  0.00     0.021 A 
ATOM     18  C   UNL d   1     -41.441-123.091 -48.575  0.00  0.00     0.025 A 
ATOM     19  C   UNL d   1     -42.223-123.235 -48.337  0.00  0.00     0.127 A 
ATOM     20  C   UNL d   1     -42.815-123.374 -48.902  0.00  0.00     0.025 A 
ATOM     21  C   UNL d   1     -42.616-123.365 -49.704  0.00  0.00     0.021 A 
BRANCH  19  22
ATOM     22  N   UNL d   1     -42.413-123.242 -47.533  0.00  0.00    -0.114 N 
ATOM     23  O   UNL d   1     -42.954-123.788 -47.237  0.00  0.00    -0.532 OA
ATOM     24  O   UNL d   1     -42.061-122.699 -47.017  0.00  0.00    -0.532 OA
ENDBRANCH  19  22
ENDBRANCH   2  16
TORSDOF 5
ENDMDL
MODEL 2
REMARK VINA RESULT:      -5.0      2.847      5.417
REMARK  5 active torsions:
REMARK  status: ('A' for Active; 'I' for Inactive)
REMARK    1  A    between atoms: C_5  and  C_1 
REMARK    2  A    between atoms: C_9  and  N_2 
REMARK    3  A    between atoms: N_8  and  C_5 
REMARK    4  A    between atoms: N_6  and  C_10 
REMARK    5  A    between atoms: C_18  and  N_8 
ROOT
ATOM      1  C   UNL d   1     -41.333-123.080 -51.556  0.00  0.00     0.067 A 
ATOM      2  N   UNL d   1     -41.515-122.927 -52.908  0.00  0.00    -0.230 N 
ATOM      3  C   UNL d   1     -41.568-122.526 -52.156  0.00  0.00     0.087 A 
ATOM      4  N   UNL d   1     -41.248-123.725 -52.768  0.00  0.00    -0.164 NA
ATOM      5  C   UNL d   1     -41.137-123.817 -51.932  0.00  0.00     0.124 A 
ATOM      6  C   UNL d   1     -41.802-121.752 -52.040  0.00  0.00     0.021 C 
ENDROOT
BRANCH   1   7
ATOM      7  C   UNL d   1     -41.303-122.926 -50.746  0.00  0.00     0.139 C 
ATOM      8  S   UNL d   1     -41.123-122.177 -50.481  0.00  0.00    -0.057 SA
BRANCH   7   9
ATOM      9  N   UNL d   1     -41.453-123.525 -50.213  0.00  0.00    -0.235 NA
BRANCH   9  10
ATOM     10  C   UNL d   1     -41.686-123.341 -49.457  0.00  0.00     0.082 A 
ATOM     11  C   UNL d   1     -42.476-123.208 -49.290  0.00  0.00     0.019 A 
ATOM     12  C   UNL d   1     -42.702-123.026 -48.540  0.00  0.00     0.002 A 
ATOM     13  C   UNL d   1     -42.143-122.973 -47.935  0.00  0.00     0.000 A 
ATOM     14  C   UNL d   1     -41.360-123.105 -48.097  0.00  0.00     0.002 A 
ATOM     15  C   UNL d   1     -41.126-123.290 -48.859  0.00  0.00     0.019 A 
ENDBRANCH   9  10
ENDBRANCH   7   9
ENDBRANCH   1   7
BRANCH   2  16
ATOM     16  C   UNL d   1     -41.689-122.606 -53.648  0.00  0.00     0.083 A 
ATOM     17  C   UNL d   1     -41.193-122.778 -54.291  0.00  0.00     0.021 A 
ATOM     18  C   UNL d   1     -41.360-122.461 -55.036  0.00  0.00     0.025 A 
ATOM     19  C   UNL d   1     -42.023-121.972 -55.137  0.00  0.00     0.127 A 
ATOM     20  C   UNL d   1     -42.519-121.800 -54.494  0.00  0.00     0.025 A 
ATOM     21  C   UNL d   1     -42.345-122.121 -53.753  0.00  0.00     0.021 A 
BRANCH  19  22
ATOM     22  N   UNL d   1     -42.191-121.655 -55.881  0.00  0.00    -0.114 N 
ATOM     23  O   UNL d   1     -41.725-121.050 -56.191  0.00  0.00    -0.532 OA
ATOM     24  O   UNL d   1     -42.829-121.943 -56.323  0.00  0.00    -0.532 OA
ENDBRANCH  19  22
ENDBRANCH   2  16
TORSDOF 5
ENDMDL
