MODEL 1
REMARK VINA RESULT:      -0.2      0.000      0.000
REMARK  6 active torsions:
REMARK  status: ('A' for Active; 'I' for Inactive)
REMARK    1  A    between atoms: C_9  and  C_1 
REMARK    2  A    between atoms: N_4  and  C_2 
REMARK       I    between atoms: C_5  and  N_4 
REMARK    3  A    between atoms: C_7  and  C_5 
REMARK    4  A    between atoms: O_13  and  C_9 
REMARK    5  A    between atoms: O_16  and  C_11 
REMARK    6  A    between atoms: C_19  and  O_13 
ROOT
ATOM      1  C   UNL d   1      32.716  21.967 -21.674  0.00  0.00     0.181 A 
ATOM      2  C   UNL d   1      32.984  21.585 -22.363  0.00  0.00     0.115 A 
ATOM      3  O   UNL d   1      32.589  22.762 -21.872  0.00  0.00    -0.300 OA
ATOM      4  C   UNL d   1      33.017  22.138 -22.964  0.00  0.00     0.043 A 
ATOM      5  C   UNL d   1      32.773  22.868 -22.664  0.00  0.00     0.102 A 
ATOM      6  C   UNL d   1      33.240  22.074 -23.756  0.00  0.00     0.004 A 
ATOM      7  C   UNL d   1      32.753  23.526 -23.151  0.00  0.00     0.025 A 
ATOM      8  C   UNL d   1      33.219  22.741 -24.248  0.00  0.00     0.000 A 
ATOM      9  C   UNL d   1      32.973  23.468 -23.938  0.00  0.00     0.002 A 
ENDROOT
BRANCH   2  10
ATOM     10  N   UNL d   1      33.181  20.779 -22.423  0.00  0.00    -0.206 NA
ATOM     11  C   UNL d   1      32.633  20.245 -22.727  0.00  0.00     0.281 C 
ATOM     12  O   UNL d   1      31.890  20.504 -22.971  0.00  0.00    -0.265 OA
BRANCH  11  13
ATOM     13  C   UNL d   1      32.830  19.449 -22.786  0.00  0.00     0.080 A 
ATOM     14  C   UNL d   1      32.848  19.077 -23.534  0.00  0.00     0.099 A 
ATOM     15  C   UNL d   1      33.045  18.284 -23.581  0.00  0.00     0.024 A 
ATOM     16  C   UNL d   1      33.224  17.857 -22.890  0.00  0.00     0.002 A 
ATOM     17  C   UNL d   1      33.204  18.231 -22.163  0.00  0.00     0.000 A 
ATOM     18  C   UNL d   1      33.008  19.024 -22.107  0.00  0.00     0.007 A 
BRANCH  14  19
ATOM     19  O   UNL d   1      32.668  19.512 -24.205  0.00  0.00    -0.328 OA
ATOM     20  C   UNL d   1      32.368  19.113 -24.862  0.00  0.00     0.181 C 
ENDBRANCH  14  19
ENDBRANCH  11  13
ENDBRANCH   2  10
BRANCH   1  21
ATOM     21  C   UNL d   1      32.600  21.619 -20.934  0.00  0.00     0.325 C 
ATOM     22  O   UNL d   1      31.906  21.193 -20.784  0.00  0.00    -0.257 OA
BRANCH  21  23
ATOM     23  O   UNL d   1      33.171  21.698 -20.354  0.00  0.00    -0.269 OA
BRANCH  23  24
ATOM     24  C   UNL d   1      32.997  21.488 -19.569  0.00  0.00     0.126 C 
ATOM     25  C   UNL d   1      33.060  22.058 -18.969  0.00  0.00     0.029 C 
ENDBRANCH  23  24
ENDBRANCH  21  23
ENDBRANCH   1  21
TORSDOF 6
ENDMDL
MODEL 2
REMARK VINA RESULT:       1.9      3.682      5.231
REMARK  6 active torsions:
REMARK  status: ('A' for Active; 'I' for Inactive)
REMARK    1  A    between atoms: C_9  and  C_1 
REMARK    2  A    between atoms: N_4  and  C_2 
REMARK       I    between atoms: C_5  and  N_4 
REMARK    3  A    between atoms: C_7  and  C_5 
REMARK    4  A    between atoms: O_13  and  C_9 
REMARK    5  A    between atoms: O_16  and  C_11 
REMARK    6  A    between atoms: C_19  and  O_13 
ROOT
ATOM      1  C   UNL d   1      32.282  16.896 -23.617  0.00  0.00     0.181 A 
ATOM      2  C   UNL d   1      31.646  17.110 -24.109  0.00  0.00     0.115 A 
ATOM      3  O   UNL d   1      32.803  17.540 -23.601  0.00  0.00    -0.300 OA
ATOM      4  C   UNL d   1      31.782  17.868 -24.385  0.00  0.00     0.043 A 
ATOM      5  C   UNL d   1      32.499  18.137 -24.072  0.00  0.00     0.102 A 
ATOM      6  C   UNL d   1      31.344  18.356 -24.885  0.00  0.00     0.004 A 
ATOM      7  C   UNL d   1      32.772  18.886 -24.259  0.00  0.00     0.025 A 
ATOM      8  C   UNL d   1      31.623  19.114 -25.074  0.00  0.00     0.000 A 
ATOM      9  C   UNL d   1      32.341  19.374 -24.756  0.00  0.00     0.002 A 
ENDROOT
BRANCH   2  10
ATOM     10  N   UNL d   1      30.989  16.632 -24.286  0.00  0.00    -0.206 NA
ATOM     11  C   UNL d   1      30.234  16.878 -24.067  0.00  0.00     0.281 C 
ATOM     12  O   UNL d   1      30.127  17.593 -23.673  0.00  0.00    -0.265 OA
BRANCH  11  13
ATOM     13  C   UNL d   1      29.585  16.405 -24.243  0.00  0.00     0.080 A 
ATOM     14  C   UNL d   1      28.920  16.401 -23.738  0.00  0.00     0.099 A 
ATOM     15  C   UNL d   1      28.280  15.927 -23.923  0.00  0.00     0.024 A 
ATOM     16  C   UNL d   1      28.295  15.454 -24.607  0.00  0.00     0.002 A 
ATOM     17  C   UNL d   1      28.951  15.464 -25.095  0.00  0.00     0.000 A 
ATOM     18  C   UNL d   1      29.596  15.937 -24.917  0.00  0.00     0.007 A 
BRANCH  14  19
ATOM     19  O   UNL d   1      28.921  16.873 -23.068  0.00  0.00    -0.328 OA
ATOM     20  C   UNL d   1      28.301  16.791 -22.530  0.00  0.00     0.181 C 
ENDBRANCH  14  19
ENDBRANCH  11  13
ENDBRANCH   2  10
BRANCH   1  21
ATOM     21  C   UNL d   1      32.373  16.178 -23.220  0.00  0.00     0.325 C 
ATOM     22  O   UNL d   1      32.191  15.467 -23.605  0.00  0.00    -0.257 OA
BRANCH  21  23
ATOM     23  O   UNL d   1      32.644  16.172 -22.448  0.00  0.00    -0.269 OA
BRANCH  23  24
ATOM     24  C   UNL d   1      32.673  15.458 -22.024  0.00  0.00     0.126 C 
ATOM     25  C   UNL d   1      32.683  15.475 -21.193  0.00  0.00     0.029 C 
ENDBRANCH  23  24
ENDBRANCH  21  23
ENDBRANCH   1  21
TORSDOF 6
ENDMDL
MODEL 3
REMARK VINA RESULT:       2.1      1.182      2.948
REMARK  6 active torsions:
REMARK  status: ('A' for Active; 'I' for Inactive)
REMARK    1  A    between atoms: C_9  and  C_1 
REMARK    2  A    between atoms: N_4  and  C_2 
REMARK       I    between atoms: C_5  and  N_4 
REMARK    3  A    between atoms: C_7  and  C_5 
REMARK    4  A    between atoms: O_13  and  C_9 
REMARK    5  A    between atoms: O_16  and  C_11 
REMARK    6  A    between atoms: C_19  and  O_13 
ROOT
ATOM      1  C   UNL d   1      33.068  21.274 -23.046  0.00  0.00     0.181 A 
ATOM      2  C   UNL d   1      33.120  20.486 -22.785  0.00  0.00     0.115 A 
ATOM      3  O   UNL d   1      32.947  21.744 -22.374  0.00  0.00    -0.300 OA
ATOM      4  C   UNL d   1      33.033  20.481 -21.972  0.00  0.00     0.043 A 
ATOM      5  C   UNL d   1      32.926  21.259 -21.714  0.00  0.00     0.102 A 
ATOM      6  C   UNL d   1      33.037  19.864 -21.424  0.00  0.00     0.004 A 
ATOM      7  C   UNL d   1      32.824  21.416 -20.916  0.00  0.00     0.025 A 
ATOM      8  C   UNL d   1      32.934  20.025 -20.617  0.00  0.00     0.000 A 
ATOM      9  C   UNL d   1      32.827  20.807 -20.369  0.00  0.00     0.002 A 
ENDROOT
BRANCH   2  10
ATOM     10  N   UNL d   1      33.241  19.822 -23.271  0.00  0.00    -0.206 NA
ATOM     11  C   UNL d   1      32.627  19.285 -23.390  0.00  0.00     0.281 C 
ATOM     12  O   UNL d   1      31.896  19.402 -23.029  0.00  0.00    -0.265 OA
BRANCH  11  13
ATOM     13  C   UNL d   1      32.748  18.630 -23.870  0.00  0.00     0.080 A 
ATOM     14  C   UNL d   1      32.532  17.868 -23.602  0.00  0.00     0.099 A 
ATOM     15  C   UNL d   1      32.656  17.223 -24.089  0.00  0.00     0.024 A 
ATOM     16  C   UNL d   1      32.994  17.327 -24.843  0.00  0.00     0.002 A 
ATOM     17  C   UNL d   1      33.201  18.076 -25.096  0.00  0.00     0.000 A 
ATOM     18  C   UNL d   1      33.080  18.728 -24.614  0.00  0.00     0.007 A 
BRANCH  14  19
ATOM     19  O   UNL d   1      32.201  17.782 -22.858  0.00  0.00    -0.328 OA
ATOM     20  C   UNL d   1      32.094  17.020 -22.562  0.00  0.00     0.181 C 
ENDBRANCH  14  19
ENDBRANCH  11  13
ENDBRANCH   2  10
BRANCH   1  21
ATOM     21  C   UNL d   1      33.125  21.536 -23.826  0.00  0.00     0.325 C 
ATOM     22  O   UNL d   1      33.116  20.988 -24.447  0.00  0.00    -0.257 OA
BRANCH  21  23
ATOM     23  O   UNL d   1      33.190  22.337 -23.982  0.00  0.00    -0.269 OA
BRANCH  23  24
ATOM     24  C   UNL d   1      33.009  22.628 -24.740  0.00  0.00     0.126 C 
ATOM     25  C   UNL d   1      32.676  23.385 -24.818  0.00  0.00     0.029 C 
ENDBRANCH  23  24
ENDBRANCH  21  23
ENDBRANCH   1  21
TORSDOF 6
ENDMDL
