MODEL 1
REMARK VINA RESULT:      -7.5      0.000      0.000
REMARK  5 active torsions:
REMARK  status: ('A' for Active; 'I' for Inactive)
REMARK    1  A    between atoms: N_2  and  C_1 
REMARK       I    between atoms: C_7  and  N_2 
REMARK    2  A    between atoms: C_21  and  N_3 
REMARK    3  A    between atoms: C_8  and  C_7 
REMARK       I    between atoms: C_12  and  N_13 
REMARK    4  A    between atoms: N_13  and  C_14 
REMARK    5  A    between atoms: C_20  and  C_21 
ROOT
ATOM      1  C   UNL d   1      52.976  31.903  53.551  0.00  0.00     0.182 A 
ATOM      2  N   UNL d   1      53.285  32.657  53.634  0.00  0.00    -0.285 N 
ATOM      3  S   UNL d   1      52.276  31.961  53.121  0.00  0.00    -0.048 SA
ATOM      4  C   UNL d   1      52.153  32.758  52.938  0.00  0.00     0.050 A 
ATOM      5  C   UNL d   1      52.779  33.190  53.257  0.00  0.00     0.072 A 
ATOM      6  C   UNL d   1      51.554  33.143  52.524  0.00  0.00     0.027 A 
ATOM      7  C   UNL d   1      52.806  34.008  53.162  0.00  0.00     0.020 A 
ATOM      8  C   UNL d   1      51.581  33.960  52.429  0.00  0.00     0.085 A 
ATOM      9  C   UNL d   1      52.207  34.392  52.748  0.00  0.00     0.021 A 
ENDROOT
BRANCH   1  10
ATOM     10  N   UNL d   1      53.313  31.211  53.848  0.00  0.00    -0.183 NA
ATOM     11  C   UNL d   1      52.958  30.485  53.689  0.00  0.00     0.287 C 
ATOM     12  O   UNL d   1      52.271  30.456  53.235  0.00  0.00    -0.265 OA
BRANCH  11  13
ATOM     13  C   UNL d   1      53.289  29.789  53.983  0.00  0.00     0.087 A 
ATOM     14  S   UNL d   1      53.020  29.353  54.633  0.00  0.00    -0.082 SA
ATOM     15  C   UNL d   1      53.511  28.697  54.735  0.00  0.00     0.036 A 
ATOM     16  C   UNL d   1      54.088  28.727  54.146  0.00  0.00     0.008 A 
ATOM     17  C   UNL d   1      53.957  29.396  53.680  0.00  0.00     0.012 A 
ENDBRANCH  11  13
ENDBRANCH   1  10
BRANCH   2  18
ATOM     18  C   UNL d   1      53.983  32.860  54.028  0.00  0.00     0.082 C 
BRANCH  18  19
ATOM     19  C   UNL d   1      53.967  33.068  54.824  0.00  0.00     0.019 C 
ATOM     20  C   UNL d   1      54.659  33.286  55.208  0.00  0.00     0.002 C 
ENDBRANCH  18  19
ENDBRANCH   2  18
BRANCH   8  21
ATOM     21  N   UNL d   1      50.975  34.354  52.010  0.00  0.00    -0.208 NA
ATOM     22  C   UNL d   1      50.282  34.554  52.392  0.00  0.00     0.279 C 
ATOM     23  O   UNL d   1      49.686  34.942  51.976  0.00  0.00    -0.265 OA
ATOM     24  C   UNL d   1      50.169  34.374  53.189  0.00  0.00     0.068 C 
ENDBRANCH   8  21
TORSDOF 5
ENDMDL
MODEL 2
REMARK VINA RESULT:      -7.1      1.422      4.614
REMARK  5 active torsions:
REMARK  status: ('A' for Active; 'I' for Inactive)
REMARK    1  A    between atoms: N_2  and  C_1 
REMARK       I    between atoms: C_7  and  N_2 
REMARK    2  A    between atoms: C_21  and  N_3 
REMARK    3  A    between atoms: C_8  and  C_7 
REMARK       I    between atoms: C_12  and  N_13 
REMARK    4  A    between atoms: N_13  and  C_14 
REMARK    5  A    between atoms: C_20  and  C_21 
ROOT
ATOM      1  C   UNL d   1      51.781  33.709  53.210  0.00  0.00     0.182 A 
ATOM      2  N   UNL d   1      52.394  33.807  53.744  0.00  0.00    -0.285 N 
ATOM      3  S   UNL d   1      51.869  32.971  52.854  0.00  0.00    -0.048 SA
ATOM      4  C   UNL d   1      52.542  32.612  53.173  0.00  0.00     0.050 A 
ATOM      5  C   UNL d   1      52.868  33.131  53.726  0.00  0.00     0.072 A 
ATOM      6  C   UNL d   1      52.898  31.884  53.032  0.00  0.00     0.027 A 
ATOM      7  C   UNL d   1      53.550  32.921  54.137  0.00  0.00     0.020 A 
ATOM      8  C   UNL d   1      53.580  31.673  53.442  0.00  0.00     0.085 A 
ATOM      9  C   UNL d   1      53.906  32.192  53.995  0.00  0.00     0.021 A 
ENDROOT
BRANCH   1  10
ATOM     10  N   UNL d   1      51.183  34.258  53.059  0.00  0.00    -0.183 NA
ATOM     11  C   UNL d   1      50.420  33.993  52.898  0.00  0.00     0.287 C 
ATOM     12  O   UNL d   1      50.260  33.185  52.889  0.00  0.00    -0.265 OA
BRANCH  11  13
ATOM     13  C   UNL d   1      49.818  34.536  52.747  0.00  0.00     0.087 A 
ATOM     14  S   UNL d   1      49.441  34.663  52.021  0.00  0.00    -0.082 SA
ATOM     15  C   UNL d   1      48.872  35.254  52.115  0.00  0.00     0.036 A 
ATOM     16  C   UNL d   1      48.897  35.496  52.904  0.00  0.00     0.008 A 
ATOM     17  C   UNL d   1      49.476  35.058  53.297  0.00  0.00     0.012 A 
ENDBRANCH  11  13
ENDBRANCH   1  10
BRANCH   2  18
ATOM     18  C   UNL d   1      52.523  34.467  54.225  0.00  0.00     0.082 C 
BRANCH  18  19
ATOM     19  C   UNL d   1      53.011  35.079  53.970  0.00  0.00     0.019 C 
ATOM     20  C   UNL d   1      53.148  35.727  54.455  0.00  0.00     0.002 C 
ENDBRANCH  18  19
ENDBRANCH   2  18
BRANCH   8  21
ATOM     21  N   UNL d   1      53.943  30.934  53.300  0.00  0.00    -0.208 NA
ATOM     22  C   UNL d   1      53.664  30.266  53.676  0.00  0.00     0.279 C 
ATOM     23  O   UNL d   1      54.024  29.539  53.535  0.00  0.00    -0.265 OA
ATOM     24  C   UNL d   1      53.026  30.308  54.197  0.00  0.00     0.068 C 
ENDBRANCH   8  21
TORSDOF 5
ENDMDL
MODEL 3
REMARK VINA RESULT:      -6.8      1.931      4.646
REMARK  5 active torsions:
REMARK  status: ('A' for Active; 'I' for Inactive)
REMARK    1  A    between atoms: N_2  and  C_1 
REMARK       I    between atoms: C_7  and  N_2 
REMARK    2  A    between atoms: C_21  and  N_3 
REMARK    3  A    between atoms: C_8  and  C_7 
REMARK       I    between atoms: C_12  and  N_13 
REMARK    4  A    between atoms: N_13  and  C_14 
REMARK    5  A    between atoms: C_20  and  C_21 
ROOT
ATOM      1  C   UNL d   1      52.041  33.344  53.282  0.00  0.00     0.182 A 
ATOM      2  N   UNL d   1      52.538  32.693  53.280  0.00  0.00    -0.285 N 
ATOM      3  S   UNL d   1      52.329  33.882  53.836  0.00  0.00    -0.048 SA
ATOM      4  C   UNL d   1      53.009  33.559  54.177  0.00  0.00     0.050 A 
ATOM      5  C   UNL d   1      53.139  32.821  53.832  0.00  0.00     0.072 A 
ATOM      6  C   UNL d   1      53.524  33.840  54.755  0.00  0.00     0.027 A 
ATOM      7  C   UNL d   1      53.784  32.364  54.065  0.00  0.00     0.020 A 
ATOM      8  C   UNL d   1      54.168  33.385  54.988  0.00  0.00     0.085 A 
ATOM      9  C   UNL d   1      54.298  32.647  54.643  0.00  0.00     0.021 A 
ENDROOT
BRANCH   1  10
ATOM     10  N   UNL d   1      51.371  33.438  52.810  0.00  0.00    -0.183 NA
ATOM     11  C   UNL d   1      51.009  34.175  52.761  0.00  0.00     0.287 C 
ATOM     12  O   UNL d   1      51.317  34.812  53.182  0.00  0.00    -0.265 OA
BRANCH  11  13
ATOM     13  C   UNL d   1      50.339  34.277  52.290  0.00  0.00     0.087 A 
ATOM     14  S   UNL d   1      49.593  34.533  52.544  0.00  0.00    -0.082 SA
ATOM     15  C   UNL d   1      49.084  34.556  51.895  0.00  0.00     0.036 A 
ATOM     16  C   UNL d   1      49.515  34.313  51.235  0.00  0.00     0.008 A 
ATOM     17  C   UNL d   1      50.287  34.140  51.471  0.00  0.00     0.012 A 
ENDBRANCH  11  13
ENDBRANCH   1  10
BRANCH   2  18
ATOM     18  C   UNL d   1      52.460  32.019  52.809  0.00  0.00     0.082 C 
BRANCH  18  19
ATOM     19  C   UNL d   1      52.263  31.294  53.146  0.00  0.00     0.019 C 
ATOM     20  C   UNL d   1      52.360  30.599  52.721  0.00  0.00     0.002 C 
ENDBRANCH  18  19
ENDBRANCH   2  18
BRANCH   8  21
ATOM     21  N   UNL d   1      54.692  33.668  55.574  0.00  0.00    -0.208 NA
ATOM     22  C   UNL d   1      55.424  33.957  55.358  0.00  0.00     0.279 C 
ATOM     23  O   UNL d   1      55.938  34.236  55.938  0.00  0.00    -0.265 OA
ATOM     24  C   UNL d   1      55.657  33.974  54.567  0.00  0.00     0.068 C 
ENDBRANCH   8  21
TORSDOF 5
ENDMDL
MODEL 4
REMARK VINA RESULT:      -6.3      1.794      4.727
REMARK  5 active torsions:
REMARK  status: ('A' for Active; 'I' for Inactive)
REMARK    1  A    between atoms: N_2  and  C_1 
REMARK       I    between atoms: C_7  and  N_2 
REMARK    2  A    between atoms: C_21  and  N_3 
REMARK    3  A    between atoms: C_8  and  C_7 
REMARK       I    between atoms: C_12  and  N_13 
REMARK    4  A    between atoms: N_13  and  C_14 
REMARK    5  A    between atoms: C_20  and  C_21 
ROOT
ATOM      1  C   UNL d   1      53.012  32.889  53.626  0.00  0.00     0.182 A 
ATOM      2  N   UNL d   1      52.518  32.443  53.147  0.00  0.00    -0.285 N 
ATOM      3  S   UNL d   1      53.537  32.375  53.998  0.00  0.00    -0.048 SA
ATOM      4  C   UNL d   1      53.365  31.607  53.746  0.00  0.00     0.050 A 
ATOM      5  C   UNL d   1      52.733  31.649  53.218  0.00  0.00     0.072 A 
ATOM      6  C   UNL d   1      53.702  30.878  53.928  0.00  0.00     0.027 A 
ATOM      7  C   UNL d   1      52.437  30.962  52.872  0.00  0.00     0.020 A 
ATOM      8  C   UNL d   1      53.406  30.192  53.583  0.00  0.00     0.085 A 
ATOM      9  C   UNL d   1      52.774  30.234  53.055  0.00  0.00     0.021 A 
ENDROOT
BRANCH   1  10
ATOM     10  N   UNL d   1      52.981  33.709  53.715  0.00  0.00    -0.183 NA
ATOM     11  C   UNL d   1      53.357  34.062  54.357  0.00  0.00     0.287 C 
ATOM     12  O   UNL d   1      53.758  33.595  54.904  0.00  0.00    -0.265 OA
BRANCH  11  13
ATOM     13  C   UNL d   1      53.331  34.881  54.452  0.00  0.00     0.087 A 
ATOM     14  S   UNL d   1      53.006  35.291  55.094  0.00  0.00    -0.082 SA
ATOM     15  C   UNL d   1      53.098  36.102  54.965  0.00  0.00     0.036 A 
ATOM     16  C   UNL d   1      53.482  36.194  54.241  0.00  0.00     0.008 A 
ATOM     17  C   UNL d   1      53.628  35.448  53.921  0.00  0.00     0.012 A 
ENDBRANCH  11  13
ENDBRANCH   1  10
BRANCH   2  18
ATOM     18  C   UNL d   1      51.907  32.732  52.671  0.00  0.00     0.082 C 
BRANCH  18  19
ATOM     19  C   UNL d   1      51.158  32.861  52.987  0.00  0.00     0.019 C 
ATOM     20  C   UNL d   1      50.598  33.286  52.563  0.00  0.00     0.002 C 
ENDBRANCH  18  19
ENDBRANCH   2  18
BRANCH   8  21
ATOM     21  N   UNL d   1      53.746  29.451  53.767  0.00  0.00    -0.208 NA
ATOM     22  C   UNL d   1      53.444  29.007  54.381  0.00  0.00     0.279 C 
ATOM     23  O   UNL d   1      53.781  28.277  54.560  0.00  0.00    -0.265 OA
ATOM     24  C   UNL d   1      52.805  29.279  54.827  0.00  0.00     0.068 C 
ENDBRANCH   8  21
TORSDOF 5
ENDMDL
MODEL 5
REMARK VINA RESULT:      -6.2      1.971      3.090
REMARK  5 active torsions:
REMARK  status: ('A' for Active; 'I' for Inactive)
REMARK    1  A    between atoms: N_2  and  C_1 
REMARK       I    between atoms: C_7  and  N_2 
REMARK    2  A    between atoms: C_21  and  N_3 
REMARK    3  A    between atoms: C_8  and  C_7 
REMARK       I    between atoms: C_12  and  N_13 
REMARK    4  A    between atoms: N_13  and  C_14 
REMARK    5  A    between atoms: C_20  and  C_21 
ROOT
ATOM      1  C   UNL d   1      52.554  33.603  53.596  0.00  0.00     0.182 A 
ATOM      2  N   UNL d   1      52.045  32.997  53.385  0.00  0.00    -0.285 N 
ATOM      3  S   UNL d   1      52.162  34.317  53.476  0.00  0.00    -0.048 SA
ATOM      4  C   UNL d   1      51.406  34.149  53.187  0.00  0.00     0.050 A 
ATOM      5  C   UNL d   1      51.333  33.329  53.131  0.00  0.00     0.072 A 
ATOM      6  C   UNL d   1      50.777  34.634  52.970  0.00  0.00     0.027 A 
ATOM      7  C   UNL d   1      50.631  32.994  52.858  0.00  0.00     0.020 A 
ATOM      8  C   UNL d   1      50.076  34.301  52.697  0.00  0.00     0.085 A 
ATOM      9  C   UNL d   1      50.003  33.481  52.641  0.00  0.00     0.021 A 
ENDROOT
BRANCH   1  10
ATOM     10  N   UNL d   1      53.323  33.507  53.880  0.00  0.00    -0.183 NA
ATOM     11  C   UNL d   1      53.588  33.977  54.502  0.00  0.00     0.287 C 
ATOM     12  O   UNL d   1      53.084  34.537  54.835  0.00  0.00    -0.265 OA
BRANCH  11  13
ATOM     13  C   UNL d   1      54.355  33.886  54.790  0.00  0.00     0.087 A 
ATOM     14  S   UNL d   1      54.572  33.744  55.577  0.00  0.00    -0.082 SA
ATOM     15  C   UNL d   1      55.394  33.691  55.622  0.00  0.00     0.036 A 
ATOM     16  C   UNL d   1      55.690  33.802  54.859  0.00  0.00     0.008 A 
ATOM     17  C   UNL d   1      55.056  33.923  54.344  0.00  0.00     0.012 A 
ENDBRANCH  11  13
ENDBRANCH   1  10
BRANCH   2  18
ATOM     18  C   UNL d   1      52.208  32.187  53.417  0.00  0.00     0.082 C 
BRANCH  18  19
ATOM     19  C   UNL d   1      52.554  31.805  52.775  0.00  0.00     0.019 C 
ATOM     20  C   UNL d   1      52.751  31.010  52.824  0.00  0.00     0.002 C 
ENDBRANCH  18  19
ENDBRANCH   2  18
BRANCH   8  21
ATOM     21  N   UNL d   1      49.437  34.791  52.476  0.00  0.00    -0.208 NA
ATOM     22  C   UNL d   1      49.161  34.777  51.708  0.00  0.00     0.279 C 
ATOM     23  O   UNL d   1      48.531  35.261  51.493  0.00  0.00    -0.265 OA
ATOM     24  C   UNL d   1      49.504  34.283  51.143  0.00  0.00     0.068 C 
ENDBRANCH   8  21
TORSDOF 5
ENDMDL
MODEL 6
REMARK VINA RESULT:      -5.2      9.968     10.912
REMARK  5 active torsions:
REMARK  status: ('A' for Active; 'I' for Inactive)
REMARK    1  A    between atoms: N_2  and  C_1 
REMARK       I    between atoms: C_7  and  N_2 
REMARK    2  A    between atoms: C_21  and  N_3 
REMARK    3  A    between atoms: C_8  and  C_7 
REMARK       I    between atoms: C_12  and  N_13 
REMARK    4  A    between atoms: N_13  and  C_14 
REMARK    5  A    between atoms: C_20  and  C_21 
ROOT
ATOM      1  C   UNL d   1      44.614  28.949  59.367  0.00  0.00     0.182 A 
ATOM      2  N   UNL d   1      44.914  29.295  58.687  0.00  0.00    -0.285 N 
ATOM      3  S   UNL d   1      44.339  28.198  59.169  0.00  0.00    -0.048 SA
ATOM      4  C   UNL d   1      44.472  28.082  58.361  0.00  0.00     0.050 A 
ATOM      5  C   UNL d   1      44.828  28.763  58.062  0.00  0.00     0.072 A 
ATOM      6  C   UNL d   1      44.314  27.446  57.862  0.00  0.00     0.027 A 
ATOM      7  C   UNL d   1      45.027  28.809  57.264  0.00  0.00     0.020 A 
ATOM      8  C   UNL d   1      44.513  27.491  57.065  0.00  0.00     0.085 A 
ATOM      9  C   UNL d   1      44.869  28.173  56.766  0.00  0.00     0.021 A 
ENDROOT
BRANCH   1  10
ATOM     10  N   UNL d   1      44.594  29.297  60.114  0.00  0.00    -0.183 NA
ATOM     11  C   UNL d   1      44.528  28.821  60.782  0.00  0.00     0.287 C 
ATOM     12  O   UNL d   1      44.483  28.003  60.699  0.00  0.00    -0.265 OA
BRANCH  11  13
ATOM     13  C   UNL d   1      44.507  29.162  61.533  0.00  0.00     0.087 A 
ATOM     14  S   UNL d   1      44.673  28.783  62.251  0.00  0.00    -0.082 SA
ATOM     15  C   UNL d   1      44.586  29.327  62.866  0.00  0.00     0.036 A 
ATOM     16  C   UNL d   1      44.365  30.047  62.528  0.00  0.00     0.008 A 
ATOM     17  C   UNL d   1      44.315  29.952  61.710  0.00  0.00     0.012 A 
ENDBRANCH  11  13
ENDBRANCH   1  10
BRANCH   2  18
ATOM     18  C   UNL d   1      45.247  30.050  58.629  0.00  0.00     0.082 C 
BRANCH  18  19
ATOM     19  C   UNL d   1      44.805  30.680  58.338  0.00  0.00     0.019 C 
ATOM     20  C   UNL d   1      45.141  31.426  58.274  0.00  0.00     0.002 C 
ENDBRANCH  18  19
ENDBRANCH   2  18
BRANCH   8  21
ATOM     21  N   UNL d   1      44.354  26.848  56.556  0.00  0.00    -0.208 NA
ATOM     22  C   UNL d   1      44.922  26.275  56.436  0.00  0.00     0.279 C 
ATOM     23  O   UNL d   1      44.763  25.642  55.934  0.00  0.00    -0.265 OA
ATOM     24  C   UNL d   1      45.656  26.321  56.810  0.00  0.00     0.068 C 
ENDBRANCH   8  21
TORSDOF 5
ENDMDL
MODEL 7
REMARK VINA RESULT:      -4.6      2.538      5.908
REMARK  5 active torsions:
REMARK  status: ('A' for Active; 'I' for Inactive)
REMARK    1  A    between atoms: N_2  and  C_1 
REMARK       I    between atoms: C_7  and  N_2 
REMARK    2  A    between atoms: C_21  and  N_3 
REMARK    3  A    between atoms: C_8  and  C_7 
REMARK       I    between atoms: C_12  and  N_13 
REMARK    4  A    between atoms: N_13  and  C_14 
REMARK    5  A    between atoms: C_20  and  C_21 
ROOT
ATOM      1  C   UNL d   1      49.560  34.902  52.993  0.00  0.00     0.182 A 
ATOM      2  N   UNL d   1      49.890  34.669  52.280  0.00  0.00    -0.285 N 
ATOM      3  S   UNL d   1      50.131  34.809  53.579  0.00  0.00    -0.048 SA
ATOM      4  C   UNL d   1      50.818  34.516  53.223  0.00  0.00     0.050 A 
ATOM      5  C   UNL d   1      50.668  34.429  52.417  0.00  0.00     0.072 A 
ATOM      6  C   UNL d   1      51.556  34.318  53.529  0.00  0.00     0.027 A 
ATOM      7  C   UNL d   1      51.257  34.144  51.916  0.00  0.00     0.020 A 
ATOM      8  C   UNL d   1      52.144  34.034  53.029  0.00  0.00     0.085 A 
ATOM      9  C   UNL d   1      51.995  33.947  52.222  0.00  0.00     0.021 A 
ENDROOT
BRANCH   1  10
ATOM     10  N   UNL d   1      48.791  35.181  53.098  0.00  0.00    -0.183 NA
ATOM     11  C   UNL d   1      48.650  35.796  53.626  0.00  0.00     0.287 C 
ATOM     12  O   UNL d   1      49.277  36.128  54.045  0.00  0.00    -0.265 OA
BRANCH  11  13
ATOM     13  C   UNL d   1      47.883  36.080  53.736  0.00  0.00     0.087 A 
ATOM     14  S   UNL d   1      47.453  36.552  53.209  0.00  0.00    -0.082 SA
ATOM     15  C   UNL d   1      46.711  36.709  53.537  0.00  0.00     0.036 A 
ATOM     16  C   UNL d   1      46.681  36.332  54.270  0.00  0.00     0.008 A 
ATOM     17  C   UNL d   1      47.399  35.944  54.399  0.00  0.00     0.012 A 
ENDBRANCH  11  13
ENDBRANCH   1  10
BRANCH   2  18
ATOM     18  C   UNL d   1      49.514  34.671  51.544  0.00  0.00     0.082 C 
BRANCH  18  19
ATOM     19  C   UNL d   1      49.052  34.031  51.310  0.00  0.00     0.019 C 
ATOM     20  C   UNL d   1      48.540  34.101  50.672  0.00  0.00     0.002 C 
ENDBRANCH  18  19
ENDBRANCH   2  18
BRANCH   8  21
ATOM     21  N   UNL d   1      52.895  33.832  53.337  0.00  0.00    -0.208 NA
ATOM     22  C   UNL d   1      53.138  33.053  53.337  0.00  0.00     0.279 C 
ATOM     23  O   UNL d   1      53.877  32.857  53.641  0.00  0.00    -0.265 OA
ATOM     24  C   UNL d   1      52.652  32.458  53.037  0.00  0.00     0.068 C 
ENDBRANCH   8  21
TORSDOF 5
ENDMDL
