MODEL 1
REMARK VINA RESULT:     135.1      0.000      0.000
REMARK  4 active torsions:
REMARK  status: ('A' for Active; 'I' for Inactive)
REMARK    1  A    between atoms: N_9  and  C_3 
REMARK    2  A    between atoms: C_12  and  C_5 
REMARK    3  A    between atoms: C_15  and  N_11 
REMARK    4  A    between atoms: C_19  and  C_15 
ROOT
ATOM      1  N   UNL d   1      61.024  46.292  50.910  0.00  0.00    -0.196 N 
ATOM      2  C   UNL d   1      61.344  45.586  51.190  0.00  0.00     0.167 A 
ATOM      3  C   UNL d   1      60.819  46.889  51.438  0.00  0.00     0.152 A 
ATOM      4  N   UNL d   1      60.975  46.240  50.095  0.00  0.00    -0.163 NA
ATOM      5  C   UNL d   1      61.494  45.098  50.546  0.00  0.00     0.055 A 
ATOM      6  C   UNL d   1      61.266  45.500  49.869  0.00  0.00     0.104 A 
ATOM      7  N   UNL d   1      61.460  45.476  51.997  0.00  0.00    -0.227 NA
ATOM      8  C   UNL d   1      60.934  46.782  52.253  0.00  0.00     0.057 A 
ATOM      9  C   UNL d   1      61.255  46.075  52.532  0.00  0.00     0.086 A 
ATOM     10  C   UNL d   1      61.320  45.215  49.097  0.00  0.00     0.023 C 
ATOM     11  C   UNL d   1      61.375  45.957  53.347  0.00  0.00     0.021 C 
ENDROOT
BRANCH   3  12
ATOM     12  N   UNL d   1      60.498  47.596  51.159  0.00  0.00    -0.286 N 
ATOM     13  C   UNL d   1      59.689  47.701  51.138  0.00  0.00     0.101 A 
ATOM     14  C   UNL d   1      59.370  48.413  50.857  0.00  0.00     0.100 A 
ATOM     15  N   UNL d   1      59.855  49.000  50.605  0.00  0.00    -0.300 N 
ATOM     16  C   UNL d   1      60.677  48.895  50.625  0.00  0.00     0.100 A 
ATOM     17  C   UNL d   1      60.993  48.199  50.900  0.00  0.00     0.101 A 
BRANCH  15  18
ATOM     18  C   UNL d   1      59.512  49.706  50.326  0.00  0.00     0.080 C 
BRANCH  18  19
ATOM     19  C   UNL d   1      58.726  49.706  50.074  0.00  0.00     0.018 A 
ATOM     20  C   UNL d   1      58.112  49.706  50.629  0.00  0.00     0.002 A 
ATOM     21  C   UNL d   1      57.327  49.707  50.363  0.00  0.00     0.000 A 
ATOM     22  C   UNL d   1      57.170  49.707  49.566  0.00  0.00     0.000 A 
ATOM     23  C   UNL d   1      57.775  49.706  49.026  0.00  0.00     0.000 A 
ATOM     24  C   UNL d   1      58.561  49.706  49.279  0.00  0.00     0.002 A 
ENDBRANCH  18  19
ENDBRANCH  15  18
ENDBRANCH   3  12
BRANCH   5  25
ATOM     25  C   UNL d   1      61.808  44.337  50.485  0.00  0.00     0.004 A 
ATOM     26  C   UNL d   1      62.338  44.154  49.879  0.00  0.00     0.000 A 
ATOM     27  C   UNL d   1      62.651  43.397  49.817  0.00  0.00     0.000 A 
ATOM     28  C   UNL d   1      62.434  42.811  50.367  0.00  0.00     0.000 A 
ATOM     29  C   UNL d   1      61.904  42.994  50.972  0.00  0.00     0.000 A 
ATOM     30  C   UNL d   1      61.590  43.755  51.034  0.00  0.00     0.000 A 
ENDBRANCH   5  25
TORSDOF 4
ENDMDL
