MODEL 1
REMARK VINA RESULT:      64.9      0.000      0.000
REMARK  6 active torsions:
REMARK  status: ('A' for Active; 'I' for Inactive)
REMARK    1  A    between atoms: S_2  and  C_1 
REMARK    2  A    between atoms: N_3  and  C_1 
REMARK    3  A    between atoms: C_4  and  C_1 
REMARK    4  A    between atoms: C_6  and  S_2 
REMARK       I    between atoms: C_5  and  N_3 
REMARK    5  A    between atoms: C_9  and  C_5 
REMARK    6  A    between atoms: O_23  and  C_17 
ROOT
ATOM      1  C   UNL d   1     -55.742-100.221 -43.643  0.00  0.00     0.193 C 
ENDROOT
BRANCH   1   2
ATOM      2  S   UNL d   1     -56.492 -99.935 -43.802  0.00  0.00     0.228 S 
ATOM      3  O   UNL d   1     -56.298 -99.216 -43.436  0.00  0.00    -0.216 OA
ATOM      4  O   UNL d   1     -56.693-100.651 -44.169  0.00  0.00    -0.216 OA
BRANCH   2   5
ATOM      5  C   UNL d   1     -57.256 -99.639 -43.962  0.00  0.00     0.089 A 
ATOM      6  C   UNL d   1     -57.773 -99.494 -43.345  0.00  0.00     0.011 A 
ATOM      7  C   UNL d   1     -58.528 -99.201 -43.505  0.00  0.00     0.001 A 
ATOM      8  C   UNL d   1     -58.758 -99.055 -44.283  0.00  0.00     0.000 A 
ATOM      9  C   UNL d   1     -58.233 -99.203 -44.903  0.00  0.00     0.001 A 
ATOM     10  C   UNL d   1     -59.524 -98.758 -44.448  0.00  0.00     0.000 C 
ATOM     11  C   UNL d   1     -57.486 -99.493 -44.741  0.00  0.00     0.011 A 
ENDBRANCH   2   5
ENDBRANCH   1   2
BRANCH   1  12
ATOM     12  N   UNL d   1     -55.637-100.782 -43.046  0.00  0.00    -0.195 NA
ATOM     13  C   UNL d   1     -55.131-100.622 -42.418  0.00  0.00     0.280 C 
ATOM     14  O   UNL d   1     -54.728 -99.903 -42.384  0.00  0.00    -0.265 OA
BRANCH  13  15
ATOM     15  C   UNL d   1     -55.026-101.188 -41.819  0.00  0.00     0.058 A 
ATOM     16  C   UNL d   1     -54.974-101.989 -42.010  0.00  0.00     0.007 A 
ATOM     17  C   UNL d   1     -54.870-102.550 -41.413  0.00  0.00     0.024 A 
ATOM     18  C   UNL d   1     -54.818-102.308 -40.629  0.00  0.00     0.094 A 
ATOM     19  C   UNL d   1     -54.870-101.507 -40.438  0.00  0.00     0.024 A 
ATOM     20  C   UNL d   1     -54.973-100.948 -41.031  0.00  0.00     0.007 A 
BRANCH  18  21
ATOM     21  O   UNL d   1     -54.713-102.879 -40.030  0.00  0.00    -0.328 OA
ATOM     22  C   UNL d   1     -54.830-102.675 -39.233  0.00  0.00     0.181 C 
ENDBRANCH  18  21
ENDBRANCH  13  15
ENDBRANCH   1  12
BRANCH   1  23
ATOM     23  C   UNL d   1     -55.093 -99.951 -44.074  0.00  0.00     0.144 C 
ATOM     24 CL   UNL d   1     -54.800 -99.190 -43.946  0.00  0.00    -0.068 Cl
ATOM     25 CL   UNL d   1     -54.737-100.439 -44.632  0.00  0.00    -0.068 Cl
ENDBRANCH   1  23
TORSDOF 6
ENDMDL
