MODEL 1
REMARK VINA RESULT:      18.6      0.000      0.000
REMARK  4 active torsions:
REMARK  status: ('A' for Active; 'I' for Inactive)
REMARK    1  A    between atoms: C_7  and  C_1 
REMARK    2  A    between atoms: N_4  and  C_9 
REMARK    3  A    between atoms: O_17  and  C_7 
REMARK    4  A    between atoms: C_18  and  O_17 
ROOT
ATOM      1  C   UNL d   1      13.509  12.911  -3.438  0.00  0.00     0.127 A 
ATOM      2  C   UNL d   1      13.233  12.166  -3.305  0.00  0.00     0.305 A 
ATOM      3  C   UNL d   1      13.963  13.297  -2.865  0.00  0.00     0.013 A 
ATOM      4  O   UNL d   1      13.400  11.779  -2.592  0.00  0.00    -0.273 OA
ATOM      5  C   UNL d   1      14.120  12.911  -2.174  0.00  0.00     0.025 A 
ATOM      6  C   UNL d   1      13.844  12.166  -2.041  0.00  0.00     0.103 A 
ATOM      7  C   UNL d   1      14.740  12.911  -0.892  0.00  0.00     0.127 A 
ATOM      8  C   UNL d   1      14.573  13.297  -1.602  0.00  0.00     0.025 A 
ATOM      9  O   UNL d   1      12.780  11.779  -3.875  0.00  0.00    -0.259 OA
ATOM     10  C   UNL d   1      14.011  11.779  -1.330  0.00  0.00     0.026 A 
ATOM     11  C   UNL d   1      14.464  12.166  -0.759  0.00  0.00     0.026 A 
ENDROOT
BRANCH   1  12
ATOM     12  C   UNL d   1      13.343  13.297  -4.148  0.00  0.00     0.305 C 
ATOM     13  O   UNL d   1      13.022  12.881  -4.787  0.00  0.00    -0.259 OA
BRANCH  12  14
ATOM     14  O   UNL d   1      13.498  14.100  -4.214  0.00  0.00    -0.271 OA
BRANCH  14  15
ATOM     15  C   UNL d   1      13.015  14.571  -4.667  0.00  0.00     0.126 C 
ATOM     16  C   UNL d   1      13.248  15.319  -4.866  0.00  0.00     0.029 C 
ENDBRANCH  14  15
ENDBRANCH  12  14
ENDBRANCH   1  12
BRANCH   7  17
ATOM     17  N   UNL d   1      15.185  13.271  -0.312  0.00  0.00    -0.114 N 
ATOM     18  O   UNL d   1      15.834  12.883  -0.017  0.00  0.00    -0.532 OA
ATOM     19  O   UNL d   1      14.966  13.999  -0.050  0.00  0.00    -0.532 OA
ENDBRANCH   7  17
TORSDOF 4
ENDMDL
