MODEL 1
REMARK VINA RESULT:      -5.9      0.000      0.000
REMARK  5 active torsions:
REMARK  status: ('A' for Active; 'I' for Inactive)
REMARK    1  A    between atoms: N_2  and  S_1 
REMARK    2  A    between atoms: C_4  and  S_1 
REMARK    3  A    between atoms: C_3  and  N_2 
REMARK    4  A    between atoms: N_7  and  C_3 
REMARK    5  A    between atoms: C_15  and  N_7 
ROOT
ATOM      1  S   UNL d   1     -47.172  13.454  22.888  0.00  0.00     0.287 S 
ATOM      2  O   UNL d   1     -46.853  13.959  23.470  0.00  0.00    -0.198 OA
ATOM      3  O   UNL d   1     -47.487  12.953  22.313  0.00  0.00    -0.198 OA
ENDROOT
BRANCH   1   4
ATOM      4  N   UNL d   1     -47.937  13.689  23.103  0.00  0.00    -0.128 NA
BRANCH   4   5
ATOM      5  C   UNL d   1     -48.731  13.773  22.904  0.00  0.00     0.232 C 
ATOM      6  S   UNL d   1     -49.262  13.159  23.052  0.00  0.00    -0.036 SA
BRANCH   5   7
ATOM      7  N   UNL d   1     -48.995  14.473  22.557  0.00  0.00    -0.217 NA
BRANCH   7   8
ATOM      8  C   UNL d   1     -49.652  14.860  22.871  0.00  0.00     0.084 A 
ATOM      9  C   UNL d   1     -49.544  15.502  23.376  0.00  0.00     0.019 A 
ATOM     10  C   UNL d   1     -50.198  15.891  23.690  0.00  0.00     0.002 A 
ATOM     11  C   UNL d   1     -50.956  15.640  23.501  0.00  0.00     0.000 A 
ATOM     12  C   UNL d   1     -51.064  14.999  22.997  0.00  0.00     0.002 A 
ATOM     13  C   UNL d   1     -50.415  14.608  22.681  0.00  0.00     0.019 A 
ENDBRANCH   7   8
ENDBRANCH   5   7
ENDBRANCH   4   5
ENDBRANCH   1   4
BRANCH   1  14
ATOM     14  C   UNL d   1     -46.401  13.217  22.673  0.00  0.00     0.105 A 
ATOM     15  C   UNL d   1     -45.940  13.715  22.205  0.00  0.00     0.013 A 
ATOM     16  C   UNL d   1     -45.169  13.486  21.986  0.00  0.00     0.007 A 
ATOM     17  C   UNL d   1     -44.866  12.752  22.240  0.00  0.00     0.035 A 
ATOM     18  C   UNL d   1     -45.335  12.256  22.710  0.00  0.00     0.007 A 
ATOM     19 BR   UNL d   1     -44.102  12.528  22.021  0.00  0.00    -0.049 Br
ATOM     20  C   UNL d   1     -46.098  12.483  22.927  0.00  0.00     0.013 A 
ENDBRANCH   1  14
TORSDOF 5
ENDMDL
MODEL 2
REMARK VINA RESULT:      -5.4      1.985      4.679
REMARK  5 active torsions:
REMARK  status: ('A' for Active; 'I' for Inactive)
REMARK    1  A    between atoms: N_2  and  S_1 
REMARK    2  A    between atoms: C_4  and  S_1 
REMARK    3  A    between atoms: C_3  and  N_2 
REMARK    4  A    between atoms: N_7  and  C_3 
REMARK    5  A    between atoms: C_15  and  N_7 
ROOT
ATOM      1  S   UNL d   1     -48.432  13.944  22.913  0.00  0.00     0.287 S 
ATOM      2  O   UNL d   1     -48.683  13.384  23.477  0.00  0.00    -0.198 OA
ATOM      3  O   UNL d   1     -48.183  14.499  22.355  0.00  0.00    -0.198 OA
ENDROOT
BRANCH   1   4
ATOM      4  N   UNL d   1     -47.772  13.473  22.739  0.00  0.00    -0.128 NA
BRANCH   4   5
ATOM      5  C   UNL d   1     -47.210  12.926  22.990  0.00  0.00     0.232 C 
ATOM      6  S   UNL d   1     -47.386  12.120  22.985  0.00  0.00    -0.036 SA
BRANCH   5   7
ATOM      7  N   UNL d   1     -46.471  13.186  23.245  0.00  0.00    -0.217 NA
BRANCH   7   8
ATOM      8  C   UNL d   1     -45.797  12.982  22.816  0.00  0.00     0.084 A 
ATOM      9  C   UNL d   1     -45.424  12.262  22.963  0.00  0.00     0.019 A 
ATOM     10  C   UNL d   1     -44.751  12.055  22.536  0.00  0.00     0.002 A 
ATOM     11  C   UNL d   1     -44.452  12.564  21.966  0.00  0.00     0.000 A 
ATOM     12  C   UNL d   1     -44.824  13.283  21.820  0.00  0.00     0.002 A 
ATOM     13  C   UNL d   1     -45.496  13.494  22.243  0.00  0.00     0.019 A 
ENDBRANCH   7   8
ENDBRANCH   5   7
ENDBRANCH   4   5
ENDBRANCH   1   4
BRANCH   1  14
ATOM     14  C   UNL d   1     -49.096  14.417  23.089  0.00  0.00     0.105 A 
ATOM     15  C   UNL d   1     -49.007  15.235  23.144  0.00  0.00     0.013 A 
ATOM     16  C   UNL d   1     -49.667  15.715  23.320  0.00  0.00     0.007 A 
ATOM     17  C   UNL d   1     -50.415  15.366  23.438  0.00  0.00     0.035 A 
ATOM     18  C   UNL d   1     -50.496  14.543  23.380  0.00  0.00     0.007 A 
ATOM     19 BR   UNL d   1     -51.064  15.844  23.611  0.00  0.00    -0.049 Br
ATOM     20  C   UNL d   1     -49.844  14.069  23.207  0.00  0.00     0.013 A 
ENDBRANCH   1  14
TORSDOF 5
ENDMDL
MODEL 3
REMARK VINA RESULT:      -5.1      0.854      1.332
REMARK  5 active torsions:
REMARK  status: ('A' for Active; 'I' for Inactive)
REMARK    1  A    between atoms: N_2  and  S_1 
REMARK    2  A    between atoms: C_4  and  S_1 
REMARK    3  A    between atoms: C_3  and  N_2 
REMARK    4  A    between atoms: N_7  and  C_3 
REMARK    5  A    between atoms: C_15  and  N_7 
ROOT
ATOM      1  S   UNL d   1     -46.909  13.380  22.715  0.00  0.00     0.287 S 
ATOM      2  O   UNL d   1     -47.203  12.942  22.069  0.00  0.00    -0.198 OA
ATOM      3  O   UNL d   1     -46.617  13.813  23.354  0.00  0.00    -0.198 OA
ENDROOT
BRANCH   1   4
ATOM      4  N   UNL d   1     -47.676  13.642  22.887  0.00  0.00    -0.128 NA
BRANCH   4   5
ATOM      5  C   UNL d   1     -48.218  14.260  22.930  0.00  0.00     0.232 C 
ATOM      6  S   UNL d   1     -48.059  14.977  22.554  0.00  0.00    -0.036 SA
BRANCH   5   7
ATOM      7  N   UNL d   1     -48.920  14.162  23.351  0.00  0.00    -0.217 NA
BRANCH   7   8
ATOM      8  C   UNL d   1     -49.636  14.125  22.944  0.00  0.00     0.084 A 
ATOM      9  C   UNL d   1     -49.960  14.814  22.628  0.00  0.00     0.019 A 
ATOM     10  C   UNL d   1     -50.675  14.781  22.221  0.00  0.00     0.002 A 
ATOM     11  C   UNL d   1     -51.064  14.064  22.130  0.00  0.00     0.000 A 
ATOM     12  C   UNL d   1     -50.741  13.376  22.446  0.00  0.00     0.002 A 
ATOM     13  C   UNL d   1     -50.028  13.405  22.852  0.00  0.00     0.019 A 
ENDBRANCH   7   8
ENDBRANCH   5   7
ENDBRANCH   4   5
ENDBRANCH   1   4
BRANCH   1  14
ATOM     14  C   UNL d   1     -46.137  13.116  22.541  0.00  0.00     0.105 A 
ATOM     15  C   UNL d   1     -45.868  12.408  22.865  0.00  0.00     0.013 A 
ATOM     16  C   UNL d   1     -45.097  12.137  22.696  0.00  0.00     0.007 A 
ATOM     17  C   UNL d   1     -44.600  12.585  22.198  0.00  0.00     0.035 A 
ATOM     18  C   UNL d   1     -44.877  13.297  21.876  0.00  0.00     0.007 A 
ATOM     19 BR   UNL d   1     -43.838  12.315  22.033  0.00  0.00    -0.049 Br
ATOM     20  C   UNL d   1     -45.640  13.564  22.044  0.00  0.00     0.013 A 
ENDBRANCH   1  14
TORSDOF 5
ENDMDL
MODEL 4
REMARK VINA RESULT:      -5.1      2.031      4.790
REMARK  5 active torsions:
REMARK  status: ('A' for Active; 'I' for Inactive)
REMARK    1  A    between atoms: N_2  and  S_1 
REMARK    2  A    between atoms: C_4  and  S_1 
REMARK    3  A    between atoms: C_3  and  N_2 
REMARK    4  A    between atoms: N_7  and  C_3 
REMARK    5  A    between atoms: C_15  and  N_7 
ROOT
ATOM      1  S   UNL d   1     -47.890  13.202  22.253  0.00  0.00     0.287 S 
ATOM      2  O   UNL d   1     -47.933  12.809  21.519  0.00  0.00    -0.198 OA
ATOM      3  O   UNL d   1     -47.848  13.590  22.980  0.00  0.00    -0.198 OA
ENDROOT
BRANCH   1   4
ATOM      4  N   UNL d   1     -47.099  12.965  22.333  0.00  0.00    -0.128 NA
BRANCH   4   5
ATOM      5  C   UNL d   1     -46.466  12.772  22.823  0.00  0.00     0.232 C 
ATOM      6  S   UNL d   1     -46.516  12.120  23.326  0.00  0.00    -0.036 SA
BRANCH   5   7
ATOM      7  N   UNL d   1     -45.783  13.232  22.809  0.00  0.00    -0.217 NA
BRANCH   7   8
ATOM      8  C   UNL d   1     -45.095  12.930  22.468  0.00  0.00     0.084 A 
ATOM      9  C   UNL d   1     -44.776  12.226  22.754  0.00  0.00     0.019 A 
ATOM     10  C   UNL d   1     -44.090  11.921  22.416  0.00  0.00     0.002 A 
ATOM     11  C   UNL d   1     -43.725  12.317  21.796  0.00  0.00     0.000 A 
ATOM     12  C   UNL d   1     -44.044  13.020  21.511  0.00  0.00     0.002 A 
ATOM     13  C   UNL d   1     -44.729  13.328  21.845  0.00  0.00     0.019 A 
ENDBRANCH   7   8
ENDBRANCH   5   7
ENDBRANCH   4   5
ENDBRANCH   1   4
BRANCH   1  14
ATOM     14  C   UNL d   1     -48.685  13.439  22.173  0.00  0.00     0.105 A 
ATOM     15  C   UNL d   1     -48.898  14.214  22.361  0.00  0.00     0.013 A 
ATOM     16  C   UNL d   1     -49.691  14.459  22.282  0.00  0.00     0.007 A 
ATOM     17  C   UNL d   1     -50.268  13.920  22.013  0.00  0.00     0.035 A 
ATOM     18  C   UNL d   1     -50.047  13.143  21.826  0.00  0.00     0.007 A 
ATOM     19 BR   UNL d   1     -51.052  14.166  21.937  0.00  0.00    -0.049 Br
ATOM     20  C   UNL d   1     -49.262  12.901  21.904  0.00  0.00     0.013 A 
ENDBRANCH   1  14
TORSDOF 5
ENDMDL
MODEL 5
REMARK VINA RESULT:      -5.1      8.748      9.537
REMARK  5 active torsions:
REMARK  status: ('A' for Active; 'I' for Inactive)
REMARK    1  A    between atoms: N_2  and  S_1 
REMARK    2  A    between atoms: C_4  and  S_1 
REMARK    3  A    between atoms: C_3  and  N_2 
REMARK    4  A    between atoms: N_7  and  C_3 
REMARK    5  A    between atoms: C_15  and  N_7 
ROOT
ATOM      1  S   UNL d   1     -39.875  14.667  19.393  0.00  0.00     0.287 S 
ATOM      2  O   UNL d   1     -40.418  14.035  19.426  0.00  0.00    -0.198 OA
ATOM      3  O   UNL d   1     -39.339  15.293  19.360  0.00  0.00    -0.198 OA
ENDROOT
BRANCH   1   4
ATOM      4  N   UNL d   1     -39.538  14.415  20.107  0.00  0.00    -0.128 NA
BRANCH   4   5
ATOM      5  C   UNL d   1     -39.446  14.516  20.919  0.00  0.00     0.232 C 
ATOM      6  S   UNL d   1     -40.109  14.598  21.403  0.00  0.00    -0.036 SA
BRANCH   5   7
ATOM      7  N   UNL d   1     -38.691  14.536  21.247  0.00  0.00    -0.217 NA
BRANCH   7   8
ATOM      8  C   UNL d   1     -38.522  14.074  21.909  0.00  0.00     0.084 A 
ATOM      9  C   UNL d   1     -38.138  13.351  21.814  0.00  0.00     0.019 A 
ATOM     10  C   UNL d   1     -37.968  12.888  22.473  0.00  0.00     0.002 A 
ATOM     11  C   UNL d   1     -38.182  13.144  23.223  0.00  0.00     0.000 A 
ATOM     12  C   UNL d   1     -38.565  13.866  23.318  0.00  0.00     0.002 A 
ATOM     13  C   UNL d   1     -38.736  14.332  22.663  0.00  0.00     0.019 A 
ENDBRANCH   7   8
ENDBRANCH   5   7
ENDBRANCH   4   5
ENDBRANCH   1   4
BRANCH   1  14
ATOM     14  C   UNL d   1     -40.215  14.920  18.675  0.00  0.00     0.105 A 
ATOM     15  C   UNL d   1     -40.576  15.661  18.635  0.00  0.00     0.013 A 
ATOM     16  C   UNL d   1     -40.918  15.921  17.921  0.00  0.00     0.007 A 
ATOM     17  C   UNL d   1     -40.894  15.431  17.246  0.00  0.00     0.035 A 
ATOM     18  C   UNL d   1     -40.530  14.687  17.294  0.00  0.00     0.007 A 
ATOM     19 BR   UNL d   1     -41.234  15.691  16.541  0.00  0.00    -0.049 Br
ATOM     20  C   UNL d   1     -40.191  14.430  18.001  0.00  0.00     0.013 A 
ENDBRANCH   1  14
TORSDOF 5
ENDMDL
MODEL 6
REMARK VINA RESULT:      -4.9      8.693      9.747
REMARK  5 active torsions:
REMARK  status: ('A' for Active; 'I' for Inactive)
REMARK    1  A    between atoms: N_2  and  S_1 
REMARK    2  A    between atoms: C_4  and  S_1 
REMARK    3  A    between atoms: C_3  and  N_2 
REMARK    4  A    between atoms: N_7  and  C_3 
REMARK    5  A    between atoms: C_15  and  N_7 
ROOT
ATOM      1  S   UNL d   1     -39.272  14.102  18.292  0.00  0.00     0.287 S 
ATOM      2  O   UNL d   1     -39.975  13.730  18.039  0.00  0.00    -0.198 OA
ATOM      3  O   UNL d   1     -38.577  14.469  18.542  0.00  0.00    -0.198 OA
ENDROOT
BRANCH   1   4
ATOM      4  N   UNL d   1     -39.604  14.217  19.043  0.00  0.00    -0.128 NA
BRANCH   4   5
ATOM      5  C   UNL d   1     -40.030  14.695  19.560  0.00  0.00     0.232 C 
ATOM      6  S   UNL d   1     -40.237  15.462  19.339  0.00  0.00    -0.036 SA
BRANCH   5   7
ATOM      7  N   UNL d   1     -40.248  14.405  20.300  0.00  0.00    -0.217 NA
BRANCH   7   8
ATOM      8  C   UNL d   1     -39.955  14.767  20.982  0.00  0.00     0.084 A 
ATOM      9  C   UNL d   1     -40.134  15.557  21.132  0.00  0.00     0.019 A 
ATOM     10  C   UNL d   1     -39.844  15.920  21.811  0.00  0.00     0.002 A 
ATOM     11  C   UNL d   1     -39.377  15.497  22.337  0.00  0.00     0.000 A 
ATOM     12  C   UNL d   1     -39.199  14.708  22.187  0.00  0.00     0.002 A 
ATOM     13  C   UNL d   1     -39.487  14.341  21.510  0.00  0.00     0.019 A 
ENDBRANCH   7   8
ENDBRANCH   5   7
ENDBRANCH   4   5
ENDBRANCH   1   4
BRANCH   1  14
ATOM     14  C   UNL d   1     -38.940  13.985  17.536  0.00  0.00     0.105 A 
ATOM     15  C   UNL d   1     -38.479  13.316  17.394  0.00  0.00     0.013 A 
ATOM     16  C   UNL d   1     -38.143  13.192  16.641  0.00  0.00     0.007 A 
ATOM     17  C   UNL d   1     -38.274  13.747  16.032  0.00  0.00     0.035 A 
ATOM     18  C   UNL d   1     -38.738  14.417  16.182  0.00  0.00     0.007 A 
ATOM     19 BR   UNL d   1     -37.940  13.621  15.288  0.00  0.00    -0.049 Br
ATOM     20  C   UNL d   1     -39.070  14.539  16.927  0.00  0.00     0.013 A 
ENDBRANCH   1  14
TORSDOF 5
ENDMDL
