MODEL 1
REMARK VINA RESULT:      33.2      0.000      0.000
REMARK  1 active torsions:
REMARK  status: ('A' for Active; 'I' for Inactive)
REMARK    1  A    between atoms: C_7  and  N_1 
ROOT
ATOM      1  N   UNL d   1      58.965  49.673  50.995  0.00  0.00    -0.242 N 
ATOM      2  C   UNL d   1      58.377  49.661  51.534  0.00  0.00     0.267 A 
ATOM      3  C   UNL d   1      58.838  49.683  50.156  0.00  0.00     0.267 A 
ATOM      4  C   UNL d   1      57.594  49.658  51.249  0.00  0.00     0.057 A 
ATOM      5  C   UNL d   1      58.053  49.679  49.922  0.00  0.00     0.057 A 
ATOM      6  C   UNL d   1      57.446  49.667  50.479  0.00  0.00     0.009 A 
ATOM      7  O   UNL d   1      59.444  49.695  49.600  0.00  0.00    -0.267 OA
ATOM      8  O   UNL d   1      58.529  49.652  52.345  0.00  0.00    -0.267 OA
ATOM      9  C   UNL d   1      56.660  49.664  50.198  0.00  0.00     0.000 A 
ATOM     10  C   UNL d   1      57.899  49.689  49.111  0.00  0.00     0.005 A 
ATOM     11  C   UNL d   1      56.979  49.646  51.815  0.00  0.00     0.005 A 
ATOM     12  C   UNL d   1      57.136  49.685  48.844  0.00  0.00     0.000 A 
ATOM     13  C   UNL d   1      56.199  49.642  51.575  0.00  0.00     0.000 A 
ATOM     14  C   UNL d   1      56.530  49.673  49.401  0.00  0.00     0.000 A 
ATOM     15  C   UNL d   1      56.058  49.652  50.733  0.00  0.00     0.000 A 
ENDROOT
BRANCH   1  16
ATOM     16  C   UNL d   1      59.746  49.676  51.280  0.00  0.00     0.070 A 
ATOM     17  C   UNL d   1      60.398  49.661  50.758  0.00  0.00     0.021 A 
ATOM     18  C   UNL d   1      61.149  49.664  51.045  0.00  0.00     0.043 A 
ATOM     19  C   UNL d   1      61.313  49.683  51.896  0.00  0.00     0.196 A 
ATOM     20  C   UNL d   1      60.675  49.699  52.424  0.00  0.00     0.043 A 
ATOM     21  O   UNL d   1      62.099  49.688  52.252  0.00  0.00    -0.287 OA
ATOM     22  C   UNL d   1      59.891  49.695  52.106  0.00  0.00     0.021 A 
ENDBRANCH   1  16
TORSDOF 1
ENDMDL
