MODEL 1
REMARK VINA RESULT:      -7.4      0.000      0.000
REMARK  3 active torsions:
REMARK  status: ('A' for Active; 'I' for Inactive)
REMARK    1  A    between atoms: C_11  and  C_4 
REMARK       I    between atoms: C_6  and  N_8 
REMARK    2  A    between atoms: C_9  and  C_6 
REMARK    3  A    between atoms: N_8  and  C_19 
ROOT
ATOM      1  C   UNL d   1     -47.558  14.508  22.729  0.00  0.00     0.021 A 
ATOM      2  C   UNL d   1     -46.405  13.720  23.069  0.00  0.00     0.085 A 
ATOM      3  C   UNL d   1     -47.222  13.792  22.976  0.00  0.00     0.021 A 
ATOM      4  C   UNL d   1     -47.066  15.163  22.573  0.00  0.00     0.002 A 
ATOM      5  C   UNL d   1     -46.249  15.095  22.665  0.00  0.00     0.002 A 
ATOM      6  C   UNL d   1     -45.912  14.374  22.914  0.00  0.00     0.019 A 
ENDROOT
BRANCH   2   7
ATOM      7  N   UNL d   1     -46.080  13.005  23.315  0.00  0.00    -0.208 NA
ATOM      8  C   UNL d   1     -45.732  12.487  22.768  0.00  0.00     0.279 C 
ATOM      9  O   UNL d   1     -45.715  12.699  21.961  0.00  0.00    -0.265 OA
BRANCH   8  10
ATOM     10  C   UNL d   1     -45.406  11.771  23.012  0.00  0.00     0.060 A 
ATOM     11  C   UNL d   1     -44.598  11.643  22.948  0.00  0.00     0.031 A 
ATOM     12  C   UNL d   1     -44.282  10.935  23.190  0.00  0.00     0.119 A 
ATOM     13  O   UNL d   1     -43.500  10.644  23.196  0.00  0.00    -0.300 OA
ATOM     14  C   UNL d   1     -44.768  10.345  23.501  0.00  0.00     0.119 A 
ATOM     15  C   UNL d   1     -43.515   9.878  23.510  0.00  0.00     0.304 A 
ATOM     16  O   UNL d   1     -44.298   9.694  23.698  0.00  0.00    -0.300 OA
ATOM     17  C   UNL d   1     -45.579  10.469  23.567  0.00  0.00     0.026 A 
ATOM     18  C   UNL d   1     -45.902  11.188  23.321  0.00  0.00     0.007 A 
ENDBRANCH   8  10
ENDBRANCH   2   7
BRANCH   1  19
ATOM     19  C   UNL d   1     -48.375  14.581  22.636  0.00  0.00     0.118 A 
ATOM     20  N   UNL d   1     -48.835  15.229  22.852  0.00  0.00    -0.059 NA
ATOM     21  C   UNL d   1     -49.623  15.058  22.655  0.00  0.00     0.735 A 
ATOM     22  N   UNL d   1     -49.643  14.305  22.319  0.00  0.00    -0.136 N 
ATOM     23  N   UNL d   1     -50.314  15.501  22.745  0.00  0.00    -0.059 NA
ATOM     24  C   UNL d   1     -48.873  14.008  22.306  0.00  0.00     0.118 A 
ATOM     25  C   UNL d   1     -50.371  13.993  22.069  0.00  0.00     0.100 A 
ATOM     26  C   UNL d   1     -51.062  14.424  22.153  0.00  0.00     0.041 A 
ATOM     27  C   UNL d   1     -51.033  15.184  22.494  0.00  0.00     0.119 A 
ENDBRANCH   1  19
TORSDOF 3
ENDMDL
MODEL 2
REMARK VINA RESULT:      -7.3      2.027      5.674
REMARK  3 active torsions:
REMARK  status: ('A' for Active; 'I' for Inactive)
REMARK    1  A    between atoms: C_11  and  C_4 
REMARK       I    between atoms: C_6  and  N_8 
REMARK    2  A    between atoms: C_9  and  C_6 
REMARK    3  A    between atoms: N_8  and  C_19 
ROOT
ATOM      1  C   UNL d   1     -45.575  12.768  22.681  0.00  0.00     0.021 A 
ATOM      2  C   UNL d   1     -46.696  13.665  22.764  0.00  0.00     0.085 A 
ATOM      3  C   UNL d   1     -46.326  12.958  22.975  0.00  0.00     0.021 A 
ATOM      4  C   UNL d   1     -45.188  13.297  22.166  0.00  0.00     0.002 A 
ATOM      5  C   UNL d   1     -45.553  14.005  21.952  0.00  0.00     0.002 A 
ATOM      6  C   UNL d   1     -46.309  14.195  22.248  0.00  0.00     0.019 A 
ENDROOT
BRANCH   2   7
ATOM      7  N   UNL d   1     -47.442  13.846  23.061  0.00  0.00    -0.208 NA
ATOM      8  C   UNL d   1     -48.106  13.852  22.563  0.00  0.00     0.279 C 
ATOM      9  O   UNL d   1     -48.010  13.671  21.755  0.00  0.00    -0.265 OA
BRANCH   8  10
ATOM     10  C   UNL d   1     -48.853  14.032  22.859  0.00  0.00     0.060 A 
ATOM     11  C   UNL d   1     -49.157  14.790  22.776  0.00  0.00     0.031 A 
ATOM     12  C   UNL d   1     -49.895  14.962  23.070  0.00  0.00     0.119 A 
ATOM     13  O   UNL d   1     -50.345  15.664  23.073  0.00  0.00    -0.300 OA
ATOM     14  C   UNL d   1     -50.340  14.381  23.450  0.00  0.00     0.119 A 
ATOM     15  C   UNL d   1     -51.062  15.505  23.455  0.00  0.00     0.304 A 
ATOM     16  O   UNL d   1     -51.058  14.713  23.687  0.00  0.00    -0.300 OA
ATOM     17  C   UNL d   1     -50.039  13.620  23.535  0.00  0.00     0.026 A 
ATOM     18  C   UNL d   1     -49.289  13.443  23.237  0.00  0.00     0.007 A 
ENDBRANCH   8  10
ENDBRANCH   2   7
BRANCH   1  19
ATOM     19  C   UNL d   1     -45.206  12.061  22.892  0.00  0.00     0.118 A 
ATOM     20  N   UNL d   1     -44.401  11.897  22.843  0.00  0.00    -0.059 NA
ATOM     21  C   UNL d   1     -44.281  11.122  23.113  0.00  0.00     0.735 A 
ATOM     22  N   UNL d   1     -45.015  10.812  23.329  0.00  0.00    -0.136 N 
ATOM     23  N   UNL d   1     -43.593  10.671  23.186  0.00  0.00    -0.059 NA
ATOM     24  C   UNL d   1     -45.588  11.391  23.193  0.00  0.00     0.118 A 
ATOM     25  C   UNL d   1     -45.057  10.037  23.622  0.00  0.00     0.100 A 
ATOM     26  C   UNL d   1     -44.381   9.582  23.698  0.00  0.00     0.041 A 
ATOM     27  C   UNL d   1     -43.643   9.901  23.478  0.00  0.00     0.119 A 
ENDBRANCH   1  19
TORSDOF 3
ENDMDL
MODEL 3
REMARK VINA RESULT:      -7.0      7.770      9.657
REMARK  3 active torsions:
REMARK  status: ('A' for Active; 'I' for Inactive)
REMARK    1  A    between atoms: C_11  and  C_4 
REMARK       I    between atoms: C_6  and  N_8 
REMARK    2  A    between atoms: C_9  and  C_6 
REMARK    3  A    between atoms: N_8  and  C_19 
ROOT
ATOM      1  C   UNL d   1     -39.846  14.867  20.782  0.00  0.00     0.021 A 
ATOM      2  C   UNL d   1     -39.890  15.193  19.382  0.00  0.00     0.085 A 
ATOM      3  C   UNL d   1     -39.502  14.855  20.028  0.00  0.00     0.021 A 
ATOM      4  C   UNL d   1     -40.592  15.224  20.889  0.00  0.00     0.002 A 
ATOM      5  C   UNL d   1     -40.983  15.562  20.247  0.00  0.00     0.002 A 
ATOM      6  C   UNL d   1     -40.636  15.550  19.489  0.00  0.00     0.019 A 
ENDROOT
BRANCH   2   7
ATOM      7  N   UNL d   1     -39.541  15.177  18.637  0.00  0.00    -0.208 NA
ATOM      8  C   UNL d   1     -39.710  14.564  18.102  0.00  0.00     0.279 C 
ATOM      9  O   UNL d   1     -40.239  13.961  18.330  0.00  0.00    -0.265 OA
BRANCH   8  10
ATOM     10  C   UNL d   1     -39.362  14.547  17.356  0.00  0.00     0.060 A 
ATOM     11  C   UNL d   1     -38.934  13.889  17.116  0.00  0.00     0.031 A 
ATOM     12  C   UNL d   1     -38.593  13.878  16.379  0.00  0.00     0.119 A 
ATOM     13  O   UNL d   1     -38.135  13.304  15.983  0.00  0.00    -0.300 OA
ATOM     14  C   UNL d   1     -38.673  14.523  15.871  0.00  0.00     0.119 A 
ATOM     15  C   UNL d   1     -37.940  13.604  15.237  0.00  0.00     0.304 A 
ATOM     16  O   UNL d   1     -38.273  14.356  15.168  0.00  0.00    -0.300 OA
ATOM     17  C   UNL d   1     -39.102  15.185  16.108  0.00  0.00     0.026 A 
ATOM     18  C   UNL d   1     -39.449  15.198  16.857  0.00  0.00     0.007 A 
ENDBRANCH   8  10
ENDBRANCH   2   7
BRANCH   1  19
ATOM     19  C   UNL d   1     -39.458  14.530  21.427  0.00  0.00     0.118 A 
ATOM     20  N   UNL d   1     -39.353  13.726  21.567  0.00  0.00    -0.059 NA
ATOM     21  C   UNL d   1     -38.934  13.644  22.279  0.00  0.00     0.735 A 
ATOM     22  N   UNL d   1     -38.784  14.400  22.574  0.00  0.00    -0.136 N 
ATOM     23  N   UNL d   1     -38.677  12.972  22.685  0.00  0.00    -0.059 NA
ATOM     24  C   UNL d   1     -39.107  14.950  22.049  0.00  0.00     0.118 A 
ATOM     25  C   UNL d   1     -38.369  14.481  23.288  0.00  0.00     0.100 A 
ATOM     26  C   UNL d   1     -38.109  13.821  23.698  0.00  0.00     0.041 A 
ATOM     27  C   UNL d   1     -38.265  13.061  23.394  0.00  0.00     0.119 A 
ENDBRANCH   1  19
TORSDOF 3
ENDMDL
MODEL 4
REMARK VINA RESULT:      -7.0      1.522      2.166
REMARK  3 active torsions:
REMARK  status: ('A' for Active; 'I' for Inactive)
REMARK    1  A    between atoms: C_11  and  C_4 
REMARK       I    between atoms: C_6  and  N_8 
REMARK    2  A    between atoms: C_9  and  C_6 
REMARK    3  A    between atoms: N_8  and  C_19 
ROOT
ATOM      1  C   UNL d   1     -48.562  12.788  23.248  0.00  0.00     0.021 A 
ATOM      2  C   UNL d   1     -47.302  12.197  22.886  0.00  0.00     0.085 A 
ATOM      3  C   UNL d   1     -47.829  12.831  22.863  0.00  0.00     0.021 A 
ATOM      4  C   UNL d   1     -48.768  12.095  23.664  0.00  0.00     0.002 A 
ATOM      5  C   UNL d   1     -48.243  11.459  23.690  0.00  0.00     0.002 A 
ATOM      6  C   UNL d   1     -47.507  11.504  23.302  0.00  0.00     0.019 A 
ENDROOT
BRANCH   2   7
ATOM      7  N   UNL d   1     -46.577  12.249  22.500  0.00  0.00    -0.208 NA
ATOM      8  C   UNL d   1     -45.911  12.560  22.887  0.00  0.00     0.279 C 
ATOM      9  O   UNL d   1     -45.986  12.821  23.675  0.00  0.00    -0.265 OA
BRANCH   8  10
ATOM     10  C   UNL d   1     -45.185  12.613  22.502  0.00  0.00     0.060 A 
ATOM     11  C   UNL d   1     -44.594  12.066  22.660  0.00  0.00     0.031 A 
ATOM     12  C   UNL d   1     -43.880  12.123  22.277  0.00  0.00     0.119 A 
ATOM     13  O   UNL d   1     -43.185  11.663  22.318  0.00  0.00    -0.300 OA
ATOM     14  C   UNL d   1     -43.745  12.726  21.731  0.00  0.00     0.119 A 
ATOM     15  C   UNL d   1     -42.633  11.989  21.796  0.00  0.00     0.304 A 
ATOM     16  O   UNL d   1     -42.979  12.646  21.433  0.00  0.00    -0.300 OA
ATOM     17  C   UNL d   1     -44.336  13.276  21.569  0.00  0.00     0.026 A 
ATOM     18  C   UNL d   1     -45.063  13.220  21.957  0.00  0.00     0.007 A 
ENDBRANCH   8  10
ENDBRANCH   2   7
BRANCH   1  19
ATOM     19  C   UNL d   1     -49.089  13.422  23.225  0.00  0.00     0.118 A 
ATOM     20  N   UNL d   1     -49.020  14.129  23.640  0.00  0.00    -0.059 NA
ATOM     21  C   UNL d   1     -49.675  14.602  23.448  0.00  0.00     0.735 A 
ATOM     22  N   UNL d   1     -50.144  14.182  22.915  0.00  0.00    -0.136 N 
ATOM     23  N   UNL d   1     -49.891  15.359  23.698  0.00  0.00    -0.059 NA
ATOM     24  C   UNL d   1     -49.784  13.452  22.775  0.00  0.00     0.118 A 
ATOM     25  C   UNL d   1     -50.841  14.529  22.628  0.00  0.00     0.100 A 
ATOM     26  C   UNL d   1     -51.064  15.279  22.870  0.00  0.00     0.041 A 
ATOM     27  C   UNL d   1     -50.586  15.697  23.408  0.00  0.00     0.119 A 
ENDBRANCH   1  19
TORSDOF 3
ENDMDL
MODEL 5
REMARK VINA RESULT:      -6.7      8.037      9.513
REMARK  3 active torsions:
REMARK  status: ('A' for Active; 'I' for Inactive)
REMARK    1  A    between atoms: C_11  and  C_4 
REMARK       I    between atoms: C_6  and  N_8 
REMARK    2  A    between atoms: C_9  and  C_6 
REMARK    3  A    between atoms: N_8  and  C_19 
ROOT
ATOM      1  C   UNL d   1     -39.770  15.303  18.045  0.00  0.00     0.021 A 
ATOM      2  C   UNL d   1     -39.877  15.498  19.466  0.00  0.00     0.085 A 
ATOM      3  C   UNL d   1     -39.456  15.230  18.809  0.00  0.00     0.021 A 
ATOM      4  C   UNL d   1     -40.520  15.652  17.940  0.00  0.00     0.002 A 
ATOM      5  C   UNL d   1     -40.945  15.922  18.594  0.00  0.00     0.002 A 
ATOM      6  C   UNL d   1     -40.628  15.848  19.361  0.00  0.00     0.019 A 
ENDROOT
BRANCH   2   7
ATOM      7  N   UNL d   1     -39.557  15.422  20.220  0.00  0.00    -0.208 NA
ATOM      8  C   UNL d   1     -39.794  14.804  20.721  0.00  0.00     0.279 C 
ATOM      9  O   UNL d   1     -40.363  14.257  20.450  0.00  0.00    -0.265 OA
BRANCH   8  10
ATOM     10  C   UNL d   1     -39.475  14.726  21.476  0.00  0.00     0.060 A 
ATOM     11  C   UNL d   1     -39.220  13.993  21.742  0.00  0.00     0.031 A 
ATOM     12  C   UNL d   1     -38.906  13.923  22.488  0.00  0.00     0.119 A 
ATOM     13  O   UNL d   1     -38.605  13.268  22.909  0.00  0.00    -0.300 OA
ATOM     14  C   UNL d   1     -38.843  14.583  22.979  0.00  0.00     0.119 A 
ATOM     15  C   UNL d   1     -38.360  13.534  23.653  0.00  0.00     0.304 A 
ATOM     16  O   UNL d   1     -38.507  14.346  23.696  0.00  0.00    -0.300 OA
ATOM     17  C   UNL d   1     -39.098  15.320  22.716  0.00  0.00     0.026 A 
ATOM     18  C   UNL d   1     -39.417  15.393  21.958  0.00  0.00     0.007 A 
ENDBRANCH   8  10
ENDBRANCH   2   7
BRANCH   1  19
ATOM     19  C   UNL d   1     -39.349  15.034  17.388  0.00  0.00     0.118 A 
ATOM     20  N   UNL d   1     -39.150  14.253  17.222  0.00  0.00    -0.059 NA
ATOM     21  C   UNL d   1     -38.729  14.244  16.508  0.00  0.00     0.735 A 
ATOM     22  N   UNL d   1     -38.671  15.021  16.237  0.00  0.00    -0.136 N 
ATOM     23  N   UNL d   1     -38.397  13.620  16.080  0.00  0.00    -0.059 NA
ATOM     24  C   UNL d   1     -39.054  15.512  16.780  0.00  0.00     0.118 A 
ATOM     25  C   UNL d   1     -38.272  15.173  15.525  0.00  0.00     0.100 A 
ATOM     26  C   UNL d   1     -37.940  14.562  15.093  0.00  0.00     0.041 A 
ATOM     27  C   UNL d   1     -38.002  13.780  15.373  0.00  0.00     0.119 A 
ENDBRANCH   1  19
TORSDOF 3
ENDMDL
MODEL 6
REMARK VINA RESULT:      -6.1      1.785      2.324
REMARK  3 active torsions:
REMARK  status: ('A' for Active; 'I' for Inactive)
REMARK    1  A    between atoms: C_11  and  C_4 
REMARK       I    between atoms: C_6  and  N_8 
REMARK    2  A    between atoms: C_9  and  C_6 
REMARK    3  A    between atoms: N_8  and  C_19 
ROOT
ATOM      1  C   UNL d   1     -48.088  13.851  22.934  0.00  0.00     0.021 A 
ATOM      2  C   UNL d   1     -46.681  14.052  22.717  0.00  0.00     0.085 A 
ATOM      3  C   UNL d   1     -47.315  13.555  22.896  0.00  0.00     0.021 A 
ATOM      4  C   UNL d   1     -48.226  14.661  22.791  0.00  0.00     0.002 A 
ATOM      5  C   UNL d   1     -47.595  15.161  22.612  0.00  0.00     0.002 A 
ATOM      6  C   UNL d   1     -46.819  14.862  22.574  0.00  0.00     0.019 A 
ENDROOT
BRANCH   2   7
ATOM      7  N   UNL d   1     -45.916  13.749  22.681  0.00  0.00    -0.208 NA
ATOM      8  C   UNL d   1     -45.687  13.248  22.061  0.00  0.00     0.279 C 
ATOM      9  O   UNL d   1     -46.242  13.053  21.470  0.00  0.00    -0.265 OA
BRANCH   8  10
ATOM     10  C   UNL d   1     -44.922  12.944  22.024  0.00  0.00     0.060 A 
ATOM     11  C   UNL d   1     -44.362  13.295  21.537  0.00  0.00     0.031 A 
ATOM     12  C   UNL d   1     -43.610  12.991  21.505  0.00  0.00     0.119 A 
ATOM     13  O   UNL d   1     -42.933  13.219  21.074  0.00  0.00    -0.300 OA
ATOM     14  C   UNL d   1     -43.405  12.332  21.958  0.00  0.00     0.119 A 
ATOM     15  C   UNL d   1     -42.320  12.697  21.268  0.00  0.00     0.304 A 
ATOM     16  O   UNL d   1     -42.612  12.150  21.813  0.00  0.00    -0.300 OA
ATOM     17  C   UNL d   1     -43.964  11.977  22.447  0.00  0.00     0.026 A 
ATOM     18  C   UNL d   1     -44.729  12.285  22.481  0.00  0.00     0.007 A 
ENDBRANCH   8  10
ENDBRANCH   2   7
BRANCH   1  19
ATOM     19  C   UNL d   1     -48.722  13.354  23.113  0.00  0.00     0.118 A 
ATOM     20  N   UNL d   1     -48.688  12.539  23.219  0.00  0.00    -0.059 NA
ATOM     21  C   UNL d   1     -49.455  12.272  23.389  0.00  0.00     0.735 A 
ATOM     22  N   UNL d   1     -49.958  12.926  23.386  0.00  0.00    -0.136 N 
ATOM     23  N   UNL d   1     -49.746  11.514  23.544  0.00  0.00    -0.059 NA
ATOM     24  C   UNL d   1     -49.507  13.597  23.216  0.00  0.00     0.118 A 
ATOM     25  C   UNL d   1     -50.766  12.816  23.542  0.00  0.00     0.100 A 
ATOM     26  C   UNL d   1     -51.064  12.069  23.696  0.00  0.00     0.041 A 
ATOM     27  C   UNL d   1     -50.550  11.414  23.697  0.00  0.00     0.119 A 
ENDBRANCH   1  19
TORSDOF 3
ENDMDL
MODEL 7
REMARK VINA RESULT:      -5.2      3.304      6.172
REMARK  3 active torsions:
REMARK  status: ('A' for Active; 'I' for Inactive)
REMARK    1  A    between atoms: C_11  and  C_4 
REMARK       I    between atoms: C_6  and  N_8 
REMARK    2  A    between atoms: C_9  and  C_6 
REMARK    3  A    between atoms: N_8  and  C_19 
ROOT
ATOM      1  C   UNL d   1     -43.035  12.980  21.454  0.00  0.00     0.021 A 
ATOM      2  C   UNL d   1     -44.419  12.879  21.830  0.00  0.00     0.085 A 
ATOM      3  C   UNL d   1     -43.805  13.285  21.457  0.00  0.00     0.021 A 
ATOM      4  C   UNL d   1     -42.878  12.254  21.833  0.00  0.00     0.002 A 
ATOM      5  C   UNL d   1     -43.488  11.844  22.207  0.00  0.00     0.002 A 
ATOM      6  C   UNL d   1     -44.262  12.152  22.209  0.00  0.00     0.019 A 
ENDROOT
BRANCH   2   7
ATOM      7  N   UNL d   1     -45.181  13.190  21.828  0.00  0.00    -0.208 NA
ATOM      8  C   UNL d   1     -45.663  13.135  22.501  0.00  0.00     0.279 C 
ATOM      9  O   UNL d   1     -45.366  12.761  23.184  0.00  0.00    -0.265 OA
BRANCH   8  10
ATOM     10  C   UNL d   1     -46.426  13.446  22.500  0.00  0.00     0.060 A 
ATOM     11  C   UNL d   1     -47.041  13.028  22.153  0.00  0.00     0.031 A 
ATOM     12  C   UNL d   1     -47.791  13.339  22.155  0.00  0.00     0.119 A 
ATOM     13  O   UNL d   1     -48.515  13.055  21.854  0.00  0.00    -0.300 OA
ATOM     14  C   UNL d   1     -47.939  14.072  22.504  0.00  0.00     0.119 A 
ATOM     15  C   UNL d   1     -49.099  13.618  22.022  0.00  0.00     0.304 A 
ATOM     16  O   UNL d   1     -48.742  14.245  22.423  0.00  0.00    -0.300 OA
ATOM     17  C   UNL d   1     -47.325  14.494  22.854  0.00  0.00     0.026 A 
ATOM     18  C   UNL d   1     -46.561  14.180  22.852  0.00  0.00     0.007 A 
ENDBRANCH   8  10
ENDBRANCH   2   7
BRANCH   1  19
ATOM     19  C   UNL d   1     -42.421  13.386  21.081  0.00  0.00     0.118 A 
ATOM     20  N   UNL d   1     -42.174  13.289  20.302  0.00  0.00    -0.059 NA
ATOM     21  C   UNL d   1     -41.543  13.811  20.168  0.00  0.00     0.735 A 
ATOM     22  N   UNL d   1     -41.404  14.227  20.867  0.00  0.00    -0.136 N 
ATOM     23  N   UNL d   1     -41.085  13.950  19.494  0.00  0.00    -0.059 NA
ATOM     24  C   UNL d   1     -41.946  13.967  21.433  0.00  0.00     0.118 A 
ATOM     25  C   UNL d   1     -40.796  14.792  20.888  0.00  0.00     0.100 A 
ATOM     26  C   UNL d   1     -40.337  14.937  20.226  0.00  0.00     0.041 A 
ATOM     27  C   UNL d   1     -40.483  14.512  19.524  0.00  0.00     0.119 A 
ENDBRANCH   1  19
TORSDOF 3
ENDMDL
MODEL 8
REMARK VINA RESULT:      -5.0      3.956      5.116
REMARK  3 active torsions:
REMARK  status: ('A' for Active; 'I' for Inactive)
REMARK    1  A    between atoms: C_11  and  C_4 
REMARK       I    between atoms: C_6  and  N_8 
REMARK    2  A    between atoms: C_9  and  C_6 
REMARK    3  A    between atoms: N_8  and  C_19 
ROOT
ATOM      1  C   UNL d   1     -44.362  12.922  21.917  0.00  0.00     0.021 A 
ATOM      2  C   UNL d   1     -43.108  13.154  21.254  0.00  0.00     0.085 A 
ATOM      3  C   UNL d   1     -43.872  13.397  21.448  0.00  0.00     0.021 A 
ATOM      4  C   UNL d   1     -44.080  12.189  22.197  0.00  0.00     0.002 A 
ATOM      5  C   UNL d   1     -43.317  11.941  22.007  0.00  0.00     0.002 A 
ATOM      6  C   UNL d   1     -42.825  12.420  21.534  0.00  0.00     0.019 A 
ENDROOT
BRANCH   2   7
ATOM      7  N   UNL d   1     -42.627  13.632  20.788  0.00  0.00    -0.208 NA
ATOM      8  C   UNL d   1     -41.888  13.889  21.063  0.00  0.00     0.279 C 
ATOM      9  O   UNL d   1     -41.634  13.656  21.823  0.00  0.00    -0.265 OA
BRANCH   8  10
ATOM     10  C   UNL d   1     -41.406  14.368  20.597  0.00  0.00     0.060 A 
ATOM     11  C   UNL d   1     -41.024  14.055  19.942  0.00  0.00     0.031 A 
ATOM     12  C   UNL d   1     -40.551  14.532  19.486  0.00  0.00     0.119 A 
ATOM     13  O   UNL d   1     -40.099  14.381  18.801  0.00  0.00    -0.300 OA
ATOM     14  C   UNL d   1     -40.451  15.328  19.677  0.00  0.00     0.119 A 
ATOM     15  C   UNL d   1     -39.727  15.087  18.580  0.00  0.00     0.304 A 
ATOM     16  O   UNL d   1     -39.945  15.671  19.121  0.00  0.00    -0.300 OA
ATOM     17  C   UNL d   1     -40.833  15.646  20.334  0.00  0.00     0.026 A 
ATOM     18  C   UNL d   1     -41.315  15.162  20.799  0.00  0.00     0.007 A 
ENDBRANCH   8  10
ENDBRANCH   2   7
BRANCH   1  19
ATOM     19  C   UNL d   1     -45.126  13.166  22.111  0.00  0.00     0.118 A 
ATOM     20  N   UNL d   1     -45.331  13.847  22.526  0.00  0.00    -0.059 NA
ATOM     21  C   UNL d   1     -46.158  13.866  22.591  0.00  0.00     0.735 A 
ATOM     22  N   UNL d   1     -46.458  13.196  22.215  0.00  0.00    -0.136 N 
ATOM     23  N   UNL d   1     -46.663  14.415  22.948  0.00  0.00    -0.059 NA
ATOM     24  C   UNL d   1     -45.823  12.762  21.917  0.00  0.00     0.118 A 
ATOM     25  C   UNL d   1     -47.280  13.076  22.197  0.00  0.00     0.100 A 
ATOM     26  C   UNL d   1     -47.788  13.613  22.548  0.00  0.00     0.041 A 
ATOM     27  C   UNL d   1     -47.478  14.287  22.925  0.00  0.00     0.119 A 
ENDBRANCH   1  19
TORSDOF 3
ENDMDL
MODEL 9
REMARK VINA RESULT:      -4.6      1.722      2.501
REMARK  3 active torsions:
REMARK  status: ('A' for Active; 'I' for Inactive)
REMARK    1  A    between atoms: C_11  and  C_4 
REMARK       I    between atoms: C_6  and  N_8 
REMARK    2  A    between atoms: C_9  and  C_6 
REMARK    3  A    between atoms: N_8  and  C_19 
ROOT
ATOM      1  C   UNL d   1     -47.518  12.878  23.190  0.00  0.00     0.021 A 
ATOM      2  C   UNL d   1     -46.151  12.434  23.133  0.00  0.00     0.085 A 
ATOM      3  C   UNL d   1     -46.725  13.008  22.985  0.00  0.00     0.021 A 
ATOM      4  C   UNL d   1     -47.738  12.158  23.548  0.00  0.00     0.002 A 
ATOM      5  C   UNL d   1     -47.167  11.581  23.698  0.00  0.00     0.002 A 
ATOM      6  C   UNL d   1     -46.370  11.714  23.492  0.00  0.00     0.019 A 
ENDROOT
BRANCH   2   7
ATOM      7  N   UNL d   1     -45.367  12.573  22.927  0.00  0.00    -0.208 NA
ATOM      8  C   UNL d   1     -45.120  12.522  22.136  0.00  0.00     0.279 C 
ATOM      9  O   UNL d   1     -45.680  12.329  21.548  0.00  0.00    -0.265 OA
BRANCH   8  10
ATOM     10  C   UNL d   1     -44.335  12.660  21.928  0.00  0.00     0.060 A 
ATOM     11  C   UNL d   1     -44.115  13.383  21.609  0.00  0.00     0.031 A 
ATOM     12  C   UNL d   1     -43.339  13.513  21.406  0.00  0.00     0.119 A 
ATOM     13  O   UNL d   1     -42.950  14.174  21.077  0.00  0.00    -0.300 OA
ATOM     14  C   UNL d   1     -42.772  12.925  21.519  0.00  0.00     0.119 A 
ATOM     15  C   UNL d   1     -42.149  13.983  20.992  0.00  0.00     0.304 A 
ATOM     16  O   UNL d   1     -42.040  13.211  21.265  0.00  0.00    -0.300 OA
ATOM     17  C   UNL d   1     -42.990  12.198  21.839  0.00  0.00     0.026 A 
ATOM     18  C   UNL d   1     -43.778  12.064  22.046  0.00  0.00     0.007 A 
ENDBRANCH   8  10
ENDBRANCH   2   7
BRANCH   1  19
ATOM     19  C   UNL d   1     -48.092  13.452  23.042  0.00  0.00     0.118 A 
ATOM     20  N   UNL d   1     -48.044  14.250  23.236  0.00  0.00    -0.059 NA
ATOM     21  C   UNL d   1     -48.745  14.616  22.984  0.00  0.00     0.735 A 
ATOM     22  N   UNL d   1     -49.221  14.039  22.635  0.00  0.00    -0.136 N 
ATOM     23  N   UNL d   1     -48.998  15.401  23.033  0.00  0.00    -0.059 NA
ATOM     24  C   UNL d   1     -48.820  13.318  22.670  0.00  0.00     0.118 A 
ATOM     25  C   UNL d   1     -49.963  14.255  22.332  0.00  0.00     0.100 A 
ATOM     26  C   UNL d   1     -50.223  15.030  22.376  0.00  0.00     0.041 A 
ATOM     27  C   UNL d   1     -49.737  15.607  22.729  0.00  0.00     0.119 A 
ENDBRANCH   1  19
TORSDOF 3
ENDMDL
