MODEL 1
REMARK VINA RESULT:      -0.9      0.000      0.000
REMARK  3 active torsions:
REMARK  status: ('A' for Active; 'I' for Inactive)
REMARK    1  A    between atoms: S_3  and  N_1 
REMARK    2  A    between atoms: C_7  and  C_4 
REMARK    3  A    between atoms: C_16  and  C_5 
ROOT
ATOM      1  N   UNL d   1     -42.924-122.524 -50.017  0.00  0.00    -0.155 N 
ATOM      2  N   UNL d   1     -42.956-122.660 -49.192  0.00  0.00    -0.156 NA
ATOM      3  C   UNL d   1     -42.161-122.610 -50.262  0.00  0.00     0.096 A 
ATOM      4  C   UNL d   1     -42.189-122.830 -48.947  0.00  0.00     0.103 A 
ATOM      5  C   UNL d   1     -41.698-122.796 -49.626  0.00  0.00     0.041 A 
ENDROOT
BRANCH   3   6
ATOM      6  C   UNL d   1     -41.894-122.521 -51.038  0.00  0.00     0.021 A 
ATOM      7  C   UNL d   1     -41.851-123.174 -51.564  0.00  0.00     0.028 A 
ATOM      8  C   UNL d   1     -41.583-123.085 -52.341  0.00  0.00     0.119 A 
ATOM      9  O   UNL d   1     -41.497-123.618 -52.927  0.00  0.00    -0.300 OA
ATOM     10  C   UNL d   1     -41.360-122.345 -52.589  0.00  0.00     0.119 A 
ATOM     11  C   UNL d   1     -41.202-123.211 -53.600  0.00  0.00     0.304 A 
ATOM     12  O   UNL d   1     -41.123-122.414 -53.365  0.00  0.00    -0.300 OA
ATOM     13  C   UNL d   1     -41.386-121.693 -52.115  0.00  0.00     0.026 A 
ATOM     14  C   UNL d   1     -41.654-121.781 -51.338  0.00  0.00     0.004 A 
ENDBRANCH   3   6
BRANCH   1  15
ATOM     15  S   UNL d   1     -43.591-122.331 -50.488  0.00  0.00     0.266 S 
ATOM     16  O   UNL d   1     -43.761-123.130 -50.507  0.00  0.00    -0.203 OA
ATOM     17  O   UNL d   1     -43.387-121.523 -50.447  0.00  0.00    -0.203 OA
ATOM     18  C   UNL d   1     -44.238-122.155 -50.943  0.00  0.00     0.165 C 
ENDBRANCH   1  15
BRANCH   4  19
ATOM     19  C   UNL d   1     -41.940-123.003 -48.181  0.00  0.00     0.019 A 
ATOM     20  C   UNL d   1     -41.389-123.627 -48.111  0.00  0.00     0.002 A 
ATOM     21  C   UNL d   1     -41.124-123.817 -47.330  0.00  0.00     0.000 A 
ATOM     22  C   UNL d   1     -41.409-123.392 -46.678  0.00  0.00     0.000 A 
ATOM     23  C   UNL d   1     -41.944-122.794 -46.795  0.00  0.00     0.000 A 
ATOM     24  C   UNL d   1     -42.201-122.609 -47.539  0.00  0.00     0.002 A 
ENDBRANCH   4  19
TORSDOF 3
ENDMDL
MODEL 2
REMARK VINA RESULT:       0.1      1.559      4.512
REMARK  3 active torsions:
REMARK  status: ('A' for Active; 'I' for Inactive)
REMARK    1  A    between atoms: S_3  and  N_1 
REMARK    2  A    between atoms: C_7  and  C_4 
REMARK    3  A    between atoms: C_16  and  C_5 
ROOT
ATOM      1  N   UNL d   1     -41.829-121.944 -51.706  0.00  0.00    -0.155 N 
ATOM      2  N   UNL d   1     -41.797-121.883 -52.541  0.00  0.00    -0.156 NA
ATOM      3  C   UNL d   1     -41.744-122.719 -51.502  0.00  0.00     0.096 A 
ATOM      4  C   UNL d   1     -41.691-122.646 -52.832  0.00  0.00     0.103 A 
ATOM      5  C   UNL d   1     -41.659-123.162 -52.172  0.00  0.00     0.041 A 
ENDROOT
BRANCH   3   6
ATOM      6  C   UNL d   1     -41.744-123.013 -50.731  0.00  0.00     0.021 A 
ATOM      7  C   UNL d   1     -42.371-122.849 -50.198  0.00  0.00     0.028 A 
ATOM      8  C   UNL d   1     -42.371-123.144 -49.426  0.00  0.00     0.119 A 
ATOM      9  O   UNL d   1     -42.899-123.059 -48.836  0.00  0.00    -0.300 OA
ATOM     10  C   UNL d   1     -41.745-123.603 -49.190  0.00  0.00     0.119 A 
ATOM     11  C   UNL d   1     -42.608-123.485 -48.172  0.00  0.00     0.304 A 
ATOM     12  O   UNL d   1     -41.883-123.817 -48.417  0.00  0.00    -0.300 OA
ATOM     13  C   UNL d   1     -41.123-123.785 -49.671  0.00  0.00     0.026 A 
ATOM     14  C   UNL d   1     -41.123-123.489 -50.443  0.00  0.00     0.004 A 
ENDBRANCH   3   6
BRANCH   1  15
ATOM     15  S   UNL d   1     -41.933-121.290 -51.192  0.00  0.00     0.266 S 
ATOM     16  O   UNL d   1     -41.123-121.185 -51.223  0.00  0.00    -0.203 OA
ATOM     17  O   UNL d   1     -42.756-121.427 -51.182  0.00  0.00    -0.203 OA
ATOM     18  C   UNL d   1     -42.024-120.656 -50.694  0.00  0.00     0.165 C 
ENDBRANCH   1  15
BRANCH   4  19
ATOM     19  C   UNL d   1     -41.627-122.869 -53.622  0.00  0.00     0.019 A 
ATOM     20  C   UNL d   1     -41.744-122.259 -54.183  0.00  0.00     0.002 A 
ATOM     21  C   UNL d   1     -41.682-122.473 -54.999  0.00  0.00     0.000 A 
ATOM     22  C   UNL d   1     -41.511-123.255 -55.213  0.00  0.00     0.000 A 
ATOM     23  C   UNL d   1     -41.405-123.813 -54.634  0.00  0.00     0.000 A 
ATOM     24  C   UNL d   1     -41.464-123.614 -53.853  0.00  0.00     0.002 A 
ENDBRANCH   4  19
TORSDOF 3
ENDMDL
MODEL 3
REMARK VINA RESULT:       1.7      1.311      4.199
REMARK  3 active torsions:
REMARK  status: ('A' for Active; 'I' for Inactive)
REMARK    1  A    between atoms: S_3  and  N_1 
REMARK    2  A    between atoms: C_7  and  C_4 
REMARK    3  A    between atoms: C_16  and  C_5 
ROOT
ATOM      1  N   UNL d   1     -42.702-122.597 -50.404  0.00  0.00    -0.155 N 
ATOM      2  N   UNL d   1     -42.695-122.539 -51.239  0.00  0.00    -0.156 NA
ATOM      3  C   UNL d   1     -41.982-122.862 -50.159  0.00  0.00     0.096 A 
ATOM      4  C   UNL d   1     -41.948-122.777 -51.490  0.00  0.00     0.103 A 
ATOM      5  C   UNL d   1     -41.509-122.978 -50.804  0.00  0.00     0.041 A 
ENDROOT
BRANCH   3   6
ATOM      6  C   UNL d   1     -41.761-122.995 -49.375  0.00  0.00     0.021 A 
ATOM      7  C   UNL d   1     -41.936-122.441 -48.770  0.00  0.00     0.028 A 
ATOM      8  C   UNL d   1     -41.715-122.573 -47.985  0.00  0.00     0.119 A 
ATOM      9  O   UNL d   1     -41.822-122.131 -47.331  0.00  0.00    -0.300 OA
ATOM     10  C   UNL d   1     -41.320-123.260 -47.808  0.00  0.00     0.119 A 
ATOM     11  C   UNL d   1     -41.480-122.545 -46.685  0.00  0.00     0.304 A 
ATOM     12  O   UNL d   1     -41.171-123.250 -47.007  0.00  0.00    -0.300 OA
ATOM     13  C   UNL d   1     -41.132-123.817 -48.359  0.00  0.00     0.026 A 
ATOM     14  C   UNL d   1     -41.353-123.685 -49.145  0.00  0.00     0.004 A 
ENDBRANCH   3   6
BRANCH   1  15
ATOM     15  S   UNL d   1     -43.363-122.405 -49.926  0.00  0.00     0.266 S 
ATOM     16  O   UNL d   1     -43.089-121.635 -49.921  0.00  0.00    -0.203 OA
ATOM     17  O   UNL d   1     -43.614-123.200 -49.951  0.00  0.00    -0.203 OA
ATOM     18  C   UNL d   1     -43.999-122.210 -49.463  0.00  0.00     0.165 C 
ENDBRANCH   1  15
BRANCH   4  19
ATOM     19  C   UNL d   1     -41.675-122.815 -52.266  0.00  0.00     0.019 A 
ATOM     20  C   UNL d   1     -41.615-123.582 -52.593  0.00  0.00     0.002 A 
ATOM     21  C   UNL d   1     -41.336-123.637 -53.389  0.00  0.00     0.000 A 
ATOM     22  C   UNL d   1     -41.136-122.951 -53.810  0.00  0.00     0.000 A 
ATOM     23  C   UNL d   1     -41.210-122.228 -53.451  0.00  0.00     0.000 A 
ATOM     24  C   UNL d   1     -41.477-122.170 -52.690  0.00  0.00     0.002 A 
ENDBRANCH   4  19
TORSDOF 3
ENDMDL
