MODEL 1
REMARK VINA RESULT:     -11.6      0.000      0.000
REMARK  2 active torsions:
REMARK  status: ('A' for Active; 'I' for Inactive)
REMARK    1  A    between atoms: N_14  and  C_4 
REMARK    2  A    between atoms: C_9  and  C_5 
ROOT
ATOM      1  C   UNL d   1      53.269  33.097  54.013  0.00  0.00     0.060 A 
ATOM      2  C   UNL d   1      53.607  32.373  54.219  0.00  0.00     0.197 A 
ATOM      3  C   UNL d   1      52.739  33.154  53.382  0.00  0.00     0.043 A 
ATOM      4  C   UNL d   1      53.454  33.787  54.438  0.00  0.00     0.090 A 
ATOM      5  C   UNL d   1      53.116  34.511  54.232  0.00  0.00     0.082 A 
ATOM      6  C   UNL d   1      52.533  32.490  52.940  0.00  0.00     0.196 A 
ATOM      7  C   UNL d   1      53.400  31.708  53.776  0.00  0.00     0.042 A 
ATOM      8  C   UNL d   1      52.871  31.765  53.145  0.00  0.00     0.042 A 
ATOM      9  C   UNL d   1      52.399  33.901  53.181  0.00  0.00     0.004 A 
ATOM     10  C   UNL d   1      52.624  34.564  53.646  0.00  0.00     0.008 A 
ATOM     11  O   UNL d   1      54.130  32.339  54.848  0.00  0.00    -0.286 OA
ATOM     12  O   UNL d   1      51.986  32.572  52.295  0.00  0.00    -0.287 OA
ATOM     13  C   UNL d   1      53.741  30.956  53.977  0.00  0.00     0.003 A 
ATOM     14  C   UNL d   1      52.667  31.073  52.698  0.00  0.00     0.003 A 
ATOM     15  C   UNL d   1      53.005  30.348  52.903  0.00  0.00     0.000 A 
ATOM     16  C   UNL d   1      53.535  30.291  53.534  0.00  0.00     0.000 A 
ENDROOT
BRANCH   5  17
ATOM     17  C   UNL d   1      53.274  35.210  54.626  0.00  0.00     0.212 C 
ATOM     18  O   UNL d   1      52.976  35.360  55.385  0.00  0.00    -0.644 OA
ATOM     19  O   UNL d   1      53.739  35.802  54.291  0.00  0.00    -0.644 OA
ENDBRANCH   5  17
BRANCH   4  20
ATOM     20  N   UNL d   1      53.995  33.757  55.091  0.00  0.00    -0.242 NA
ATOM     21  C   UNL d   1      54.796  33.843  54.984  0.00  0.00     0.119 C 
ENDBRANCH   4  20
TORSDOF 2
ENDMDL
MODEL 2
REMARK VINA RESULT:     -11.1      0.768      1.861
REMARK  2 active torsions:
REMARK  status: ('A' for Active; 'I' for Inactive)
REMARK    1  A    between atoms: N_14  and  C_4 
REMARK    2  A    between atoms: C_9  and  C_5 
ROOT
ATOM      1  C   UNL d   1      53.119  33.370  53.825  0.00  0.00     0.060 A 
ATOM      2  C   UNL d   1      52.823  32.862  53.247  0.00  0.00     0.197 A 
ATOM      3  C   UNL d   1      53.575  33.082  54.451  0.00  0.00     0.043 A 
ATOM      4  C   UNL d   1      52.965  34.185  53.792  0.00  0.00     0.090 A 
ATOM      5  C   UNL d   1      53.261  34.694  54.371  0.00  0.00     0.082 A 
ATOM      6  C   UNL d   1      53.748  32.278  54.515  0.00  0.00     0.196 A 
ATOM      7  C   UNL d   1      52.996  32.057  53.311  0.00  0.00     0.042 A 
ATOM      8  C   UNL d   1      53.452  31.769  53.937  0.00  0.00     0.042 A 
ATOM      9  C   UNL d   1      53.873  33.612  55.037  0.00  0.00     0.004 A 
ATOM     10  C   UNL d   1      53.684  34.427  54.951  0.00  0.00     0.008 A 
ATOM     11  O   UNL d   1      52.373  33.168  52.636  0.00  0.00    -0.286 OA
ATOM     12  O   UNL d   1      54.219  32.004  55.167  0.00  0.00    -0.287 OA
ATOM     13  C   UNL d   1      52.698  31.522  52.723  0.00  0.00     0.003 A 
ATOM     14  C   UNL d   1      53.622  30.939  53.991  0.00  0.00     0.003 A 
ATOM     15  C   UNL d   1      53.326  30.430  53.412  0.00  0.00     0.000 A 
ATOM     16  C   UNL d   1      52.870  30.718  52.787  0.00  0.00     0.000 A 
ENDROOT
BRANCH   5  17
ATOM     17  C   UNL d   1      53.130  35.501  54.370  0.00  0.00     0.212 C 
ATOM     18  O   UNL d   1      53.609  36.021  53.936  0.00  0.00    -0.644 OA
ATOM     19  O   UNL d   1      52.516  35.842  54.800  0.00  0.00    -0.644 OA
ENDBRANCH   5  17
BRANCH   4  20
ATOM     20  N   UNL d   1      52.499  34.509  53.160  0.00  0.00    -0.242 NA
ATOM     21  C   UNL d   1      51.690  34.570  53.216  0.00  0.00     0.119 C 
ENDBRANCH   4  20
TORSDOF 2
ENDMDL
MODEL 3
REMARK VINA RESULT:     -10.4      1.205      2.600
REMARK  2 active torsions:
REMARK  status: ('A' for Active; 'I' for Inactive)
REMARK    1  A    between atoms: N_14  and  C_4 
REMARK    2  A    between atoms: C_9  and  C_5 
ROOT
ATOM      1  C   UNL d   1      53.150  33.811  53.926  0.00  0.00     0.060 A 
ATOM      2  C   UNL d   1      52.548  34.350  53.763  0.00  0.00     0.197 A 
ATOM      3  C   UNL d   1      53.166  33.069  53.565  0.00  0.00     0.043 A 
ATOM      4  C   UNL d   1      53.758  34.004  54.460  0.00  0.00     0.090 A 
ATOM      5  C   UNL d   1      54.361  33.464  54.624  0.00  0.00     0.082 A 
ATOM      6  C   UNL d   1      52.579  32.845  53.031  0.00  0.00     0.196 A 
ATOM      7  C   UNL d   1      51.961  34.127  53.228  0.00  0.00     0.042 A 
ATOM      8  C   UNL d   1      51.976  33.384  52.866  0.00  0.00     0.042 A 
ATOM      9  C   UNL d   1      53.788  32.525  53.741  0.00  0.00     0.004 A 
ATOM     10  C   UNL d   1      54.375  32.775  54.289  0.00  0.00     0.008 A 
ATOM     11  O   UNL d   1      52.552  35.081  54.132  0.00  0.00    -0.286 OA
ATOM     12  O   UNL d   1      52.615  32.076  52.671  0.00  0.00    -0.287 OA
ATOM     13  C   UNL d   1      51.335  34.672  53.050  0.00  0.00     0.003 A 
ATOM     14  C   UNL d   1      51.366  33.167  52.318  0.00  0.00     0.003 A 
ATOM     15  C   UNL d   1      50.763  33.706  52.153  0.00  0.00     0.000 A 
ATOM     16  C   UNL d   1      50.747  34.448  52.515  0.00  0.00     0.000 A 
ENDROOT
BRANCH   5  17
ATOM     17  C   UNL d   1      54.974  33.618  55.143  0.00  0.00     0.212 C 
ATOM     18  O   UNL d   1      55.636  34.063  54.916  0.00  0.00    -0.644 OA
ATOM     19  O   UNL d   1      54.968  33.340  55.918  0.00  0.00    -0.644 OA
ENDBRANCH   5  17
BRANCH   4  20
ATOM     20  N   UNL d   1      53.767  34.759  54.846  0.00  0.00    -0.242 NA
ATOM     21  C   UNL d   1      53.378  34.884  55.548  0.00  0.00     0.119 C 
ENDBRANCH   4  20
TORSDOF 2
ENDMDL
MODEL 4
REMARK VINA RESULT:     -10.3      1.321      3.779
REMARK  2 active torsions:
REMARK  status: ('A' for Active; 'I' for Inactive)
REMARK    1  A    between atoms: N_14  and  C_4 
REMARK    2  A    between atoms: C_9  and  C_5 
ROOT
ATOM      1  C   UNL d   1      53.054  32.602  53.613  0.00  0.00     0.060 A 
ATOM      2  C   UNL d   1      52.716  33.341  53.474  0.00  0.00     0.197 A 
ATOM      3  C   UNL d   1      53.655  32.509  54.173  0.00  0.00     0.043 A 
ATOM      4  C   UNL d   1      52.799  31.933  53.193  0.00  0.00     0.090 A 
ATOM      5  C   UNL d   1      53.138  31.193  53.332  0.00  0.00     0.082 A 
ATOM      6  C   UNL d   1      53.933  33.152  54.608  0.00  0.00     0.196 A 
ATOM      7  C   UNL d   1      52.993  33.985  53.909  0.00  0.00     0.042 A 
ATOM      8  C   UNL d   1      53.594  33.891  54.469  0.00  0.00     0.042 A 
ATOM      9  C   UNL d   1      53.995  31.747  54.307  0.00  0.00     0.004 A 
ATOM     10  C   UNL d   1      53.695  31.106  53.851  0.00  0.00     0.008 A 
ATOM     11  O   UNL d   1      52.121  33.411  52.915  0.00  0.00    -0.286 OA
ATOM     12  O   UNL d   1      54.551  33.033  55.178  0.00  0.00    -0.287 OA
ATOM     13  C   UNL d   1      52.654  34.752  53.776  0.00  0.00     0.003 A 
ATOM     14  C   UNL d   1      53.871  34.562  54.910  0.00  0.00     0.003 A 
ATOM     15  C   UNL d   1      53.532  35.302  54.771  0.00  0.00     0.000 A 
ATOM     16  C   UNL d   1      52.931  35.395  54.211  0.00  0.00     0.000 A 
ENDROOT
BRANCH   5  17
ATOM     17  C   UNL d   1      52.912  30.513  52.939  0.00  0.00     0.212 C 
ATOM     18  O   UNL d   1      52.461  29.924  53.309  0.00  0.00    -0.644 OA
ATOM     19  O   UNL d   1      53.120  30.376  52.154  0.00  0.00    -0.644 OA
ENDBRANCH   5  17
BRANCH   4  20
ATOM     20  N   UNL d   1      52.183  31.999  52.612  0.00  0.00    -0.242 NA
ATOM     21  C   UNL d   1      51.398  31.975  52.820  0.00  0.00     0.119 C 
ENDBRANCH   4  20
TORSDOF 2
ENDMDL
MODEL 5
REMARK VINA RESULT:     -10.0      1.458      3.044
REMARK  2 active torsions:
REMARK  status: ('A' for Active; 'I' for Inactive)
REMARK    1  A    between atoms: N_14  and  C_4 
REMARK    2  A    between atoms: C_9  and  C_5 
ROOT
ATOM      1  C   UNL d   1      52.725  33.797  53.498  0.00  0.00     0.060 A 
ATOM      2  C   UNL d   1      53.326  33.248  53.629  0.00  0.00     0.197 A 
ATOM      3  C   UNL d   1      52.704  34.511  53.912  0.00  0.00     0.043 A 
ATOM      4  C   UNL d   1      52.126  33.644  52.943  0.00  0.00     0.090 A 
ATOM      5  C   UNL d   1      51.524  34.194  52.811  0.00  0.00     0.082 A 
ATOM      6  C   UNL d   1      53.283  34.696  54.469  0.00  0.00     0.196 A 
ATOM      7  C   UNL d   1      53.906  33.433  54.187  0.00  0.00     0.042 A 
ATOM      8  C   UNL d   1      53.885  34.147  54.601  0.00  0.00     0.042 A 
ATOM      9  C   UNL d   1      52.083  35.066  53.768  0.00  0.00     0.004 A 
ATOM     10  C   UNL d   1      51.504  34.856  53.196  0.00  0.00     0.008 A 
ATOM     11  O   UNL d   1      53.329  32.546  53.207  0.00  0.00    -0.286 OA
ATOM     12  O   UNL d   1      53.241  35.436  54.884  0.00  0.00    -0.287 OA
ATOM     13  C   UNL d   1      54.531  32.877  54.333  0.00  0.00     0.003 A 
ATOM     14  C   UNL d   1      54.488  34.324  55.173  0.00  0.00     0.003 A 
ATOM     15  C   UNL d   1      55.089  33.775  55.305  0.00  0.00     0.000 A 
ATOM     16  C   UNL d   1      55.111  33.061  54.891  0.00  0.00     0.000 A 
ENDROOT
BRANCH   5  17
ATOM     17  C   UNL d   1      50.918  34.077  52.275  0.00  0.00     0.212 C 
ATOM     18  O   UNL d   1      51.031  34.184  51.460  0.00  0.00    -0.644 OA
ATOM     19  O   UNL d   1      50.164  33.848  52.513  0.00  0.00    -0.644 OA
ENDBRANCH   5  17
BRANCH   4  20
ATOM     20  N   UNL d   1      52.123  32.918  52.503  0.00  0.00    -0.242 NA
ATOM     21  C   UNL d   1      51.778  32.243  52.797  0.00  0.00     0.119 C 
ENDBRANCH   4  20
TORSDOF 2
ENDMDL
MODEL 6
REMARK VINA RESULT:      -9.5      1.226      3.359
REMARK  2 active torsions:
REMARK  status: ('A' for Active; 'I' for Inactive)
REMARK    1  A    between atoms: N_14  and  C_4 
REMARK    2  A    between atoms: C_9  and  C_5 
ROOT
ATOM      1  C   UNL d   1      53.145  32.408  53.752  0.00  0.00     0.060 A 
ATOM      2  C   UNL d   1      53.471  32.953  54.278  0.00  0.00     0.197 A 
ATOM      3  C   UNL d   1      52.619  32.649  53.163  0.00  0.00     0.043 A 
ATOM      4  C   UNL d   1      53.339  31.602  53.803  0.00  0.00     0.090 A 
ATOM      5  C   UNL d   1      53.013  31.056  53.276  0.00  0.00     0.082 A 
ATOM      6  C   UNL d   1      52.405  33.441  53.083  0.00  0.00     0.196 A 
ATOM      7  C   UNL d   1      53.257  33.746  54.199  0.00  0.00     0.042 A 
ATOM      8  C   UNL d   1      52.731  33.987  53.610  0.00  0.00     0.042 A 
ATOM      9  C   UNL d   1      52.292  32.081  52.629  0.00  0.00     0.004 A 
ATOM     10  C   UNL d   1      52.525  31.279  52.730  0.00  0.00     0.008 A 
ATOM     11  O   UNL d   1      53.991  32.692  54.856  0.00  0.00    -0.286 OA
ATOM     12  O   UNL d   1      51.863  33.667  52.470  0.00  0.00    -0.287 OA
ATOM     13  C   UNL d   1      53.585  34.318  54.734  0.00  0.00     0.003 A 
ATOM     14  C   UNL d   1      52.519  34.806  53.540  0.00  0.00     0.003 A 
ATOM     15  C   UNL d   1      52.845  35.352  54.066  0.00  0.00     0.000 A 
ATOM     16  C   UNL d   1      53.371  35.111  54.655  0.00  0.00     0.000 A 
ENDROOT
BRANCH   5  17
ATOM     17  C   UNL d   1      53.180  30.256  53.296  0.00  0.00     0.212 C 
ATOM     18  O   UNL d   1      52.620  29.699  53.550  0.00  0.00    -0.644 OA
ATOM     19  O   UNL d   1      53.913  29.959  53.065  0.00  0.00    -0.644 OA
ENDBRANCH   5  17
BRANCH   4  20
ATOM     20  N   UNL d   1      53.877  31.326  54.399  0.00  0.00    -0.242 NA
ATOM     21  C   UNL d   1      53.614  31.076  55.127  0.00  0.00     0.119 C 
ENDBRANCH   4  20
TORSDOF 2
ENDMDL
MODEL 7
REMARK VINA RESULT:      -9.5      1.212      2.794
REMARK  2 active torsions:
REMARK  status: ('A' for Active; 'I' for Inactive)
REMARK    1  A    between atoms: N_14  and  C_4 
REMARK    2  A    between atoms: C_9  and  C_5 
ROOT
ATOM      1  C   UNL d   1      52.984  33.689  53.777  0.00  0.00     0.060 A 
ATOM      2  C   UNL d   1      52.543  33.296  53.203  0.00  0.00     0.197 A 
ATOM      3  C   UNL d   1      52.746  34.425  54.066  0.00  0.00     0.043 A 
ATOM      4  C   UNL d   1      53.681  33.352  54.079  0.00  0.00     0.090 A 
ATOM      5  C   UNL d   1      54.124  33.746  54.655  0.00  0.00     0.082 A 
ATOM      6  C   UNL d   1      52.060  34.788  53.789  0.00  0.00     0.196 A 
ATOM      7  C   UNL d   1      51.855  33.659  52.925  0.00  0.00     0.042 A 
ATOM      8  C   UNL d   1      51.618  34.395  53.214  0.00  0.00     0.042 A 
ATOM      9  C   UNL d   1      53.208  34.818  54.655  0.00  0.00     0.004 A 
ATOM     10  C   UNL d   1      53.903  34.429  54.923  0.00  0.00     0.008 A 
ATOM     11  O   UNL d   1      52.797  32.567  52.930  0.00  0.00    -0.286 OA
ATOM     12  O   UNL d   1      51.834  35.545  54.100  0.00  0.00    -0.287 OA
ATOM     13  C   UNL d   1      51.390  33.266  52.333  0.00  0.00     0.003 A 
ATOM     14  C   UNL d   1      50.908  34.758  52.919  0.00  0.00     0.003 A 
ATOM     15  C   UNL d   1      50.465  34.365  52.344  0.00  0.00     0.000 A 
ATOM     16  C   UNL d   1      50.703  33.628  52.055  0.00  0.00     0.000 A 
ENDROOT
BRANCH   5  17
ATOM     17  C   UNL d   1      54.814  33.446  54.975  0.00  0.00     0.212 C 
ATOM     18  O   UNL d   1      55.540  33.502  54.577  0.00  0.00    -0.644 OA
ATOM     19  O   UNL d   1      54.827  33.072  55.709  0.00  0.00    -0.644 OA
ENDBRANCH   5  17
BRANCH   4  20
ATOM     20  N   UNL d   1      53.950  32.597  53.800  0.00  0.00    -0.242 NA
ATOM     21  C   UNL d   1      53.746  31.907  54.178  0.00  0.00     0.119 C 
ENDBRANCH   4  20
TORSDOF 2
ENDMDL
MODEL 8
REMARK VINA RESULT:      -9.2      1.380      3.741
REMARK  2 active torsions:
REMARK  status: ('A' for Active; 'I' for Inactive)
REMARK    1  A    between atoms: N_14  and  C_4 
REMARK    2  A    between atoms: C_9  and  C_5 
ROOT
ATOM      1  C   UNL d   1      53.022  32.179  53.570  0.00  0.00     0.060 A 
ATOM      2  C   UNL d   1      52.586  32.684  53.084  0.00  0.00     0.197 A 
ATOM      3  C   UNL d   1      53.462  32.475  54.203  0.00  0.00     0.043 A 
ATOM      4  C   UNL d   1      53.028  31.360  53.432  0.00  0.00     0.090 A 
ATOM      5  C   UNL d   1      53.465  30.855  53.918  0.00  0.00     0.082 A 
ATOM      6  C   UNL d   1      53.478  33.282  54.368  0.00  0.00     0.196 A 
ATOM      7  C   UNL d   1      52.602  33.492  53.249  0.00  0.00     0.042 A 
ATOM      8  C   UNL d   1      53.042  33.787  53.883  0.00  0.00     0.042 A 
ATOM      9  C   UNL d   1      53.905  31.948  54.694  0.00  0.00     0.004 A 
ATOM     10  C   UNL d   1      53.873  31.129  54.506  0.00  0.00     0.008 A 
ATOM     11  O   UNL d   1      52.156  32.369  52.462  0.00  0.00    -0.286 OA
ATOM     12  O   UNL d   1      53.938  33.564  55.025  0.00  0.00    -0.287 OA
ATOM     13  C   UNL d   1      52.158  34.023  52.758  0.00  0.00     0.003 A 
ATOM     14  C   UNL d   1      53.050  34.622  54.041  0.00  0.00     0.003 A 
ATOM     15  C   UNL d   1      52.614  35.127  53.556  0.00  0.00     0.000 A 
ATOM     16  C   UNL d   1      52.174  34.832  52.922  0.00  0.00     0.000 A 
ENDROOT
BRANCH   5  17
ATOM     17  C   UNL d   1      53.495  30.045  53.814  0.00  0.00     0.212 C 
ATOM     18  O   UNL d   1      52.897  29.545  54.099  0.00  0.00    -0.644 OA
ATOM     19  O   UNL d   1      54.119  29.680  53.420  0.00  0.00    -0.644 OA
ENDBRANCH   5  17
BRANCH   4  20
ATOM     20  N   UNL d   1      52.585  31.029  52.789  0.00  0.00    -0.242 NA
ATOM     21  C   UNL d   1      52.953  30.729  52.128  0.00  0.00     0.119 C 
ENDBRANCH   4  20
TORSDOF 2
ENDMDL
MODEL 9
REMARK VINA RESULT:      -9.1      1.385      2.978
REMARK  2 active torsions:
REMARK  status: ('A' for Active; 'I' for Inactive)
REMARK    1  A    between atoms: N_14  and  C_4 
REMARK    2  A    between atoms: C_9  and  C_5 
ROOT
ATOM      1  C   UNL d   1      52.638  33.844  53.598  0.00  0.00     0.060 A 
ATOM      2  C   UNL d   1      53.099  34.306  54.101  0.00  0.00     0.197 A 
ATOM      3  C   UNL d   1      52.803  33.043  53.486  0.00  0.00     0.043 A 
ATOM      4  C   UNL d   1      51.994  34.175  53.191  0.00  0.00     0.090 A 
ATOM      5  C   UNL d   1      51.532  33.713  52.686  0.00  0.00     0.082 A 
ATOM      6  C   UNL d   1      53.435  32.682  53.874  0.00  0.00     0.196 A 
ATOM      7  C   UNL d   1      53.731  33.945  54.490  0.00  0.00     0.042 A 
ATOM      8  C   UNL d   1      53.897  33.143  54.378  0.00  0.00     0.042 A 
ATOM      9  C   UNL d   1      52.323  32.579  52.967  0.00  0.00     0.004 A 
ATOM     10  C   UNL d   1      51.685  32.969  52.582  0.00  0.00     0.008 A 
ATOM     11  O   UNL d   1      52.917  35.099  54.198  0.00  0.00    -0.286 OA
ATOM     12  O   UNL d   1      53.587  31.856  53.744  0.00  0.00    -0.287 OA
ATOM     13  C   UNL d   1      54.215  34.408  55.012  0.00  0.00     0.003 A 
ATOM     14  C   UNL d   1      54.550  32.784  54.785  0.00  0.00     0.003 A 
ATOM     15  C   UNL d   1      55.013  33.246  55.289  0.00  0.00     0.000 A 
ATOM     16  C   UNL d   1      54.847  34.047  55.401  0.00  0.00     0.000 A 
ENDROOT
BRANCH   5  17
ATOM     17  C   UNL d   1      50.892  34.004  52.269  0.00  0.00     0.212 C 
ATOM     18  O   UNL d   1      50.974  34.317  51.505  0.00  0.00    -0.644 OA
ATOM     19  O   UNL d   1      50.131  34.003  52.585  0.00  0.00    -0.644 OA
ENDBRANCH   5  17
BRANCH   4  20
ATOM     20  N   UNL d   1      51.801  34.996  53.287  0.00  0.00    -0.242 NA
ATOM     21  C   UNL d   1      51.271  35.245  53.850  0.00  0.00     0.119 C 
ENDBRANCH   4  20
TORSDOF 2
ENDMDL
