MODEL 1
REMARK VINA RESULT:      -6.2      0.000      0.000
REMARK  2 active torsions:
REMARK  status: ('A' for Active; 'I' for Inactive)
REMARK    1  A    between atoms: C_3  and  C_1 
REMARK       I    between atoms: N_6  and  C_3 
REMARK    2  A    between atoms: C_16  and  N_7 
ROOT
ATOM      1  C   UNL d   1      58.460   0.002  29.616  0.00  0.00     0.270 C 
ATOM      2  N   UNL d   1      57.948  -0.005  30.265  0.00  0.00    -0.269 N 
ATOM      3  N   UNL d   1      56.931  -0.028  31.557  0.00  0.00    -0.301 N 
ATOM      4  O   UNL d   1      58.526   0.682  29.152  0.00  0.00    -0.266 OA
ATOM      5  C   UNL d   1      57.885  -0.686  30.724  0.00  0.00     0.102 A 
ATOM      6  C   UNL d   1      57.507   0.659  30.448  0.00  0.00     0.102 A 
ATOM      7  C   UNL d   1      56.996   0.648  31.097  0.00  0.00     0.100 A 
ATOM      8  C   UNL d   1      57.377  -0.700  31.372  0.00  0.00     0.100 A 
ENDROOT
BRANCH   1   9
ATOM      9  C   UNL d   1      58.904  -0.670  29.434  0.00  0.00     0.120 A 
ATOM     10  C   UNL d   1      59.722  -0.670  29.536  0.00  0.00     0.305 A 
ATOM     11  O   UNL d   1      60.171  -1.349  29.351  0.00  0.00    -0.273 OA
ATOM     12  O   UNL d   1      60.097   0.008  29.822  0.00  0.00    -0.259 OA
ATOM     13  C   UNL d   1      59.791  -2.027  29.064  0.00  0.00     0.103 A 
ATOM     14  C   UNL d   1      58.973  -2.033  28.961  0.00  0.00     0.023 A 
ATOM     15  C   UNL d   1      60.235  -2.699  28.882  0.00  0.00     0.025 A 
ATOM     16  C   UNL d   1      58.522  -1.355  29.144  0.00  0.00     0.012 A 
ATOM     17  C   UNL d   1      58.598  -2.710  28.674  0.00  0.00     0.002 A 
ATOM     18  C   UNL d   1      59.042  -3.378  28.493  0.00  0.00     0.000 A 
ATOM     19  C   UNL d   1      59.859  -3.373  28.597  0.00  0.00     0.002 A 
ENDBRANCH   1   9
BRANCH   3  20
ATOM     20  C   UNL d   1      56.423  -0.045  32.205  0.00  0.00     0.064 A 
ATOM     21  C   UNL d   1      56.144   0.657  32.538  0.00  0.00     0.018 A 
ATOM     22  C   UNL d   1      55.635   0.636  33.187  0.00  0.00     0.002 A 
ATOM     23  C   UNL d   1      55.407  -0.090  33.503  0.00  0.00     0.000 A 
ATOM     24  C   UNL d   1      55.686  -0.796  33.171  0.00  0.00     0.002 A 
ATOM     25  C   UNL d   1      56.194  -0.769  32.522  0.00  0.00     0.018 A 
ENDBRANCH   3  20
TORSDOF 2
ENDMDL
MODEL 2
REMARK VINA RESULT:      -3.8      1.177      4.661
REMARK  2 active torsions:
REMARK  status: ('A' for Active; 'I' for Inactive)
REMARK    1  A    between atoms: C_3  and  C_1 
REMARK       I    between atoms: N_6  and  C_3 
REMARK    2  A    between atoms: C_16  and  N_7 
ROOT
ATOM      1  C   UNL d   1      58.109  -0.111  30.033  0.00  0.00     0.270 C 
ATOM      2  N   UNL d   1      58.478  -0.799  29.762  0.00  0.00    -0.269 N 
ATOM      3  N   UNL d   1      59.212  -2.173  29.233  0.00  0.00    -0.301 N 
ATOM      4  O   UNL d   1      57.989   0.521  29.515  0.00  0.00    -0.266 OA
ATOM      5  C   UNL d   1      58.596  -1.427  30.283  0.00  0.00     0.102 A 
ATOM      6  C   UNL d   1      58.724  -0.856  28.984  0.00  0.00     0.102 A 
ATOM      7  C   UNL d   1      59.093  -1.545  28.717  0.00  0.00     0.100 A 
ATOM      8  C   UNL d   1      58.963  -2.116  30.020  0.00  0.00     0.100 A 
ENDROOT
BRANCH   1   9
ATOM      9  C   UNL d   1      57.862  -0.057  30.819  0.00  0.00     0.120 A 
ATOM     10  C   UNL d   1      58.352   0.282  31.387  0.00  0.00     0.305 A 
ATOM     11  O   UNL d   1      58.102   0.337  32.182  0.00  0.00    -0.273 OA
ATOM     12  O   UNL d   1      59.095   0.569  31.167  0.00  0.00    -0.259 OA
ATOM     13  C   UNL d   1      57.356   0.048  32.399  0.00  0.00     0.103 A 
ATOM     14  C   UNL d   1      56.862  -0.292  31.834  0.00  0.00     0.023 A 
ATOM     15  C   UNL d   1      57.109   0.102  33.185  0.00  0.00     0.025 A 
ATOM     16  C   UNL d   1      57.109  -0.348  31.039  0.00  0.00     0.012 A 
ATOM     17  C   UNL d   1      56.120  -0.579  32.054  0.00  0.00     0.002 A 
ATOM     18  C   UNL d   1      55.875  -0.524  32.837  0.00  0.00     0.000 A 
ATOM     19  C   UNL d   1      56.369  -0.184  33.402  0.00  0.00     0.002 A 
ENDBRANCH   1   9
BRANCH   3  20
ATOM     20  C   UNL d   1      59.579  -2.863  28.973  0.00  0.00     0.064 A 
ATOM     21  C   UNL d   1      59.129  -3.512  28.731  0.00  0.00     0.018 A 
ATOM     22  C   UNL d   1      59.500  -4.201  28.471  0.00  0.00     0.002 A 
ATOM     23  C   UNL d   1      60.323  -4.240  28.455  0.00  0.00     0.000 A 
ATOM     24  C   UNL d   1      60.776  -3.591  28.698  0.00  0.00     0.002 A 
ATOM     25  C   UNL d   1      60.401  -2.904  28.956  0.00  0.00     0.018 A 
ENDBRANCH   3  20
TORSDOF 2
ENDMDL
MODEL 3
REMARK VINA RESULT:      -3.4      1.464      2.172
REMARK  2 active torsions:
REMARK  status: ('A' for Active; 'I' for Inactive)
REMARK    1  A    between atoms: C_3  and  C_1 
REMARK       I    between atoms: N_6  and  C_3 
REMARK    2  A    between atoms: C_16  and  N_7 
ROOT
ATOM      1  C   UNL d   1      57.981  -1.277  30.287  0.00  0.00     0.270 C 
ATOM      2  N   UNL d   1      57.592  -0.956  30.941  0.00  0.00    -0.269 N 
ATOM      3  N   UNL d   1      56.824  -0.306  32.242  0.00  0.00    -0.301 N 
ATOM      4  O   UNL d   1      57.816  -2.052  30.051  0.00  0.00    -0.266 OA
ATOM      5  C   UNL d   1      57.760  -0.183  31.172  0.00  0.00     0.102 A 
ATOM      6  C   UNL d   1      57.046  -1.401  31.356  0.00  0.00     0.102 A 
ATOM      7  C   UNL d   1      56.660  -1.076  32.009  0.00  0.00     0.100 A 
ATOM      8  C   UNL d   1      57.377   0.144  31.823  0.00  0.00     0.100 A 
ENDROOT
BRANCH   1   9
ATOM      9  C   UNL d   1      58.532  -0.825  29.870  0.00  0.00     0.120 A 
ATOM     10  C   UNL d   1      58.343  -0.518  29.129  0.00  0.00     0.305 A 
ATOM     11  O   UNL d   1      58.900  -0.060  28.708  0.00  0.00    -0.273 OA
ATOM     12  O   UNL d   1      57.599  -0.664  28.803  0.00  0.00    -0.259 OA
ATOM     13  C   UNL d   1      59.647   0.085  29.038  0.00  0.00     0.103 A 
ATOM     14  C   UNL d   1      59.840  -0.220  29.778  0.00  0.00     0.023 A 
ATOM     15  C   UNL d   1      60.198   0.537  28.621  0.00  0.00     0.025 A 
ATOM     16  C   UNL d   1      59.285  -0.678  30.202  0.00  0.00     0.012 A 
ATOM     17  C   UNL d   1      60.584  -0.074  30.104  0.00  0.00     0.002 A 
ATOM     18  C   UNL d   1      61.132   0.377  29.688  0.00  0.00     0.000 A 
ATOM     19  C   UNL d   1      60.939   0.682  28.947  0.00  0.00     0.002 A 
ENDBRANCH   1   9
BRANCH   3  20
ATOM     20  C   UNL d   1      56.442   0.024  32.893  0.00  0.00     0.064 A 
ATOM     21  C   UNL d   1      56.878   0.316  33.532  0.00  0.00     0.018 A 
ATOM     22  C   UNL d   1      56.492   0.645  34.182  0.00  0.00     0.002 A 
ATOM     23  C   UNL d   1      55.668   0.682  34.192  0.00  0.00     0.000 A 
ATOM     24  C   UNL d   1      55.230   0.390  33.553  0.00  0.00     0.002 A 
ATOM     25  C   UNL d   1      55.620   0.061  32.906  0.00  0.00     0.018 A 
ENDBRANCH   3  20
TORSDOF 2
ENDMDL
