MODEL 1
REMARK VINA RESULT:      13.4      0.000      0.000
REMARK  2 active torsions:
REMARK  status: ('A' for Active; 'I' for Inactive)
REMARK    1  A    between atoms: C_4  and  S_1 
REMARK    2  A    between atoms: C_6  and  C_4 
ROOT
ATOM      1  C   UNL d   1     -54.713-100.482 -44.385  0.00  0.00     0.013 A 
ATOM      2  C   UNL d   1     -54.712-100.745 -43.601  0.00  0.00     0.001 A 
ATOM      3  C   UNL d   1     -54.714-101.018 -45.002  0.00  0.00     0.001 A 
ATOM      4  C   UNL d   1     -54.713-101.823 -44.846  0.00  0.00     0.000 A 
ATOM      5  C   UNL d   1     -54.711-101.552 -43.441  0.00  0.00     0.000 A 
ATOM      6  C   UNL d   1     -54.712-102.097 -44.062  0.00  0.00     0.000 A 
ENDROOT
BRANCH   1   7
ATOM      7  C   UNL d   1     -54.713 -99.672 -44.541  0.00  0.00     0.119 C 
BRANCH   7   8
ATOM      8  S   UNL d   1     -55.384 -99.218 -44.377  0.00  0.00     0.303 S 
ATOM      9  O   UNL d   1     -54.922 -98.779 -43.759  0.00  0.00    -0.197 OA
ATOM     10  O   UNL d   1     -55.910 -99.629 -44.993  0.00  0.00    -0.197 OA
ATOM     11  N   UNL d   1     -56.014 -98.777 -44.207  0.00  0.00    -0.043 N 
ENDBRANCH   7   8
ENDBRANCH   1   7
TORSDOF 2
ENDMDL
MODEL 2
REMARK VINA RESULT:      15.8      1.612      2.010
REMARK  2 active torsions:
REMARK  status: ('A' for Active; 'I' for Inactive)
REMARK    1  A    between atoms: C_4  and  S_1 
REMARK    2  A    between atoms: C_6  and  C_4 
ROOT
ATOM      1  C   UNL d   1     -56.103 -99.295 -44.636  0.00  0.00     0.013 A 
ATOM      2  C   UNL d   1     -55.321 -99.026 -44.606  0.00  0.00     0.001 A 
ATOM      3  C   UNL d   1     -56.275-100.086 -44.527  0.00  0.00     0.001 A 
ATOM      4  C   UNL d   1     -55.670-100.621 -44.384  0.00  0.00     0.000 A 
ATOM      5  C   UNL d   1     -54.712 -99.561 -44.463  0.00  0.00     0.000 A 
ATOM      6  C   UNL d   1     -54.882-100.362 -44.351  0.00  0.00     0.000 A 
ENDROOT
BRANCH   1   7
ATOM      7  C   UNL d   1     -56.711 -98.755 -44.780  0.00  0.00     0.119 C 
BRANCH   7   8
ATOM      8  S   UNL d   1     -57.419 -98.807 -44.358  0.00  0.00     0.303 S 
ATOM      9  O   UNL d   1     -56.958 -98.757 -43.601  0.00  0.00    -0.197 OA
ATOM     10  O   UNL d   1     -57.946 -98.863 -45.096  0.00  0.00    -0.197 OA
ATOM     11  N   UNL d   1     -58.084 -98.856 -43.940  0.00  0.00    -0.043 N 
ENDBRANCH   7   8
ENDBRANCH   1   7
TORSDOF 2
ENDMDL
