MODEL 1
REMARK VINA RESULT:      -9.6      0.000      0.000
REMARK  4 active torsions:
REMARK  status: ('A' for Active; 'I' for Inactive)
REMARK    1  A    between atoms: S_9  and  C_2 
REMARK    2  A    between atoms: C_11  and  C_3 
REMARK    3  A    between atoms: C_7  and  C_10 
REMARK       I    between atoms: N_8  and  C_7 
REMARK    4  A    between atoms: C_10  and  S_9 
ROOT
ATOM      1  N   UNL d   1      53.316  32.782  53.614  0.00  0.00    -0.220 NA
ATOM      2  C   UNL d   1      52.834  32.281  53.185  0.00  0.00     0.114 A 
ATOM      3  C   UNL d   1      53.915  32.480  54.092  0.00  0.00     0.163 A 
ATOM      4  N   UNL d   1      54.030  31.662  54.138  0.00  0.00    -0.227 NA
ATOM      5  C   UNL d   1      52.949  31.464  53.231  0.00  0.00     0.042 A 
ATOM      6  C   UNL d   1      53.545  31.148  53.706  0.00  0.00     0.085 A 
ATOM      7  C   UNL d   1      52.464  30.955  52.799  0.00  0.00     0.004 A 
ATOM      8  C   UNL d   1      53.665  30.351  53.757  0.00  0.00     0.019 A 
ATOM      9  C   UNL d   1      52.587  30.140  52.852  0.00  0.00     0.000 A 
ATOM     10  C   UNL d   1      53.190  29.838  53.333  0.00  0.00     0.002 A 
ENDROOT
BRANCH   2  11
ATOM     11  S   UNL d   1      52.231  32.582  52.704  0.00  0.00    -0.062 SA
BRANCH  11  12
ATOM     12  C   UNL d   1      51.871  33.302  52.884  0.00  0.00     0.098 C 
BRANCH  12  13
ATOM     13  C   UNL d   1      51.391  33.670  52.333  0.00  0.00     0.272 C 
ATOM     14  N   UNL d   1      50.731  34.111  52.586  0.00  0.00    -0.267 N 
ATOM     15  C   UNL d   1      50.247  34.482  52.023  0.00  0.00     0.110 A 
ATOM     16  C   UNL d   1      50.568  34.174  53.382  0.00  0.00     0.110 A 
ATOM     17  C   UNL d   1      49.598  34.916  52.272  0.00  0.00     0.142 A 
ATOM     18  O   UNL d   1      49.429  34.982  53.079  0.00  0.00    -0.300 OA
ATOM     19  C   UNL d   1      49.919  34.608  53.632  0.00  0.00     0.142 A 
ATOM     20  O   UNL d   1      51.560  33.603  51.527  0.00  0.00    -0.266 OA
ENDBRANCH  12  13
ENDBRANCH  11  12
ENDBRANCH   2  11
BRANCH   3  21
ATOM     21  C   UNL d   1      54.404  32.989  54.528  0.00  0.00     0.036 A 
ATOM     22  C   UNL d   1      55.050  33.348  54.160  0.00  0.00     0.003 A 
ATOM     23  C   UNL d   1      55.535  33.854  54.594  0.00  0.00     0.000 A 
ATOM     24  C   UNL d   1      55.371  33.997  55.392  0.00  0.00     0.000 A 
ATOM     25  C   UNL d   1      54.722  33.634  55.754  0.00  0.00     0.000 A 
ATOM     26  C   UNL d   1      54.244  33.130  55.313  0.00  0.00     0.003 A 
ENDBRANCH   3  21
TORSDOF 4
ENDMDL
MODEL 2
REMARK VINA RESULT:      -9.0      1.846      4.549
REMARK  4 active torsions:
REMARK  status: ('A' for Active; 'I' for Inactive)
REMARK    1  A    between atoms: S_9  and  C_2 
REMARK    2  A    between atoms: C_11  and  C_3 
REMARK    3  A    between atoms: C_7  and  C_10 
REMARK       I    between atoms: N_8  and  C_7 
REMARK    4  A    between atoms: C_10  and  S_9 
ROOT
ATOM      1  N   UNL d   1      52.718  32.825  53.357  0.00  0.00    -0.220 NA
ATOM      2  C   UNL d   1      53.406  32.606  53.740  0.00  0.00     0.114 A 
ATOM      3  C   UNL d   1      52.414  33.585  53.446  0.00  0.00     0.163 A 
ATOM      4  N   UNL d   1      52.807  34.131  53.926  0.00  0.00    -0.227 NA
ATOM      5  C   UNL d   1      53.799  33.152  54.219  0.00  0.00     0.042 A 
ATOM      6  C   UNL d   1      53.504  33.917  54.316  0.00  0.00     0.085 A 
ATOM      7  C   UNL d   1      54.494  32.934  54.607  0.00  0.00     0.004 A 
ATOM      8  C   UNL d   1      53.882  34.458  54.784  0.00  0.00     0.019 A 
ATOM      9  C   UNL d   1      54.880  33.487  55.084  0.00  0.00     0.000 A 
ATOM     10  C   UNL d   1      54.571  34.251  55.172  0.00  0.00     0.002 A 
ENDROOT
BRANCH   2  11
ATOM     11  S   UNL d   1      53.715  31.842  53.653  0.00  0.00    -0.062 SA
BRANCH  11  12
ATOM     12  C   UNL d   1      53.255  31.181  53.831  0.00  0.00     0.098 C 
BRANCH  12  13
ATOM     13  C   UNL d   1      53.495  30.437  53.590  0.00  0.00     0.272 C 
ATOM     14  N   UNL d   1      53.398  29.784  54.098  0.00  0.00    -0.267 N 
ATOM     15  C   UNL d   1      53.643  29.032  53.848  0.00  0.00     0.110 A 
ATOM     16  C   UNL d   1      53.064  29.891  54.833  0.00  0.00     0.110 A 
ATOM     17  C   UNL d   1      53.548  28.390  54.348  0.00  0.00     0.142 A 
ATOM     18  O   UNL d   1      53.209  28.493  55.095  0.00  0.00    -0.300 OA
ATOM     19  C   UNL d   1      52.968  29.249  55.334  0.00  0.00     0.142 A 
ATOM     20  O   UNL d   1      53.834  30.334  52.843  0.00  0.00    -0.266 OA
ENDBRANCH  12  13
ENDBRANCH  11  12
ENDBRANCH   2  11
BRANCH   3  21
ATOM     21  C   UNL d   1      51.714  33.807  53.057  0.00  0.00     0.036 A 
ATOM     22  C   UNL d   1      51.752  34.099  52.286  0.00  0.00     0.003 A 
ATOM     23  C   UNL d   1      51.057  34.319  51.901  0.00  0.00     0.000 A 
ATOM     24  C   UNL d   1      50.331  34.246  52.289  0.00  0.00     0.000 A 
ATOM     25  C   UNL d   1      50.301  33.952  53.062  0.00  0.00     0.000 A 
ATOM     26  C   UNL d   1      50.999  33.735  53.439  0.00  0.00     0.003 A 
ENDBRANCH   3  21
TORSDOF 4
ENDMDL
MODEL 3
REMARK VINA RESULT:      -8.7      0.678      2.746
REMARK  4 active torsions:
REMARK  status: ('A' for Active; 'I' for Inactive)
REMARK    1  A    between atoms: S_9  and  C_2 
REMARK    2  A    between atoms: C_11  and  C_3 
REMARK    3  A    between atoms: C_7  and  C_10 
REMARK       I    between atoms: N_8  and  C_7 
REMARK    4  A    between atoms: C_10  and  S_9 
ROOT
ATOM      1  N   UNL d   1      52.965  32.329  53.387  0.00  0.00    -0.220 NA
ATOM      2  C   UNL d   1      53.084  33.124  53.532  0.00  0.00     0.114 A 
ATOM      3  C   UNL d   1      53.388  31.760  53.806  0.00  0.00     0.163 A 
ATOM      4  N   UNL d   1      53.937  31.994  54.377  0.00  0.00    -0.227 NA
ATOM      5  C   UNL d   1      53.633  33.358  54.103  0.00  0.00     0.042 A 
ATOM      6  C   UNL d   1      54.063  32.797  54.529  0.00  0.00     0.085 A 
ATOM      7  C   UNL d   1      53.756  34.161  54.252  0.00  0.00     0.004 A 
ATOM      8  C   UNL d   1      54.603  33.017  55.090  0.00  0.00     0.019 A 
ATOM      9  C   UNL d   1      54.307  34.384  54.825  0.00  0.00     0.000 A 
ATOM     10  C   UNL d   1      54.731  33.809  55.245  0.00  0.00     0.002 A 
ENDROOT
BRANCH   2  11
ATOM     11  S   UNL d   1      52.660  33.700  53.113  0.00  0.00    -0.062 SA
BRANCH  11  12
ATOM     12  C   UNL d   1      51.837  33.671  53.077  0.00  0.00     0.098 C 
BRANCH  12  13
ATOM     13  C   UNL d   1      51.446  33.946  52.414  0.00  0.00     0.272 C 
ATOM     14  N   UNL d   1      50.673  34.250  52.483  0.00  0.00    -0.267 N 
ATOM     15  C   UNL d   1      50.281  34.528  51.807  0.00  0.00     0.110 A 
ATOM     16  C   UNL d   1      50.312  34.272  53.213  0.00  0.00     0.110 A 
ATOM     17  C   UNL d   1      49.521  34.827  51.876  0.00  0.00     0.142 A 
ATOM     18  O   UNL d   1      49.151  34.851  52.614  0.00  0.00    -0.300 OA
ATOM     19  C   UNL d   1      49.552  34.572  53.282  0.00  0.00     0.142 A 
ATOM     20  O   UNL d   1      51.816  33.922  51.675  0.00  0.00    -0.266 OA
ENDBRANCH  12  13
ENDBRANCH  11  12
ENDBRANCH   2  11
BRANCH   3  21
ATOM     21  C   UNL d   1      53.266  30.951  53.658  0.00  0.00     0.036 A 
ATOM     22  C   UNL d   1      53.322  30.411  54.279  0.00  0.00     0.003 A 
ATOM     23  C   UNL d   1      53.201  29.609  54.130  0.00  0.00     0.000 A 
ATOM     24  C   UNL d   1      53.025  29.354  53.364  0.00  0.00     0.000 A 
ATOM     25  C   UNL d   1      52.971  29.902  52.747  0.00  0.00     0.000 A 
ATOM     26  C   UNL d   1      53.093  30.700  52.903  0.00  0.00     0.003 A 
ENDBRANCH   3  21
TORSDOF 4
ENDMDL
MODEL 4
REMARK VINA RESULT:      -8.4      1.643      3.750
REMARK  4 active torsions:
REMARK  status: ('A' for Active; 'I' for Inactive)
REMARK    1  A    between atoms: S_9  and  C_2 
REMARK    2  A    between atoms: C_11  and  C_3 
REMARK    3  A    between atoms: C_7  and  C_10 
REMARK       I    between atoms: N_8  and  C_7 
REMARK    4  A    between atoms: C_10  and  S_9 
ROOT
ATOM      1  N   UNL d   1      53.491  32.816  53.778  0.00  0.00    -0.220 NA
ATOM      2  C   UNL d   1      52.848  32.682  53.292  0.00  0.00     0.114 A 
ATOM      3  C   UNL d   1      53.646  33.571  54.068  0.00  0.00     0.163 A 
ATOM      4  N   UNL d   1      53.148  34.199  53.865  0.00  0.00    -0.227 NA
ATOM      5  C   UNL d   1      52.350  33.309  53.090  0.00  0.00     0.042 A 
ATOM      6  C   UNL d   1      52.494  34.070  53.374  0.00  0.00     0.085 A 
ATOM      7  C   UNL d   1      51.699  33.176  52.600  0.00  0.00     0.004 A 
ATOM      8  C   UNL d   1      52.013  34.690  53.182  0.00  0.00     0.019 A 
ATOM      9  C   UNL d   1      51.207  33.811  52.404  0.00  0.00     0.000 A 
ATOM     10  C   UNL d   1      51.366  34.570  52.697  0.00  0.00     0.002 A 
ENDROOT
BRANCH   2  11
ATOM     11  S   UNL d   1      52.689  31.923  53.000  0.00  0.00    -0.062 SA
BRANCH  11  12
ATOM     12  C   UNL d   1      53.020  31.258  53.357  0.00  0.00     0.098 C 
BRANCH  12  13
ATOM     13  C   UNL d   1      52.883  30.514  53.046  0.00  0.00     0.272 C 
ATOM     14  N   UNL d   1      52.982  29.839  53.524  0.00  0.00    -0.267 N 
ATOM     15  C   UNL d   1      52.841  29.087  53.203  0.00  0.00     0.110 A 
ATOM     16  C   UNL d   1      53.217  29.924  54.299  0.00  0.00     0.110 A 
ATOM     17  C   UNL d   1      52.939  28.423  53.674  0.00  0.00     0.142 A 
ATOM     18  O   UNL d   1      53.177  28.505  54.461  0.00  0.00    -0.300 OA
ATOM     19  C   UNL d   1      53.315  29.260  54.770  0.00  0.00     0.142 A 
ATOM     20  O   UNL d   1      52.645  30.432  52.258  0.00  0.00    -0.266 OA
ENDBRANCH  12  13
ENDBRANCH  11  12
ENDBRANCH   2  11
BRANCH   3  21
ATOM     21  C   UNL d   1      54.300  33.707  54.561  0.00  0.00     0.036 A 
ATOM     22  C   UNL d   1      55.027  33.911  54.228  0.00  0.00     0.003 A 
ATOM     23  C   UNL d   1      55.675  34.046  54.719  0.00  0.00     0.000 A 
ATOM     24  C   UNL d   1      55.592  33.975  55.539  0.00  0.00     0.000 A 
ATOM     25  C   UNL d   1      54.860  33.770  55.866  0.00  0.00     0.000 A 
ATOM     26  C   UNL d   1      54.219  33.637  55.368  0.00  0.00     0.003 A 
ENDBRANCH   3  21
TORSDOF 4
ENDMDL
