MODEL 1
REMARK VINA RESULT:      46.4      0.000      0.000
REMARK  5 active torsions:
REMARK  status: ('A' for Active; 'I' for Inactive)
REMARK    1  A    between atoms: C_3  and  C_1 
REMARK    2  A    between atoms: C_7  and  C_3 
REMARK       I    between atoms: C_6  and  N_5 
REMARK    3  A    between atoms: O_18  and  C_6 
REMARK    4  A    between atoms: N_10  and  C_7 
REMARK    5  A    between atoms: C_21  and  O_18 
ROOT
ATOM      1  C   UNL d   1     -55.302-102.242 -39.146  0.00  0.00     0.110 C 
ATOM      2  C   UNL d   1     -55.019-101.516 -39.432  0.00  0.00     0.105 C 
ATOM      3  N   UNL d   1     -54.741-100.798 -39.712  0.00  0.00    -0.191 NA
ENDROOT
BRANCH   1   4
ATOM      4  C   UNL d   1     -55.365-102.365 -38.333  0.00  0.00     0.122 A 
ATOM      5  N   UNL d   1     -56.038-102.607 -37.927  0.00  0.00    -0.238 NA
ATOM      6  C   UNL d   1     -55.851-102.658 -37.125  0.00  0.00     0.088 A 
ATOM      7  C   UNL d   1     -56.302-102.870 -36.465  0.00  0.00     0.020 A 
ATOM      8  C   UNL d   1     -55.059-102.448 -37.032  0.00  0.00     0.049 A 
ATOM      9  C   UNL d   1     -55.961-102.871 -35.717  0.00  0.00     0.002 A 
ATOM     10  C   UNL d   1     -55.165-102.660 -35.623  0.00  0.00     0.001 A 
ATOM     11  C   UNL d   1     -54.713-102.448 -36.278  0.00  0.00     0.008 A 
ATOM     12  S   UNL d   1     -54.755-102.266 -37.775  0.00  0.00    -0.066 SA
ENDBRANCH   1   4
BRANCH   1  13
ATOM     13  C   UNL d   1     -55.517-102.838 -39.671  0.00  0.00     0.093 C 
BRANCH  13  14
ATOM     14  N   UNL d   1     -55.495-102.700 -40.485  0.00  0.00    -0.299 N 
ATOM     15  C   UNL d   1     -54.795-102.409 -40.834  0.00  0.00     0.100 A 
ATOM     16  C   UNL d   1     -54.773-102.273 -41.639  0.00  0.00     0.104 A 
ATOM     17  N   UNL d   1     -55.438-102.421 -42.109  0.00  0.00    -0.249 N 
ATOM     18  C   UNL d   1     -56.128-102.709 -41.759  0.00  0.00     0.104 A 
ATOM     19  C   UNL d   1     -55.415-102.283 -42.923  0.00  0.00     0.378 C 
ATOM     20  C   UNL d   1     -56.160-102.851 -40.939  0.00  0.00     0.100 A 
ATOM     21  O   UNL d   1     -56.079-102.432 -43.389  0.00  0.00    -0.237 OA
BRANCH  19  22
ATOM     22  O   UNL d   1     -54.727-101.998 -43.265  0.00  0.00    -0.257 OA
BRANCH  22  23
ATOM     23  C   UNL d   1     -54.713-101.793 -44.063  0.00  0.00     0.128 C 
ATOM     24  C   UNL d   1     -54.928-101.026 -44.299  0.00  0.00     0.029 C 
ENDBRANCH  22  23
ENDBRANCH  19  22
ENDBRANCH  13  14
ENDBRANCH   1  13
TORSDOF 5
ENDMDL
