MODEL 1
REMARK VINA RESULT:      58.5      0.000      0.000
REMARK  5 active torsions:
REMARK  status: ('A' for Active; 'I' for Inactive)
REMARK    1  A    between atoms: N_7  and  C_4 
REMARK    2  A    between atoms: N_9  and  N_7 
REMARK       I    between atoms: C_8  and  N_9 
REMARK    3  A    between atoms: C_11  and  C_8 
REMARK    4  A    between atoms: C_14  and  C_11 
REMARK    5  A    between atoms: C_15  and  C_11 
ROOT
ATOM      1  C   UNL d   1     -57.142 -99.103 -44.680  0.00  0.00     0.297 C 
ATOM      2  N   UNL d   1     -56.772 -99.473 -44.042  0.00  0.00    -0.104 NA
ATOM      3  O   UNL d   1     -56.698 -98.856 -45.331  0.00  0.00    -0.264 OA
ENDROOT
BRANCH   1   4
ATOM      4  C   UNL d   1     -57.958 -98.979 -44.665  0.00  0.00     0.059 C 
BRANCH   4   5
ATOM      5  C   UNL d   1     -58.382 -98.921 -45.373  0.00  0.00     0.005 A 
ATOM      6  C   UNL d   1     -57.976 -98.923 -46.083  0.00  0.00     0.000 A 
ATOM      7  C   UNL d   1     -58.389 -98.866 -46.788  0.00  0.00     0.000 A 
ATOM      8  C   UNL d   1     -59.218 -98.806 -46.760  0.00  0.00     0.000 A 
ATOM      9  C   UNL d   1     -59.618 -98.804 -46.048  0.00  0.00     0.000 A 
ATOM     10  C   UNL d   1     -59.198 -98.862 -45.362  0.00  0.00     0.000 A 
ENDBRANCH   4   5
BRANCH   4  11
ATOM     11  C   UNL d   1     -58.350 -98.914 -43.941  0.00  0.00     0.005 A 
ATOM     12  C   UNL d   1     -57.915 -98.908 -43.253  0.00  0.00     0.000 A 
ATOM     13  C   UNL d   1     -58.299 -98.843 -42.526  0.00  0.00     0.000 A 
ATOM     14  C   UNL d   1     -59.123 -98.786 -42.503  0.00  0.00     0.000 A 
ATOM     15  C   UNL d   1     -59.560 -98.794 -43.219  0.00  0.00     0.000 A 
ATOM     16  C   UNL d   1     -59.162 -98.859 -43.931  0.00  0.00     0.000 A 
ENDBRANCH   4  11
ENDBRANCH   1   4
BRANCH   2  17
ATOM     17  N   UNL d   1     -55.956 -99.596 -44.057  0.00  0.00    -0.127 NA
BRANCH  17  18
ATOM     18  C   UNL d   1     -55.654-100.349 -44.232  0.00  0.00     0.178 A 
ATOM     19  N   UNL d   1     -55.540-100.578 -45.014  0.00  0.00    -0.240 N 
ATOM     20  C   UNL d   1     -55.242-101.321 -45.187  0.00  0.00     0.343 A 
ATOM     21  C   UNL d   1     -55.727-100.055 -45.627  0.00  0.00     0.105 C 
ATOM     22  N   UNL d   1     -55.055-101.844 -44.574  0.00  0.00    -0.224 N 
ATOM     23  O   UNL d   1     -55.128-101.550 -45.975  0.00  0.00    -0.245 OA
ATOM     24  C   UNL d   1     -55.165-101.628 -43.782  0.00  0.00     0.271 A 
ATOM     25  C   UNL d   1     -54.754-102.595 -44.749  0.00  0.00     0.107 C 
ATOM     26  C   UNL d   1     -55.468-100.871 -43.619  0.00  0.00     0.101 A 
ATOM     27  O   UNL d   1     -54.980-102.145 -43.176  0.00  0.00    -0.266 OA
ENDBRANCH  17  18
ENDBRANCH   2  17
TORSDOF 5
ENDMDL
