MODEL 1
REMARK VINA RESULT:      31.3      0.000      0.000
REMARK  6 active torsions:
REMARK  status: ('A' for Active; 'I' for Inactive)
REMARK       I    between atoms: N_3  and  C_1 
REMARK    1  A    between atoms: O_5  and  C_1 
REMARK    2  A    between atoms: C_6  and  C_2 
REMARK    3  A    between atoms: C_4  and  O_5 
REMARK    4  A    between atoms: C_7  and  C_6 
REMARK    5  A    between atoms: C_9  and  C_7 
REMARK    6  A    between atoms: C_8  and  C_9 
ROOT
ATOM      1  C   UNL d   1      46.447 -18.261  43.439  0.00  0.00     0.063 A 
ATOM      2  C   UNL d   1      46.259 -17.773  44.090  0.00  0.00     0.108 A 
ATOM      3  C   UNL d   1      46.563 -19.069  43.558  0.00  0.00     0.017 A 
ATOM      4  C   UNL d   1      46.191 -18.104  44.838  0.00  0.00     0.026 A 
ATOM      5  C   UNL d   1      46.493 -19.392  44.310  0.00  0.00     0.058 A 
ATOM      6  C   UNL d   1      46.307 -18.909  44.954  0.00  0.00     0.013 A 
ATOM      7 CL   UNL d   1      46.609 -20.202  44.426  0.00  0.00    -0.082 Cl
ENDROOT
BRANCH   1   8
ATOM      8  C   UNL d   1      46.517 -17.935  42.684  0.00  0.00     0.198 C 
ATOM      9  O   UNL d   1      46.461 -17.116  42.585  0.00  0.00    -0.286 OA
BRANCH   8  10
ATOM     10  C   UNL d   1      46.641 -18.422  42.033  0.00  0.00     0.043 C 
BRANCH  10  11
ATOM     11  C   UNL d   1      46.106 -18.419  41.405  0.00  0.00     0.010 C 
BRANCH  11  12
ATOM     12  C   UNL d   1      46.260 -18.867  40.722  0.00  0.00     0.030 A 
ATOM     13  S   UNL d   1      46.595 -19.624  40.710  0.00  0.00    -0.086 SA
ATOM     14  C   UNL d   1      46.645 -19.855  39.910  0.00  0.00     0.035 A 
ATOM     15  C   UNL d   1      46.343 -19.245  39.446  0.00  0.00     0.007 A 
ATOM     16  C   UNL d   1      46.107 -18.637  39.951  0.00  0.00     0.007 A 
ENDBRANCH  11  12
ENDBRANCH  10  11
ENDBRANCH   8  10
ENDBRANCH   1   8
BRANCH   2  17
ATOM     17  O   UNL d   1      46.144 -16.969  43.973  0.00  0.00    -0.259 OA
BRANCH  17  18
ATOM     18  C   UNL d   1      45.593 -16.564  44.439  0.00  0.00     0.378 C 
ATOM     19  N   UNL d   1      45.591 -15.739  44.452  0.00  0.00    -0.247 N 
ATOM     20  C   UNL d   1      45.043 -15.336  44.916  0.00  0.00     0.112 A 
ATOM     21  C   UNL d   1      46.145 -15.314  43.997  0.00  0.00     0.112 A 
ATOM     22  C   UNL d   1      45.046 -14.501  44.926  0.00  0.00     0.142 A 
ATOM     23  O   UNL d   1      45.600 -14.084  44.469  0.00  0.00    -0.300 OA
ATOM     24  C   UNL d   1      46.148 -14.493  44.006  0.00  0.00     0.142 A 
ATOM     25  O   UNL d   1      45.039 -16.980  44.895  0.00  0.00    -0.237 OA
ENDBRANCH  17  18
ENDBRANCH   2  17
TORSDOF 6
ENDMDL
MODEL 2
REMARK VINA RESULT:      33.3      1.880      4.224
REMARK  6 active torsions:
REMARK  status: ('A' for Active; 'I' for Inactive)
REMARK       I    between atoms: N_3  and  C_1 
REMARK    1  A    between atoms: O_5  and  C_1 
REMARK    2  A    between atoms: C_6  and  C_2 
REMARK    3  A    between atoms: C_4  and  O_5 
REMARK    4  A    between atoms: C_7  and  C_6 
REMARK    5  A    between atoms: C_9  and  C_7 
REMARK    6  A    between atoms: C_8  and  C_9 
ROOT
ATOM      1  C   UNL d   1      46.240 -18.541  43.745  0.00  0.00     0.063 A 
ATOM      2  C   UNL d   1      46.119 -18.884  42.993  0.00  0.00     0.108 A 
ATOM      3  C   UNL d   1      46.386 -19.028  44.393  0.00  0.00     0.017 A 
ATOM      4  C   UNL d   1      46.147 -19.700  42.911  0.00  0.00     0.026 A 
ATOM      5  C   UNL d   1      46.413 -19.844  44.302  0.00  0.00     0.058 A 
ATOM      6  C   UNL d   1      46.293 -20.184  43.558  0.00  0.00     0.013 A 
ATOM      7 CL   UNL d   1      46.560 -20.330  44.954  0.00  0.00    -0.082 Cl
ENDROOT
BRANCH   1   8
ATOM      8  C   UNL d   1      46.213 -17.721  43.834  0.00  0.00     0.198 C 
ATOM      9  O   UNL d   1      46.478 -17.232  43.222  0.00  0.00    -0.286 OA
BRANCH   8  10
ATOM     10  C   UNL d   1      45.923 -17.391  44.530  0.00  0.00     0.043 C 
BRANCH  10  11
ATOM     11  C   UNL d   1      46.252 -16.695  44.826  0.00  0.00     0.010 C 
BRANCH  11  12
ATOM     12  C   UNL d   1      45.797 -16.000  44.863  0.00  0.00     0.030 A 
ATOM     13  S   UNL d   1      46.099 -15.229  44.880  0.00  0.00    -0.086 SA
ATOM     14  C   UNL d   1      45.444 -14.713  44.917  0.00  0.00     0.035 A 
ATOM     15  C   UNL d   1      44.757 -15.168  44.923  0.00  0.00     0.007 A 
ATOM     16  C   UNL d   1      44.980 -15.961  44.889  0.00  0.00     0.007 A 
ENDBRANCH  11  12
ENDBRANCH  10  11
ENDBRANCH   8  10
ENDBRANCH   1   8
BRANCH   2  17
ATOM     17  O   UNL d   1      45.973 -18.400  42.346  0.00  0.00    -0.259 OA
BRANCH  17  18
ATOM     18  C   UNL d   1      46.098 -18.691  41.582  0.00  0.00     0.378 C 
ATOM     19  N   UNL d   1      45.678 -18.375  40.946  0.00  0.00    -0.247 N 
ATOM     20  C   UNL d   1      45.803 -18.665  40.186  0.00  0.00     0.112 A 
ATOM     21  C   UNL d   1      45.128 -17.762  41.073  0.00  0.00     0.112 A 
ATOM     22  C   UNL d   1      45.375 -18.342  39.545  0.00  0.00     0.142 A 
ATOM     23  O   UNL d   1      44.829 -17.731  39.680  0.00  0.00    -0.300 OA
ATOM     24  C   UNL d   1      44.708 -17.443  40.445  0.00  0.00     0.142 A 
ATOM     25  O   UNL d   1      46.643 -19.301  41.447  0.00  0.00    -0.237 OA
ENDBRANCH  17  18
ENDBRANCH   2  17
TORSDOF 6
ENDMDL
