MODEL 1
REMARK VINA RESULT:      86.6      0.000      0.000
REMARK  5 active torsions:
REMARK  status: ('A' for Active; 'I' for Inactive)
REMARK    1  A    between atoms: N_2  and  S_1 
REMARK    2  A    between atoms: C_14  and  S_1 
REMARK    3  A    between atoms: C_4  and  N_2 
REMARK    4  A    between atoms: S_6  and  C_3 
REMARK    5  A    between atoms: C_10  and  S_6 
ROOT
ATOM      1  C   UNL d   1     -54.981-100.576 -41.826  0.00  0.00     0.070 A 
ATOM      2  C   UNL d   1     -55.209 -99.797 -42.997  0.00  0.00     0.095 A 
ATOM      3  C   UNL d   1     -54.882-101.249 -42.293  0.00  0.00     0.202 A 
ATOM      4  C   UNL d   1     -55.144 -99.849 -42.178  0.00  0.00     0.030 A 
ATOM      5  C   UNL d   1     -54.947-101.195 -43.112  0.00  0.00     0.041 A 
ATOM      6  C   UNL d   1     -55.110-100.470 -43.464  0.00  0.00     0.022 A 
ATOM      7  O   UNL d   1     -54.715-101.992 -41.938  0.00  0.00    -0.286 OA
ATOM      8  C   UNL d   1     -54.848-101.875 -43.584  0.00  0.00     0.003 A 
ATOM      9  C   UNL d   1     -55.176-100.414 -44.286  0.00  0.00     0.002 A 
ATOM     10  C   UNL d   1     -54.913-101.822 -44.402  0.00  0.00     0.000 A 
ATOM     11  C   UNL d   1     -55.077-101.094 -44.758  0.00  0.00     0.000 A 
ENDROOT
BRANCH   1  12
ATOM     12  S   UNL d   1     -54.916-100.628 -41.007  0.00  0.00    -0.082 SA
BRANCH  12  13
ATOM     13  C   UNL d   1     -54.850-100.678 -40.185  0.00  0.00     0.047 A 
ATOM     14  C   UNL d   1     -54.848-101.413 -39.811  0.00  0.00     0.087 A 
ATOM     15  N   UNL d   1     -54.911-102.101 -40.263  0.00  0.00    -0.244 NA
ATOM     16  C   UNL d   1     -54.782-101.459 -38.993  0.00  0.00     0.018 A 
ATOM     17  C   UNL d   1     -54.909-102.836 -39.889  0.00  0.00     0.099 A 
ATOM     18  C   UNL d   1     -54.843-102.880 -39.066  0.00  0.00     0.021 A 
ATOM     19  C   UNL d   1     -54.779-102.202 -38.615  0.00  0.00     0.003 A 
ATOM     20  C   UNL d   1     -54.718-100.777 -38.543  0.00  0.00     0.002 A 
ATOM     21  C   UNL d   1     -54.719-100.036 -38.906  0.00  0.00     0.001 A 
ATOM     22  C   UNL d   1     -54.786 -99.984 -39.732  0.00  0.00     0.008 A 
ENDBRANCH  12  13
ENDBRANCH   1  12
BRANCH   2  23
ATOM     23  N   UNL d   1     -55.376 -99.054 -43.352  0.00  0.00    -0.158 NA
BRANCH  23  24
ATOM     24  S   UNL d   1     -55.996 -98.989 -43.896  0.00  0.00     0.285 S 
ATOM     25  O   UNL d   1     -56.549 -99.008 -43.272  0.00  0.00    -0.198 OA
ATOM     26  O   UNL d   1     -55.450 -98.969 -44.516  0.00  0.00    -0.198 OA
BRANCH  24  27
ATOM     27  C   UNL d   1     -56.618 -98.923 -44.443  0.00  0.00     0.105 A 
ATOM     28  C   UNL d   1     -57.399 -98.960 -44.185  0.00  0.00     0.013 A 
ATOM     29  C   UNL d   1     -58.026 -98.896 -44.728  0.00  0.00     0.001 A 
ATOM     30  C   UNL d   1     -57.861 -98.793 -45.535  0.00  0.00     0.000 A 
ATOM     31  C   UNL d   1     -57.068 -98.756 -45.789  0.00  0.00     0.001 A 
ATOM     32  C   UNL d   1     -56.454 -98.821 -45.245  0.00  0.00     0.013 A 
ENDBRANCH  24  27
ENDBRANCH  23  24
ENDBRANCH   2  23
TORSDOF 5
ENDMDL
