MODEL 1
REMARK VINA RESULT:     139.4      0.000      0.000
REMARK  5 active torsions:
REMARK  status: ('A' for Active; 'I' for Inactive)
REMARK    1  A    between atoms: S_2  and  C_1 
REMARK    2  A    between atoms: C_8  and  S_2 
REMARK    3  A    between atoms: C_23  and  N_7 
REMARK    4  A    between atoms: N_13  and  C_10 
REMARK    5  A    between atoms: C_31  and  C_23 
ROOT
ATOM      1  C   UNL d   1      61.092  46.508  50.757  0.00  0.00     0.144 A 
ATOM      2  C   UNL d   1      61.841  45.484  50.083  0.00  0.00     0.058 A 
ATOM      3  C   UNL d   1      61.643  46.279  50.176  0.00  0.00     0.209 A 
ATOM      4  C   UNL d   1      60.744  45.935  51.241  0.00  0.00     0.095 A 
ATOM      5  C   UNL d   1      61.493  44.911  50.567  0.00  0.00     0.069 A 
ATOM      6  N   UNL d   1      60.947  45.133  51.144  0.00  0.00    -0.303 N 
ATOM      7  C   UNL d   1      61.692  44.115  50.474  0.00  0.00     0.037 A 
ATOM      8  C   UNL d   1      62.238  43.893  49.897  0.00  0.00     0.093 A 
ATOM      9  C   UNL d   1      62.387  45.261  49.506  0.00  0.00     0.036 A 
ATOM     10  C   UNL d   1      62.586  44.466  49.413  0.00  0.00     0.156 A 
ATOM     11  O   UNL d   1      61.990  46.851  49.692  0.00  0.00    -0.286 OA
ATOM     12  F   UNL d   1      63.138  44.235  48.830  0.00  0.00    -0.203 F 
ENDROOT
BRANCH   1  13
ATOM     13  S   UNL d   1      60.891  47.306  50.852  0.00  0.00     0.214 S 
ATOM     14  O   UNL d   1      61.479  47.515  50.296  0.00  0.00    -0.217 OA
ATOM     15  O   UNL d   1      60.304  47.095  51.407  0.00  0.00    -0.217 OA
BRANCH  13  16
ATOM     16  C   UNL d   1      60.692  48.112  50.945  0.00  0.00     0.088 A 
ATOM     17  C   UNL d   1      61.018  48.553  51.561  0.00  0.00     0.011 A 
ATOM     18  C   UNL d   1      60.817  49.348  51.648  0.00  0.00     0.001 A 
ATOM     19  C   UNL d   1      61.545  48.199  52.090  0.00  0.00     0.001 C 
ATOM     20  C   UNL d   1      60.287  49.705  51.116  0.00  0.00     0.000 A 
ATOM     21  C   UNL d   1      59.964  49.262  50.503  0.00  0.00     0.001 A 
ATOM     22  C   UNL d   1      60.162  48.468  50.413  0.00  0.00     0.011 A 
ATOM     23  C   UNL d   1      59.436  49.613  49.971  0.00  0.00     0.000 C 
ENDBRANCH  13  16
ENDBRANCH   1  13
BRANCH   6  24
ATOM     24  C   UNL d   1      60.600  44.560  51.628  0.00  0.00     0.080 C 
BRANCH  24  25
ATOM     25  C   UNL d   1      60.871  44.450  52.400  0.00  0.00     0.019 C 
ATOM     26  C   UNL d   1      60.710  43.745  52.799  0.00  0.00     0.002 C 
ENDBRANCH  24  25
ENDBRANCH   6  24
BRANCH   8  27
ATOM     27  N   UNL d   1      62.438  43.094  49.803  0.00  0.00    -0.298 N 
ATOM     28  C   UNL d   1      62.361  42.738  49.061  0.00  0.00     0.107 A 
ATOM     29  C   UNL d   1      62.560  41.942  48.966  0.00  0.00     0.142 A 
ATOM     30  O   UNL d   1      62.837  41.510  49.623  0.00  0.00    -0.300 OA
ATOM     31  C   UNL d   1      62.912  41.873  50.362  0.00  0.00     0.142 A 
ATOM     32  C   UNL d   1      62.712  42.663  50.447  0.00  0.00     0.107 A 
ENDBRANCH   8  27
TORSDOF 5
ENDMDL
MODEL 2
REMARK VINA RESULT:     142.2      1.897      5.402
REMARK  5 active torsions:
REMARK  status: ('A' for Active; 'I' for Inactive)
REMARK    1  A    between atoms: S_2  and  C_1 
REMARK    2  A    between atoms: C_8  and  S_2 
REMARK    3  A    between atoms: C_23  and  N_7 
REMARK    4  A    between atoms: N_13  and  C_10 
REMARK    5  A    between atoms: C_31  and  C_23 
ROOT
ATOM      1  C   UNL d   1      61.625  44.483  50.944  0.00  0.00     0.144 A 
ATOM      2  C   UNL d   1      61.085  45.763  51.313  0.00  0.00     0.058 A 
ATOM      3  C   UNL d   1      61.252  44.977  51.501  0.00  0.00     0.209 A 
ATOM      4  C   UNL d   1      61.829  44.784  50.201  0.00  0.00     0.095 A 
ATOM      5  C   UNL d   1      61.289  46.063  50.570  0.00  0.00     0.069 A 
ATOM      6  N   UNL d   1      61.659  45.578  50.015  0.00  0.00    -0.303 N 
ATOM      7  C   UNL d   1      61.122  46.849  50.382  0.00  0.00     0.037 A 
ATOM      8  C   UNL d   1      60.752  47.335  50.937  0.00  0.00     0.093 A 
ATOM      9  C   UNL d   1      60.715  46.248  51.868  0.00  0.00     0.036 A 
ATOM     10  C   UNL d   1      60.549  47.034  51.680  0.00  0.00     0.156 A 
ATOM     11  O   UNL d   1      61.049  44.677  52.243  0.00  0.00    -0.286 OA
ATOM     12  F   UNL d   1      60.174  47.531  52.238  0.00  0.00    -0.203 F 
ENDROOT
BRANCH   1  13
ATOM     13  S   UNL d   1      61.793  43.694  51.131  0.00  0.00     0.214 S 
ATOM     14  O   UNL d   1      62.605  43.886  51.194  0.00  0.00    -0.217 OA
ATOM     15  O   UNL d   1      60.982  43.503  51.067  0.00  0.00    -0.217 OA
BRANCH  13  16
ATOM     16  C   UNL d   1      61.967  42.899  51.319  0.00  0.00     0.088 A 
ATOM     17  C   UNL d   1      62.600  42.514  50.957  0.00  0.00     0.011 A 
ATOM     18  C   UNL d   1      62.767  41.729  51.147  0.00  0.00     0.001 A 
ATOM     19  C   UNL d   1      63.067  42.914  50.404  0.00  0.00     0.001 C 
ATOM     20  C   UNL d   1      62.297  41.326  51.702  0.00  0.00     0.000 A 
ATOM     21  C   UNL d   1      61.667  41.713  52.062  0.00  0.00     0.001 A 
ATOM     22  C   UNL d   1      61.498  42.497  51.875  0.00  0.00     0.011 A 
ATOM     23  C   UNL d   1      61.197  41.316  52.615  0.00  0.00     0.000 C 
ENDBRANCH  13  16
ENDBRANCH   1  13
BRANCH   6  24
ATOM     24  C   UNL d   1      61.862  45.878  49.272  0.00  0.00     0.080 C 
BRANCH  24  25
ATOM     25  C   UNL d   1      62.598  45.702  48.942  0.00  0.00     0.019 C 
ATOM     26  C   UNL d   1      63.157  46.301  48.833  0.00  0.00     0.002 C 
ENDBRANCH  24  25
ENDBRANCH   6  24
BRANCH   8  27
ATOM     27  N   UNL d   1      60.584  48.124  50.750  0.00  0.00    -0.298 N 
ATOM     28  C   UNL d   1      61.107  48.720  50.982  0.00  0.00     0.107 A 
ATOM     29  C   UNL d   1      60.942  49.507  50.796  0.00  0.00     0.142 A 
ATOM     30  O   UNL d   1      60.244  49.688  50.374  0.00  0.00    -0.300 OA
ATOM     31  C   UNL d   1      59.726  49.086  50.145  0.00  0.00     0.142 A 
ATOM     32  C   UNL d   1      59.899  48.309  50.335  0.00  0.00     0.107 A 
ENDBRANCH   8  27
TORSDOF 5
ENDMDL
