MODEL 1
REMARK VINA RESULT:      -5.6      0.000      0.000
REMARK  3 active torsions:
REMARK  status: ('A' for Active; 'I' for Inactive)
REMARK    1  A    between atoms: C_11  and  N_2 
REMARK    2  A    between atoms: N_7  and  C_4 
REMARK    3  A    between atoms: C_14  and  C_11 
ROOT
ATOM      1  C   UNL d   1     -41.548-122.612 -51.233  0.00  0.00     0.091 A 
ATOM      2  N   UNL d   1     -41.335-122.623 -52.644  0.00  0.00    -0.211 N 
ATOM      3  C   UNL d   1     -41.336-122.223 -51.926  0.00  0.00     0.170 A 
ATOM      4  C   UNL d   1     -41.547-122.206 -50.519  0.00  0.00     0.154 A 
ATOM      5  N   UNL d   1     -41.548-123.417 -52.668  0.00  0.00    -0.162 NA
ATOM      6  C   UNL d   1     -41.761-123.809 -51.971  0.00  0.00     0.127 A 
ATOM      7  N   UNL d   1     -41.123-121.427 -51.903  0.00  0.00    -0.205 NA
ATOM      8  N   UNL d   1     -41.337-121.418 -50.489  0.00  0.00    -0.206 NA
ATOM      9  C   UNL d   1     -41.123-121.025 -51.187  0.00  0.00     0.202 A 
ENDROOT
BRANCH   2  10
ATOM     10  C   UNL d   1     -41.123-122.232 -53.338  0.00  0.00     0.102 C 
BRANCH  10  11
ATOM     11  C   UNL d   1     -41.594-122.294 -54.006  0.00  0.00     0.019 A 
ATOM     12  C   UNL d   1     -42.197-121.751 -54.138  0.00  0.00     0.002 A 
ATOM     13  C   UNL d   1     -42.670-121.814 -54.809  0.00  0.00     0.011 A 
ATOM     14  C   UNL d   1     -42.537-122.422 -55.349  0.00  0.00     0.058 A 
ATOM     15  C   UNL d   1     -41.925-122.973 -55.215  0.00  0.00     0.011 A 
ATOM     16 CL   UNL d   1     -43.011-122.489 -56.027  0.00  0.00    -0.082 Cl
ATOM     17  C   UNL d   1     -41.458-122.905 -54.545  0.00  0.00     0.002 A 
ENDBRANCH  10  11
ENDBRANCH   2  10
BRANCH   4  18
ATOM     18  N   UNL d   1     -41.767-122.610 -49.800  0.00  0.00    -0.289 N 
ATOM     19  C   UNL d   1     -42.602-122.721 -49.625  0.00  0.00     0.082 A 
ATOM     20  C   UNL d   1     -42.833-123.126 -48.906  0.00  0.00     0.019 A 
ATOM     21  C   UNL d   1     -42.226-123.415 -48.370  0.00  0.00     0.003 A 
ATOM     22  C   UNL d   1     -41.401-123.304 -48.544  0.00  0.00     0.019 A 
ATOM     23  C   UNL d   1     -42.456-123.817 -47.654  0.00  0.00     0.000 C 
ATOM     24  C   UNL d   1     -41.172-122.901 -49.260  0.00  0.00     0.082 A 
ENDBRANCH   4  18
TORSDOF 3
ENDMDL
MODEL 2
REMARK VINA RESULT:      -4.8      1.860      4.881
REMARK  3 active torsions:
REMARK  status: ('A' for Active; 'I' for Inactive)
REMARK    1  A    between atoms: C_11  and  N_2 
REMARK    2  A    between atoms: N_7  and  C_4 
REMARK    3  A    between atoms: C_14  and  C_11 
ROOT
ATOM      1  C   UNL d   1     -41.530-122.443 -52.141  0.00  0.00     0.091 A 
ATOM      2  N   UNL d   1     -41.338-122.915 -50.808  0.00  0.00    -0.211 N 
ATOM      3  C   UNL d   1     -41.333-122.301 -51.355  0.00  0.00     0.170 A 
ATOM      4  C   UNL d   1     -41.522-121.825 -52.682  0.00  0.00     0.154 A 
ATOM      5  N   UNL d   1     -41.542-123.675 -51.050  0.00  0.00    -0.162 NA
ATOM      6  C   UNL d   1     -41.739-123.817 -51.841  0.00  0.00     0.127 A 
ATOM      7  N   UNL d   1     -41.129-121.541 -51.112  0.00  0.00    -0.205 NA
ATOM      8  N   UNL d   1     -41.322-121.070 -52.449  0.00  0.00    -0.206 NA
ATOM      9  C   UNL d   1     -41.123-120.926 -51.656  0.00  0.00     0.202 A 
ENDROOT
BRANCH   2  10
ATOM     10  C   UNL d   1     -41.142-122.773 -50.021  0.00  0.00     0.102 C 
BRANCH  10  11
ATOM     11  C   UNL d   1     -41.634-123.034 -49.419  0.00  0.00     0.019 A 
ATOM     12  C   UNL d   1     -41.347-123.548 -48.845  0.00  0.00     0.002 A 
ATOM     13  C   UNL d   1     -41.843-123.809 -48.241  0.00  0.00     0.011 A 
ATOM     14  C   UNL d   1     -42.626-123.555 -48.214  0.00  0.00     0.058 A 
ATOM     15  C   UNL d   1     -42.917-123.034 -48.796  0.00  0.00     0.011 A 
ATOM     16 CL   UNL d   1     -43.128-123.817 -47.607  0.00  0.00    -0.082 Cl
ATOM     17  C   UNL d   1     -42.418-122.777 -49.395  0.00  0.00     0.002 A 
ENDBRANCH  10  11
ENDBRANCH   2  10
BRANCH   4  18
ATOM     18  N   UNL d   1     -41.726-121.972 -53.498  0.00  0.00    -0.289 N 
ATOM     19  C   UNL d   1     -42.447-121.626 -53.815  0.00  0.00     0.082 A 
ATOM     20  C   UNL d   1     -42.660-121.768 -54.632  0.00  0.00     0.019 A 
ATOM     21  C   UNL d   1     -42.150-122.255 -55.124  0.00  0.00     0.003 A 
ATOM     22  C   UNL d   1     -41.438-122.597 -54.809  0.00  0.00     0.019 A 
ATOM     23  C   UNL d   1     -42.362-122.397 -55.938  0.00  0.00     0.000 C 
ATOM     24  C   UNL d   1     -41.226-122.455 -53.995  0.00  0.00     0.082 A 
ENDBRANCH   4  18
TORSDOF 3
ENDMDL
