MODEL 1
REMARK VINA RESULT:      68.1      0.000      0.000
REMARK  6 active torsions:
REMARK  status: ('A' for Active; 'I' for Inactive)
REMARK       I    between atoms: C_2  and  N_1 
REMARK    1  A    between atoms: C_8  and  C_2 
REMARK    2  A    between atoms: C_11  and  C_3 
REMARK       I    between atoms: C_4  and  N_6 
REMARK    3  A    between atoms: C_5  and  C_4 
REMARK       I    between atoms: N_7  and  C_5 
REMARK    4  A    between atoms: N_6  and  C_11 
REMARK    5  A    between atoms: C_17  and  N_7 
REMARK    6  A    between atoms: C_20  and  C_17 
ROOT
ATOM      1  C   UNL d   1     -55.603-100.145 -43.942  0.00  0.00     0.146 C 
ENDROOT
BRANCH   1   2
ATOM      2  N   UNL d   1     -55.057 -99.715 -44.385  0.00  0.00    -0.199 NA
ATOM      3  C   UNL d   1     -55.311 -99.269 -45.025  0.00  0.00     0.337 C 
ATOM      4  O   UNL d   1     -54.765 -98.839 -45.469  0.00  0.00    -0.260 OA
BRANCH   3   5
ATOM      5  C   UNL d   1     -56.113 -99.245 -45.231  0.00  0.00     0.337 C 
ATOM      6  N   UNL d   1     -56.687 -99.329 -44.660  0.00  0.00    -0.202 NA
ATOM      7  O   UNL d   1     -56.326 -99.137 -46.019  0.00  0.00    -0.260 OA
BRANCH   6   8
ATOM      8  C   UNL d   1     -57.488 -99.306 -44.866  0.00  0.00     0.102 C 
BRANCH   8   9
ATOM      9  C   UNL d   1     -58.064 -99.195 -44.293  0.00  0.00     0.019 A 
ATOM     10  C   UNL d   1     -58.846 -99.390 -44.433  0.00  0.00     0.002 A 
ATOM     11  C   UNL d   1     -59.425 -99.284 -43.871  0.00  0.00     0.011 A 
ATOM     12  C   UNL d   1     -59.215 -98.966 -43.126  0.00  0.00     0.058 A 
ATOM     13  C   UNL d   1     -58.433 -98.765 -42.969  0.00  0.00     0.011 A 
ATOM     14 CL   UNL d   1     -59.803 -98.854 -42.545  0.00  0.00    -0.082 Cl
ATOM     15  C   UNL d   1     -57.854 -98.877 -43.548  0.00  0.00     0.002 A 
ENDBRANCH   8   9
ENDBRANCH   6   8
ENDBRANCH   3   5
ENDBRANCH   1   2
BRANCH   1  16
ATOM     16  C   UNL d   1     -55.507-100.956 -43.844  0.00  0.00     0.190 A 
ATOM     17  N   UNL d   1     -55.366-101.339 -43.129  0.00  0.00    -0.250 N 
ATOM     18  C   UNL d   1     -55.297-100.982 -42.384  0.00  0.00     0.266 C 
ATOM     19  C   UNL d   1     -55.308-102.145 -43.291  0.00  0.00     0.112 A 
ATOM     20  O   UNL d   1     -55.369-100.166 -42.307  0.00  0.00    -0.267 OA
ATOM     21  C   UNL d   1     -55.411-102.267 -44.104  0.00  0.00     0.144 A 
ATOM     22  O   UNL d   1     -55.534-101.530 -44.448  0.00  0.00    -0.285 OA
BRANCH  18  23
ATOM     23  C   UNL d   1     -55.153-101.453 -41.706  0.00  0.00     0.057 A 
ATOM     24  C   UNL d   1     -55.290-102.259 -41.729  0.00  0.00     0.006 A 
ATOM     25  C   UNL d   1     -55.148-102.722 -41.060  0.00  0.00     0.012 A 
ATOM     26  C   UNL d   1     -54.869-102.372 -40.371  0.00  0.00     0.058 A 
ATOM     27  C   UNL d   1     -54.731-101.556 -40.348  0.00  0.00     0.012 A 
ATOM     28 CL   UNL d   1     -54.726-102.842 -39.695  0.00  0.00    -0.082 Cl
ATOM     29  C   UNL d   1     -54.873-101.105 -41.012  0.00  0.00     0.006 A 
ENDBRANCH  18  23
ENDBRANCH   1  16
TORSDOF 6
ENDMDL
