MODEL 1
REMARK VINA RESULT:      70.0      0.000      0.000
REMARK  3 active torsions:
REMARK  status: ('A' for Active; 'I' for Inactive)
REMARK    1  A    between atoms: C_3  and  C_1 
REMARK       I    between atoms: N_7  and  C_3 
REMARK    2  A    between atoms: C_11  and  N_7 
REMARK    3  A    between atoms: O_17  and  C_12 
ROOT
ATOM      1  C   UNL d   1      60.022  49.472  52.555  0.00  0.00     0.121 A 
ATOM      2  C   UNL d   1      60.805  49.285  52.561  0.00  0.00     0.305 A 
ATOM      3  C   UNL d   1      59.636  49.609  51.831  0.00  0.00     0.012 A 
ATOM      4  O   UNL d   1      61.216  49.233  51.844  0.00  0.00    -0.273 OA
ATOM      5  C   UNL d   1      60.053  49.555  51.125  0.00  0.00     0.023 A 
ATOM      6  C   UNL d   1      60.836  49.368  51.131  0.00  0.00     0.103 A 
ATOM      7  O   UNL d   1      61.185  49.150  53.280  0.00  0.00    -0.259 OA
ATOM      8  C   UNL d   1      59.667  49.692  50.405  0.00  0.00     0.002 A 
ATOM      9  C   UNL d   1      61.247  49.316  50.417  0.00  0.00     0.025 A 
ATOM     10  C   UNL d   1      60.867  49.452  49.695  0.00  0.00     0.002 A 
ATOM     11  C   UNL d   1      60.084  49.638  49.689  0.00  0.00     0.000 A 
ENDROOT
BRANCH   1  12
ATOM     12  C   UNL d   1      59.605  49.526  53.267  0.00  0.00     0.284 C 
ATOM     13  N   UNL d   1      58.791  49.402  53.298  0.00  0.00    -0.208 NA
ATOM     14  O   UNL d   1      59.984  49.706  53.978  0.00  0.00    -0.265 OA
BRANCH  13  15
ATOM     15  C   UNL d   1      58.409  49.459  53.997  0.00  0.00     0.085 A 
ATOM     16  C   UNL d   1      57.601  49.647  54.037  0.00  0.00     0.021 A 
ATOM     17  C   UNL d   1      57.203  49.708  54.742  0.00  0.00     0.026 A 
ATOM     18  C   UNL d   1      57.636  49.572  55.463  0.00  0.00     0.094 A 
ATOM     19  C   UNL d   1      58.459  49.380  55.423  0.00  0.00     0.026 A 
ATOM     20  C   UNL d   1      58.816  49.331  54.694  0.00  0.00     0.021 A 
BRANCH  18  21
ATOM     21  O   UNL d   1      57.255  49.627  56.193  0.00  0.00    -0.328 OA
ATOM     22  C   UNL d   1      56.535  49.239  56.301  0.00  0.00     0.181 C 
ENDBRANCH  18  21
ENDBRANCH  13  15
ENDBRANCH   1  12
TORSDOF 3
ENDMDL
