MODEL 1
REMARK VINA RESULT:      27.1      0.000      0.000
REMARK  4 active torsions:
REMARK  status: ('A' for Active; 'I' for Inactive)
REMARK    1  A    between atoms: N_7  and  C_1 
REMARK    2  A    between atoms: C_8  and  C_4 
REMARK    3  A    between atoms: C_10  and  N_7 
REMARK    4  A    between atoms: C_12  and  C_8 
ROOT
ATOM      1  C   UNL d   1      46.312 -17.857  44.212  0.00  0.00     0.184 A 
ATOM      2  N   UNL d   1      46.323 -17.451  43.490  0.00  0.00    -0.129 NA
ATOM      3  N   UNL d   1      46.431 -17.868  42.785  0.00  0.00    -0.147 NA
ATOM      4  C   UNL d   1      46.529 -18.690  42.793  0.00  0.00     0.103 A 
ATOM      5  C   UNL d   1      46.410 -18.676  44.218  0.00  0.00     0.039 A 
ATOM      6  C   UNL d   1      46.518 -19.093  43.513  0.00  0.00     0.022 A 
ATOM      7  C   UNL d   1      46.399 -19.081  44.940  0.00  0.00     0.003 A 
ATOM      8  C   UNL d   1      46.616 -19.918  43.526  0.00  0.00     0.002 A 
ATOM      9  C   UNL d   1      46.605 -20.319  44.245  0.00  0.00     0.000 A 
ATOM     10  C   UNL d   1      46.496 -19.900  44.954  0.00  0.00     0.000 A 
ENDROOT
BRANCH   1  11
ATOM     11  N   UNL d   1      46.205 -17.447  44.921  0.00  0.00    -0.225 NA
BRANCH  11  12
ATOM     12  C   UNL d   1      45.933 -16.670  44.903  0.00  0.00     0.083 A 
ATOM     13  C   UNL d   1      45.128 -16.520  44.897  0.00  0.00     0.020 A 
ATOM     14  C   UNL d   1      44.847 -15.749  44.880  0.00  0.00     0.013 A 
ATOM     15  C   UNL d   1      45.384 -15.111  44.868  0.00  0.00     0.058 A 
ATOM     16  C   UNL d   1      46.196 -15.266  44.873  0.00  0.00     0.013 A 
ATOM     17 CL   UNL d   1      45.105 -14.332  44.850  0.00  0.00    -0.082 Cl
ATOM     18  C   UNL d   1      46.472 -16.046  44.891  0.00  0.00     0.020 A 
ENDBRANCH  11  12
ENDBRANCH   1  11
BRANCH   4  19
ATOM     19  C   UNL d   1      46.637 -19.108  42.087  0.00  0.00     0.021 C 
BRANCH  19  20
ATOM     20  C   UNL d   1      46.248 -18.866  41.401  0.00  0.00     0.005 A 
ATOM     21  C   UNL d   1      46.637 -18.903  40.675  0.00  0.00     0.021 A 
ATOM     22  C   UNL d   1      46.248 -18.661  39.988  0.00  0.00     0.099 A 
ATOM     23  N   UNL d   1      45.471 -18.384  40.029  0.00  0.00    -0.242 NA
ATOM     24  C   UNL d   1      45.083 -18.349  40.768  0.00  0.00     0.099 A 
ATOM     25  C   UNL d   1      45.480 -18.593  41.449  0.00  0.00     0.021 A 
ENDBRANCH  19  20
ENDBRANCH   4  19
TORSDOF 4
ENDMDL
