MODEL 1
REMARK VINA RESULT:       8.2      0.000      0.000
REMARK  11 active torsions:
REMARK  status: ('A' for Active; 'I' for Inactive)
REMARK    1  A    between atoms: C_4  and  C_1 
REMARK    2  A    between atoms: C_10  and  C_2 
REMARK    3  A    between atoms: C_16  and  C_9 
REMARK    4  A    between atoms: O_24  and  C_10 
REMARK    5  A    between atoms: O_18  and  C_14 
REMARK    6  A    between atoms: O_25  and  C_16 
REMARK    7  A    between atoms: C_26  and  C_17 
REMARK    8  A    between atoms: C_19  and  O_18 
REMARK    9  A    between atoms: C_29  and  O_24 
REMARK   10  A    between atoms: C_28  and  O_25 
REMARK   11  A    between atoms: C_30  and  C_26 
ROOT
ATOM      1  C   UNL d   1     -42.062-122.723 -51.521  0.00  0.00     0.090 A 
ATOM      2  C   UNL d   1     -42.598-122.104 -51.626  0.00  0.00     0.168 A 
ATOM      3  C   UNL d   1     -41.663-123.038 -52.179  0.00  0.00     0.201 A 
ATOM      4  C   UNL d   1     -41.799-122.735 -52.941  0.00  0.00     0.062 A 
ATOM      5  O   UNL d   1     -42.734-121.801 -52.389  0.00  0.00    -0.301 OA
ATOM      6  C   UNL d   1     -42.335-122.117 -53.046  0.00  0.00     0.105 A 
ATOM      7  C   UNL d   1     -41.404-123.051 -53.581  0.00  0.00     0.007 A 
ATOM      8  C   UNL d   1     -42.474-121.814 -53.791  0.00  0.00     0.050 A 
ATOM      9  C   UNL d   1     -42.075-122.130 -54.448  0.00  0.00     0.105 A 
ATOM     10  C   UNL d   1     -41.540-122.748 -54.343  0.00  0.00     0.023 A 
ATOM     11  O   UNL d   1     -41.128-123.657 -52.074  0.00  0.00    -0.286 OA
ENDROOT
BRANCH   1  12
ATOM     12  C   UNL d   1     -41.926-123.025 -50.760  0.00  0.00     0.105 A 
ATOM     13  O   UNL d   1     -41.769-122.539 -50.112  0.00  0.00    -0.302 OA
ATOM     14  C   UNL d   1     -41.666-123.021 -49.466  0.00  0.00     0.163 A 
ATOM     15  C   UNL d   1     -41.755-123.796 -49.698  0.00  0.00     0.032 A 
ATOM     16  C   UNL d   1     -41.922-123.810 -50.520  0.00  0.00     0.027 A 
BRANCH  14  17
ATOM     17  C   UNL d   1     -41.493-122.769 -48.678  0.00  0.00     0.323 C 
ATOM     18  O   UNL d   1     -41.422-121.939 -48.514  0.00  0.00    -0.257 OA
BRANCH  17  19
ATOM     19  O   UNL d   1     -41.394-123.304 -48.072  0.00  0.00    -0.270 OA
BRANCH  19  20
ATOM     20  C   UNL d   1     -41.218-123.066 -47.302  0.00  0.00     0.126 C 
ATOM     21  C   UNL d   1     -41.675-123.305 -46.679  0.00  0.00     0.029 C 
ENDBRANCH  19  20
ENDBRANCH  17  19
ENDBRANCH  14  17
ENDBRANCH   1  12
BRANCH   2  22
ATOM     22  C   UNL d   1     -43.014-121.773 -50.956  0.00  0.00     0.323 C 
ATOM     23  O   UNL d   1     -42.610-121.291 -50.434  0.00  0.00    -0.257 OA
BRANCH  22  24
ATOM     24  O   UNL d   1     -43.813-121.938 -50.837  0.00  0.00    -0.270 OA
BRANCH  24  25
ATOM     25  C   UNL d   1     -44.169-121.751 -50.109  0.00  0.00     0.126 C 
ATOM     26  C   UNL d   1     -44.977-121.880 -50.004  0.00  0.00     0.029 C 
ENDBRANCH  24  25
ENDBRANCH  22  24
ENDBRANCH   2  22
BRANCH  10  27
ATOM     27  C   UNL d   1     -41.126-123.077 -55.014  0.00  0.00     0.002 C 
BRANCH  27  28
ATOM     28  C   UNL d   1     -41.371-123.810 -55.306  0.00  0.00     0.000 C 
ATOM     29  C   UNL d   1     -41.877-123.815 -55.976  0.00  0.00     0.000 C 
ENDBRANCH  27  28
ENDBRANCH  10  27
BRANCH   9  30
ATOM     30  O   UNL d   1     -42.222-121.811 -55.229  0.00  0.00    -0.273 OA
BRANCH  30  31
ATOM     31  C   UNL d   1     -42.945-121.502 -55.397  0.00  0.00     0.300 C 
ATOM     32  O   UNL d   1     -43.366-121.412 -54.951  0.00  0.00    -0.259 OA
ATOM     33  C   UNL d   1     -43.143-121.296 -56.169  0.00  0.00     0.074 C 
ENDBRANCH  30  31
ENDBRANCH   9  30
TORSDOF 11
ENDMDL
