MODEL 1
REMARK VINA RESULT:      -3.4      0.000      0.000
REMARK  4 active torsions:
REMARK  status: ('A' for Active; 'I' for Inactive)
REMARK    1  A    between atoms: C_6  and  C_1 
REMARK    2  A    between atoms: C_9  and  N_3 
REMARK    3  A    between atoms: C_17  and  C_9 
REMARK    4  A    between atoms: O_15  and  C_10 
ROOT
ATOM      1  C   UNL d   1     -41.610-123.227 -51.549  0.00  0.00     0.148 A 
ATOM      2  N   UNL d   1     -41.726-123.817 -52.155  0.00  0.00    -0.227 NA
ATOM      3  N   UNL d   1     -41.367-122.532 -51.932  0.00  0.00    -0.289 N 
ATOM      4  C   UNL d   1     -41.329-122.664 -52.730  0.00  0.00     0.083 A 
ATOM      5  C   UNL d   1     -41.555-123.475 -52.871  0.00  0.00     0.099 A 
ATOM      6  C   UNL d   1     -41.123-122.179 -53.367  0.00  0.00     0.019 A 
ATOM      7  C   UNL d   1     -41.557-123.742 -53.669  0.00  0.00     0.021 A 
ATOM      8  C   UNL d   1     -41.139-122.476 -54.114  0.00  0.00     0.002 A 
ATOM      9  C   UNL d   1     -41.358-123.260 -54.250  0.00  0.00     0.002 A 
ENDROOT
BRANCH   1  10
ATOM     10  C   UNL d   1     -41.728-123.361 -50.738  0.00  0.00     0.035 A 
ATOM     11  C   UNL d   1     -41.122-123.630 -50.264  0.00  0.00     0.005 A 
ATOM     12  C   UNL d   1     -41.218-123.770 -49.452  0.00  0.00     0.024 A 
ATOM     13  C   UNL d   1     -41.919-123.641 -49.113  0.00  0.00     0.094 A 
ATOM     14  C   UNL d   1     -42.556-123.363 -49.591  0.00  0.00     0.024 A 
ATOM     15  C   UNL d   1     -42.461-123.222 -50.404  0.00  0.00     0.005 A 
BRANCH  13  16
ATOM     16  O   UNL d   1     -42.399-123.645 -48.436  0.00  0.00    -0.328 OA
ATOM     17  C   UNL d   1     -42.053-123.701 -47.683  0.00  0.00     0.181 C 
ENDBRANCH  13  16
ENDBRANCH   1  10
BRANCH   3  18
ATOM     18  C   UNL d   1     -41.236-121.928 -51.435  0.00  0.00     0.082 C 
BRANCH  18  19
ATOM     19  C   UNL d   1     -41.313-121.150 -51.670  0.00  0.00     0.019 C 
ATOM     20  C   UNL d   1     -41.134-120.513 -51.181  0.00  0.00     0.002 C 
ENDBRANCH  18  19
ENDBRANCH   3  18
TORSDOF 4
ENDMDL
MODEL 2
REMARK VINA RESULT:      -2.9      1.600      4.080
REMARK  4 active torsions:
REMARK  status: ('A' for Active; 'I' for Inactive)
REMARK    1  A    between atoms: C_6  and  C_1 
REMARK    2  A    between atoms: C_9  and  N_3 
REMARK    3  A    between atoms: C_17  and  C_9 
REMARK    4  A    between atoms: O_15  and  C_10 
ROOT
ATOM      1  C   UNL d   1     -41.669-123.235 -50.062  0.00  0.00     0.148 A 
ATOM      2  N   UNL d   1     -41.135-123.591 -49.499  0.00  0.00    -0.227 NA
ATOM      3  N   UNL d   1     -42.343-122.999 -49.639  0.00  0.00    -0.289 N 
ATOM      4  C   UNL d   1     -42.250-123.189 -48.857  0.00  0.00     0.083 A 
ATOM      5  C   UNL d   1     -41.487-123.562 -48.769  0.00  0.00     0.099 A 
ATOM      6  C   UNL d   1     -42.736-123.086 -48.196  0.00  0.00     0.019 A 
ATOM      7  C   UNL d   1     -41.267-123.811 -47.996  0.00  0.00     0.021 A 
ATOM      8  C   UNL d   1     -42.484-123.339 -47.475  0.00  0.00     0.002 A 
ATOM      9  C   UNL d   1     -41.747-123.699 -47.390  0.00  0.00     0.002 A 
ENDROOT
BRANCH   1  10
ATOM     10  C   UNL d   1     -41.510-123.157 -50.873  0.00  0.00     0.035 A 
ATOM     11  C   UNL d   1     -41.286-122.441 -51.190  0.00  0.00     0.005 A 
ATOM     12  C   UNL d   1     -41.123-122.340 -51.998  0.00  0.00     0.024 A 
ATOM     13  C   UNL d   1     -41.182-122.956 -52.488  0.00  0.00     0.094 A 
ATOM     14  C   UNL d   1     -41.413-123.704 -52.174  0.00  0.00     0.024 A 
ATOM     15  C   UNL d   1     -41.577-123.805 -51.366  0.00  0.00     0.005 A 
BRANCH  13  16
ATOM     16  O   UNL d   1     -41.123-123.269 -53.254  0.00  0.00    -0.328 OA
ATOM     17  C   UNL d   1     -41.178-122.768 -53.913  0.00  0.00     0.181 C 
ENDBRANCH  13  16
ENDBRANCH   1  10
BRANCH   3  18
ATOM     18  C   UNL d   1     -42.895-122.656 -50.093  0.00  0.00     0.082 C 
BRANCH  18  19
ATOM     19  C   UNL d   1     -43.645-122.491 -49.813  0.00  0.00     0.019 C 
ATOM     20  C   UNL d   1     -44.201-122.062 -50.241  0.00  0.00     0.002 C 
ENDBRANCH  18  19
ENDBRANCH   3  18
TORSDOF 4
ENDMDL
MODEL 3
REMARK VINA RESULT:      -2.1      1.860      3.972
REMARK  4 active torsions:
REMARK  status: ('A' for Active; 'I' for Inactive)
REMARK    1  A    between atoms: C_6  and  C_1 
REMARK    2  A    between atoms: C_9  and  N_3 
REMARK    3  A    between atoms: C_17  and  C_9 
REMARK    4  A    between atoms: O_15  and  C_10 
ROOT
ATOM      1  C   UNL d   1     -41.575-122.547 -52.290  0.00  0.00     0.148 A 
ATOM      2  N   UNL d   1     -41.614-123.329 -51.952  0.00  0.00    -0.227 NA
ATOM      3  N   UNL d   1     -41.398-122.023 -51.670  0.00  0.00    -0.289 N 
ATOM      4  C   UNL d   1     -41.328-122.440 -50.980  0.00  0.00     0.083 A 
ATOM      5  C   UNL d   1     -41.464-123.264 -51.157  0.00  0.00     0.099 A 
ATOM      6  C   UNL d   1     -41.161-122.210 -50.203  0.00  0.00     0.019 A 
ATOM      7  C   UNL d   1     -41.419-123.809 -50.518  0.00  0.00     0.021 A 
ATOM      8  C   UNL d   1     -41.128-122.765 -49.622  0.00  0.00     0.002 A 
ATOM      9  C   UNL d   1     -41.259-123.562 -49.794  0.00  0.00     0.002 A 
ENDROOT
BRANCH   1  10
ATOM     10  C   UNL d   1     -41.697-122.378 -53.094  0.00  0.00     0.035 A 
ATOM     11  C   UNL d   1     -42.303-121.890 -53.334  0.00  0.00     0.005 A 
ATOM     12  C   UNL d   1     -42.444-121.707 -54.131  0.00  0.00     0.024 A 
ATOM     13  C   UNL d   1     -41.977-122.014 -54.689  0.00  0.00     0.094 A 
ATOM     14  C   UNL d   1     -41.345-122.521 -54.457  0.00  0.00     0.024 A 
ATOM     15  C   UNL d   1     -41.204-122.704 -53.659  0.00  0.00     0.005 A 
BRANCH  13  16
ATOM     16  O   UNL d   1     -41.777-122.093 -55.491  0.00  0.00    -0.328 OA
ATOM     17  C   UNL d   1     -42.356-121.987 -56.076  0.00  0.00     0.181 C 
ENDBRANCH  13  16
ENDBRANCH   1  10
BRANCH   3  18
ATOM     18  C   UNL d   1     -41.344-121.267 -51.902  0.00  0.00     0.082 C 
BRANCH  18  19
ATOM     19  C   UNL d   1     -41.157-120.667 -51.381  0.00  0.00     0.019 C 
ATOM     20  C   UNL d   1     -41.125-119.875 -51.599  0.00  0.00     0.002 C 
ENDBRANCH  18  19
ENDBRANCH   3  18
TORSDOF 4
ENDMDL
