MODEL 1
REMARK VINA RESULT:      -6.6      0.000      0.000
REMARK  4 active torsions:
REMARK  status: ('A' for Active; 'I' for Inactive)
REMARK    1  A    between atoms: C_10  and  C_3 
REMARK    2  A    between atoms: C_12  and  N_6 
REMARK    3  A    between atoms: O_15  and  C_10 
REMARK    4  A    between atoms: C_18  and  O_15 
ROOT
ATOM      1  C   UNL d   1     -47.655  14.142  22.693  0.00  0.00     0.086 A 
ATOM      2  C   UNL d   1     -47.020  13.673  22.932  0.00  0.00     0.038 A 
ATOM      3  C   UNL d   1     -47.145  12.899  23.185  0.00  0.00     0.165 A 
ATOM      4  C   UNL d   1     -48.421  13.831  22.708  0.00  0.00     0.282 A 
ATOM      5  N   UNL d   1     -47.906  12.595  23.198  0.00  0.00    -0.157 NA
ATOM      6  N   UNL d   1     -48.544  13.061  22.960  0.00  0.00    -0.194 N 
ATOM      7  C   UNL d   1     -47.357  14.880  22.473  0.00  0.00     0.137 A 
ATOM      8  C   UNL d   1     -46.330  14.116  22.862  0.00  0.00     0.039 A 
ATOM      9  S   UNL d   1     -46.540  14.871  22.576  0.00  0.00    -0.066 SA
ATOM     10  O   UNL d   1     -49.059  14.296  22.470  0.00  0.00    -0.265 OA
ATOM     11  N   UNL d   1     -47.805  15.520  22.198  0.00  0.00    -0.141 N 
ENDROOT
BRANCH   6  12
ATOM     12  C   UNL d   1     -49.310  12.749  22.975  0.00  0.00     0.086 A 
ATOM     13  C   UNL d   1     -49.641  12.435  22.290  0.00  0.00     0.019 A 
ATOM     14  C   UNL d   1     -50.404  12.125  22.307  0.00  0.00     0.002 A 
ATOM     15  C   UNL d   1     -50.835  12.130  23.010  0.00  0.00     0.000 A 
ATOM     16  C   UNL d   1     -50.501  12.447  23.698  0.00  0.00     0.002 A 
ATOM     17  C   UNL d   1     -49.739  12.756  23.680  0.00  0.00     0.019 A 
ENDBRANCH   6  12
BRANCH   3  18
ATOM     18  C   UNL d   1     -46.507  12.433  23.423  0.00  0.00     0.320 C 
ATOM     19  O   UNL d   1     -45.792  12.787  23.626  0.00  0.00    -0.257 OA
BRANCH  18  20
ATOM     20  O   UNL d   1     -46.588  11.611  23.457  0.00  0.00    -0.270 OA
BRANCH  20  21
ATOM     21  C   UNL d   1     -45.954  11.145  23.698  0.00  0.00     0.126 C 
ATOM     22  C   UNL d   1     -45.992  10.326  23.617  0.00  0.00     0.029 C 
ENDBRANCH  20  21
ENDBRANCH  18  20
ENDBRANCH   3  18
TORSDOF 4
ENDMDL
MODEL 2
REMARK VINA RESULT:      -5.9      1.289      2.642
REMARK  4 active torsions:
REMARK  status: ('A' for Active; 'I' for Inactive)
REMARK    1  A    between atoms: C_10  and  C_3 
REMARK    2  A    between atoms: C_12  and  N_6 
REMARK    3  A    between atoms: O_15  and  C_10 
REMARK    4  A    between atoms: C_18  and  O_15 
ROOT
ATOM      1  C   UNL d   1     -47.400  11.701  23.388  0.00  0.00     0.086 A 
ATOM      2  C   UNL d   1     -46.968  12.398  23.296  0.00  0.00     0.038 A 
ATOM      3  C   UNL d   1     -47.352  13.105  23.117  0.00  0.00     0.165 A 
ATOM      4  C   UNL d   1     -48.222  11.714  23.299  0.00  0.00     0.282 A 
ATOM      5  N   UNL d   1     -48.167  13.113  23.030  0.00  0.00    -0.157 NA
ATOM      6  N   UNL d   1     -48.602  12.418  23.121  0.00  0.00    -0.194 N 
ATOM      7  C   UNL d   1     -46.868  11.094  23.563  0.00  0.00     0.137 A 
ATOM      8  C   UNL d   1     -46.172  12.227  23.413  0.00  0.00     0.039 A 
ATOM      9  S   UNL d   1     -46.108  11.412  23.580  0.00  0.00    -0.066 SA
ATOM     10  O   UNL d   1     -48.657  11.019  23.390  0.00  0.00    -0.265 OA
ATOM     11  N   UNL d   1     -47.065  10.301  23.698  0.00  0.00    -0.141 N 
ENDROOT
BRANCH   6  12
ATOM     12  C   UNL d   1     -49.424  12.431  23.032  0.00  0.00     0.086 A 
ATOM     13  C   UNL d   1     -49.758  12.370  22.283  0.00  0.00     0.019 A 
ATOM     14  C   UNL d   1     -50.577  12.384  22.196  0.00  0.00     0.002 A 
ATOM     15  C   UNL d   1     -51.061  12.459  22.860  0.00  0.00     0.000 A 
ATOM     16  C   UNL d   1     -50.723  12.521  23.612  0.00  0.00     0.002 A 
ATOM     17  C   UNL d   1     -49.905  12.507  23.698  0.00  0.00     0.019 A 
ENDBRANCH   6  12
BRANCH   3  18
ATOM     18  C   UNL d   1     -46.917  13.800  23.026  0.00  0.00     0.320 C 
ATOM     19  O   UNL d   1     -46.268  13.946  23.512  0.00  0.00    -0.257 OA
BRANCH  18  20
ATOM     20  O   UNL d   1     -47.134  14.349  22.447  0.00  0.00    -0.270 OA
BRANCH  20  21
ATOM     21  C   UNL d   1     -47.064  15.155  22.597  0.00  0.00     0.126 C 
ATOM     22  C   UNL d   1     -47.521  15.692  22.172  0.00  0.00     0.029 C 
ENDBRANCH  20  21
ENDBRANCH  18  20
ENDBRANCH   3  18
TORSDOF 4
ENDMDL
MODEL 3
REMARK VINA RESULT:      -5.8      8.417      9.734
REMARK  4 active torsions:
REMARK  status: ('A' for Active; 'I' for Inactive)
REMARK    1  A    between atoms: C_10  and  C_3 
REMARK    2  A    between atoms: C_12  and  N_6 
REMARK    3  A    between atoms: O_15  and  C_10 
REMARK    4  A    between atoms: C_18  and  O_15 
ROOT
ATOM      1  C   UNL d   1     -40.281  15.098  17.838  0.00  0.00     0.086 A 
ATOM      2  C   UNL d   1     -39.686  14.611  17.538  0.00  0.00     0.038 A 
ATOM      3  C   UNL d   1     -39.169  14.222  18.049  0.00  0.00     0.165 A 
ATOM      4  C   UNL d   1     -40.357  15.194  18.656  0.00  0.00     0.282 A 
ATOM      5  N   UNL d   1     -39.249  14.320  18.859  0.00  0.00    -0.157 NA
ATOM      6  N   UNL d   1     -39.843  14.806  19.162  0.00  0.00    -0.194 N 
ATOM      7  C   UNL d   1     -40.703  15.406  17.199  0.00  0.00     0.137 A 
ATOM      8  C   UNL d   1     -39.736  14.615  16.718  0.00  0.00     0.039 A 
ATOM      9  S   UNL d   1     -40.371  15.112  16.504  0.00  0.00    -0.066 SA
ATOM     10  O   UNL d   1     -40.951  15.679  18.959  0.00  0.00    -0.265 OA
ATOM     11  N   UNL d   1     -41.348  15.922  17.248  0.00  0.00    -0.141 N 
ENDROOT
BRANCH   6  12
ATOM     12  C   UNL d   1     -39.919  14.902  19.980  0.00  0.00     0.086 A 
ATOM     13  C   UNL d   1     -39.446  15.446  20.377  0.00  0.00     0.019 A 
ATOM     14  C   UNL d   1     -39.523  15.540  21.191  0.00  0.00     0.002 A 
ATOM     15  C   UNL d   1     -40.074  15.089  21.609  0.00  0.00     0.000 A 
ATOM     16  C   UNL d   1     -40.549  14.543  21.208  0.00  0.00     0.002 A 
ATOM     17  C   UNL d   1     -40.471  14.450  20.394  0.00  0.00     0.019 A 
ENDBRANCH   6  12
BRANCH   3  18
ATOM     18  C   UNL d   1     -38.576  13.736  17.746  0.00  0.00     0.320 C 
ATOM     19  O   UNL d   1     -37.940  14.067  17.341  0.00  0.00    -0.257 OA
BRANCH  18  20
ATOM     20  O   UNL d   1     -38.620  12.917  17.850  0.00  0.00    -0.270 OA
BRANCH  20  21
ATOM     21  C   UNL d   1     -37.943  12.455  17.781  0.00  0.00     0.126 C 
ATOM     22  C   UNL d   1     -37.999  11.635  17.823  0.00  0.00     0.029 C 
ENDBRANCH  20  21
ENDBRANCH  18  20
ENDBRANCH   3  18
TORSDOF 4
ENDMDL
MODEL 4
REMARK VINA RESULT:      -5.7      1.161      3.289
REMARK  4 active torsions:
REMARK  status: ('A' for Active; 'I' for Inactive)
REMARK    1  A    between atoms: C_10  and  C_3 
REMARK    2  A    between atoms: C_12  and  N_6 
REMARK    3  A    between atoms: O_15  and  C_10 
REMARK    4  A    between atoms: C_18  and  O_15 
ROOT
ATOM      1  C   UNL d   1     -47.978  14.347  22.507  0.00  0.00     0.086 A 
ATOM      2  C   UNL d   1     -48.715  13.987  22.423  0.00  0.00     0.038 A 
ATOM      3  C   UNL d   1     -48.790  13.169  22.498  0.00  0.00     0.165 A 
ATOM      4  C   UNL d   1     -47.312  13.883  22.667  0.00  0.00     0.282 A 
ATOM      5  N   UNL d   1     -48.127  12.714  22.656  0.00  0.00    -0.157 NA
ATOM      6  N   UNL d   1     -47.388  13.071  22.741  0.00  0.00    -0.194 N 
ATOM      7  C   UNL d   1     -48.079  15.160  22.404  0.00  0.00     0.137 A 
ATOM      8  C   UNL d   1     -49.273  14.570  22.268  0.00  0.00     0.039 A 
ATOM      9  S   UNL d   1     -48.877  15.305  22.256  0.00  0.00    -0.066 SA
ATOM     10  O   UNL d   1     -46.573  14.240  22.752  0.00  0.00    -0.265 OA
ATOM     11  N   UNL d   1     -47.481  15.732  22.442  0.00  0.00    -0.141 N 
ENDROOT
BRANCH   6  12
ATOM     12  C   UNL d   1     -46.722  12.607  22.901  0.00  0.00     0.086 A 
ATOM     13  C   UNL d   1     -46.729  12.082  23.534  0.00  0.00     0.019 A 
ATOM     14  C   UNL d   1     -46.065  11.621  23.692  0.00  0.00     0.002 A 
ATOM     15  C   UNL d   1     -45.394  11.686  23.216  0.00  0.00     0.000 A 
ATOM     16  C   UNL d   1     -45.389  12.215  22.579  0.00  0.00     0.002 A 
ATOM     17  C   UNL d   1     -46.054  12.675  22.423  0.00  0.00     0.019 A 
ENDBRANCH   6  12
BRANCH   3  18
ATOM     18  C   UNL d   1     -49.529  12.812  22.413  0.00  0.00     0.320 C 
ATOM     19  O   UNL d   1     -49.814  12.628  21.663  0.00  0.00    -0.257 OA
BRANCH  18  20
ATOM     20  O   UNL d   1     -49.982  12.640  23.083  0.00  0.00    -0.270 OA
BRANCH  20  21
ATOM     21  C   UNL d   1     -50.736  12.321  22.999  0.00  0.00     0.126 C 
ATOM     22  C   UNL d   1     -51.064  11.878  23.611  0.00  0.00     0.029 C 
ENDBRANCH  20  21
ENDBRANCH  18  20
ENDBRANCH   3  18
TORSDOF 4
ENDMDL
MODEL 5
REMARK VINA RESULT:      -5.6      1.646      2.372
REMARK  4 active torsions:
REMARK  status: ('A' for Active; 'I' for Inactive)
REMARK    1  A    between atoms: C_10  and  C_3 
REMARK    2  A    between atoms: C_12  and  N_6 
REMARK    3  A    between atoms: O_15  and  C_10 
REMARK    4  A    between atoms: C_18  and  O_15 
ROOT
ATOM      1  C   UNL d   1     -47.391  13.998  22.838  0.00  0.00     0.086 A 
ATOM      2  C   UNL d   1     -47.525  13.200  22.999  0.00  0.00     0.038 A 
ATOM      3  C   UNL d   1     -48.288  12.929  23.154  0.00  0.00     0.165 A 
ATOM      4  C   UNL d   1     -48.027  14.526  22.832  0.00  0.00     0.282 A 
ATOM      5  N   UNL d   1     -48.915  13.457  23.146  0.00  0.00    -0.157 NA
ATOM      6  N   UNL d   1     -48.785  14.255  22.985  0.00  0.00    -0.194 N 
ATOM      7  C   UNL d   1     -46.582  14.097  22.708  0.00  0.00     0.137 A 
ATOM      8  C   UNL d   1     -46.805  12.805  22.970  0.00  0.00     0.039 A 
ATOM      9  S   UNL d   1     -46.214  13.364  22.788  0.00  0.00    -0.066 SA
ATOM     10  O   UNL d   1     -47.896  15.325  22.671  0.00  0.00    -0.265 OA
ATOM     11  N   UNL d   1     -46.205  14.813  22.528  0.00  0.00    -0.141 N 
ENDROOT
BRANCH   6  12
ATOM     12  C   UNL d   1     -49.421  14.784  22.979  0.00  0.00     0.086 A 
ATOM     13  C   UNL d   1     -49.608  15.211  23.656  0.00  0.00     0.019 A 
ATOM     14  C   UNL d   1     -50.242  15.737  23.648  0.00  0.00     0.002 A 
ATOM     15  C   UNL d   1     -50.688  15.834  22.961  0.00  0.00     0.000 A 
ATOM     16  C   UNL d   1     -50.499  15.403  22.281  0.00  0.00     0.002 A 
ATOM     17  C   UNL d   1     -49.865  14.878  22.290  0.00  0.00     0.019 A 
ENDBRANCH   6  12
BRANCH   3  18
ATOM     18  C   UNL d   1     -48.419  12.130  23.315  0.00  0.00     0.320 C 
ATOM     19  O   UNL d   1     -47.857  11.569  23.096  0.00  0.00    -0.257 OA
BRANCH  18  20
ATOM     20  O   UNL d   1     -49.114  11.895  23.695  0.00  0.00    -0.270 OA
BRANCH  20  21
ATOM     21  C   UNL d   1     -49.448  11.162  23.528  0.00  0.00     0.126 C 
ATOM     22  C   UNL d   1     -50.247  11.032  23.675  0.00  0.00     0.029 C 
ENDBRANCH  20  21
ENDBRANCH  18  20
ENDBRANCH   3  18
TORSDOF 4
ENDMDL
MODEL 6
REMARK VINA RESULT:      -5.4      1.291      2.816
REMARK  4 active torsions:
REMARK  status: ('A' for Active; 'I' for Inactive)
REMARK    1  A    between atoms: C_10  and  C_3 
REMARK    2  A    between atoms: C_12  and  N_6 
REMARK    3  A    between atoms: O_15  and  C_10 
REMARK    4  A    between atoms: C_18  and  O_15 
ROOT
ATOM      1  C   UNL d   1     -46.912  13.497  22.748  0.00  0.00     0.086 A 
ATOM      2  C   UNL d   1     -47.220  14.259  22.688  0.00  0.00     0.038 A 
ATOM      3  C   UNL d   1     -48.035  14.382  22.708  0.00  0.00     0.165 A 
ATOM      4  C   UNL d   1     -47.425  12.853  22.829  0.00  0.00     0.282 A 
ATOM      5  N   UNL d   1     -48.540  13.741  22.788  0.00  0.00    -0.157 NA
ATOM      6  N   UNL d   1     -48.235  12.977  22.849  0.00  0.00    -0.194 N 
ATOM      7  C   UNL d   1     -46.089  13.552  22.710  0.00  0.00     0.137 A 
ATOM      8  C   UNL d   1     -46.594  14.787  22.614  0.00  0.00     0.039 A 
ATOM      9  S   UNL d   1     -45.886  14.346  22.627  0.00  0.00    -0.066 SA
ATOM     10  O   UNL d   1     -47.121  12.089  22.889  0.00  0.00    -0.265 OA
ATOM     11  N   UNL d   1     -45.559  12.917  22.749  0.00  0.00    -0.141 N 
ENDROOT
BRANCH   6  12
ATOM     12  C   UNL d   1     -48.749  12.334  22.929  0.00  0.00     0.086 A 
ATOM     13  C   UNL d   1     -49.282  12.154  22.329  0.00  0.00     0.019 A 
ATOM     14  C   UNL d   1     -49.792  11.514  22.411  0.00  0.00     0.002 A 
ATOM     15  C   UNL d   1     -49.769  11.052  23.095  0.00  0.00     0.000 A 
ATOM     16  C   UNL d   1     -49.232  11.234  23.698  0.00  0.00     0.002 A 
ATOM     17  C   UNL d   1     -48.722  11.875  23.614  0.00  0.00     0.019 A 
ENDBRANCH   6  12
BRANCH   3  18
ATOM     18  C   UNL d   1     -48.340  15.146  22.648  0.00  0.00     0.320 C 
ATOM     19  O   UNL d   1     -48.109  15.634  22.026  0.00  0.00    -0.257 OA
BRANCH  18  20
ATOM     20  O   UNL d   1     -48.877  15.421  23.213  0.00  0.00    -0.270 OA
BRANCH  20  21
ATOM     21  C   UNL d   1     -49.490  15.922  22.990  0.00  0.00     0.126 C 
ATOM     22  C   UNL d   1     -50.230  15.849  23.344  0.00  0.00     0.029 C 
ENDBRANCH  20  21
ENDBRANCH  18  20
ENDBRANCH   3  18
TORSDOF 4
ENDMDL
MODEL 7
REMARK VINA RESULT:      -5.1      7.473      9.149
REMARK  4 active torsions:
REMARK  status: ('A' for Active; 'I' for Inactive)
REMARK    1  A    between atoms: C_10  and  C_3 
REMARK    2  A    between atoms: C_12  and  N_6 
REMARK    3  A    between atoms: O_15  and  C_10 
REMARK    4  A    between atoms: C_18  and  O_15 
ROOT
ATOM      1  C   UNL d   1     -39.314  15.477  20.206  0.00  0.00     0.086 A 
ATOM      2  C   UNL d   1     -39.967  15.270  20.666  0.00  0.00     0.038 A 
ATOM      3  C   UNL d   1     -40.673  15.040  20.309  0.00  0.00     0.165 A 
ATOM      4  C   UNL d   1     -39.372  15.452  19.381  0.00  0.00     0.282 A 
ATOM      5  N   UNL d   1     -40.725  15.017  19.491  0.00  0.00    -0.157 NA
ATOM      6  N   UNL d   1     -40.074  15.223  19.027  0.00  0.00    -0.194 N 
ATOM      7  C   UNL d   1     -38.698  15.679  20.716  0.00  0.00     0.137 A 
ATOM      8  C   UNL d   1     -39.759  15.343  21.458  0.00  0.00     0.039 A 
ATOM      9  S   UNL d   1     -38.965  15.599  21.492  0.00  0.00    -0.066 SA
ATOM     10  O   UNL d   1     -38.721  15.659  18.918  0.00  0.00    -0.265 OA
ATOM     11  N   UNL d   1     -37.939  15.922  20.487  0.00  0.00    -0.141 N 
ENDROOT
BRANCH   6  12
ATOM     12  C   UNL d   1     -40.132  15.199  18.203  0.00  0.00     0.086 A 
ATOM     13  C   UNL d   1     -39.898  14.525  17.793  0.00  0.00     0.019 A 
ATOM     14  C   UNL d   1     -39.956  14.502  16.972  0.00  0.00     0.002 A 
ATOM     15  C   UNL d   1     -40.248  15.155  16.561  0.00  0.00     0.000 A 
ATOM     16  C   UNL d   1     -40.482  15.833  16.974  0.00  0.00     0.002 A 
ATOM     17  C   UNL d   1     -40.424  15.854  17.795  0.00  0.00     0.019 A 
ENDBRANCH   6  12
BRANCH   3  18
ATOM     18  C   UNL d   1     -41.323  14.833  20.772  0.00  0.00     0.320 C 
ATOM     19  O   UNL d   1     -41.804  15.420  21.092  0.00  0.00    -0.257 OA
BRANCH  18  20
ATOM     20  O   UNL d   1     -41.491  14.036  20.916  0.00  0.00    -0.270 OA
BRANCH  20  21
ATOM     21  C   UNL d   1     -42.264  13.799  21.066  0.00  0.00     0.126 C 
ATOM     22  C   UNL d   1     -42.415  13.031  21.322  0.00  0.00     0.029 C 
ENDBRANCH  20  21
ENDBRANCH  18  20
ENDBRANCH   3  18
TORSDOF 4
ENDMDL
MODEL 8
REMARK VINA RESULT:      -4.9      8.517      9.669
REMARK  4 active torsions:
REMARK  status: ('A' for Active; 'I' for Inactive)
REMARK    1  A    between atoms: C_10  and  C_3 
REMARK    2  A    between atoms: C_12  and  N_6 
REMARK    3  A    between atoms: O_15  and  C_10 
REMARK    4  A    between atoms: C_18  and  O_15 
ROOT
ATOM      1  C   UNL d   1     -40.015  15.065  19.930  0.00  0.00     0.086 A 
ATOM      2  C   UNL d   1     -39.586  14.790  19.280  0.00  0.00     0.038 A 
ATOM      3  C   UNL d   1     -38.931  14.302  19.390  0.00  0.00     0.165 A 
ATOM      4  C   UNL d   1     -39.783  14.848  20.693  0.00  0.00     0.282 A 
ATOM      5  N   UNL d   1     -38.705  14.091  20.149  0.00  0.00    -0.157 NA
ATOM      6  N   UNL d   1     -39.131  14.364  20.801  0.00  0.00    -0.194 N 
ATOM      7  C   UNL d   1     -40.631  15.535  19.646  0.00  0.00     0.137 A 
ATOM      8  C   UNL d   1     -39.933  15.086  18.596  0.00  0.00     0.039 A 
ATOM      9  S   UNL d   1     -40.587  15.552  18.823  0.00  0.00    -0.066 SA
ATOM     10  O   UNL d   1     -40.209  15.121  21.345  0.00  0.00    -0.265 OA
ATOM     11  N   UNL d   1     -41.198  15.922  20.109  0.00  0.00    -0.141 N 
ENDROOT
BRANCH   6  12
ATOM     12  C   UNL d   1     -38.900  14.147  21.565  0.00  0.00     0.086 A 
ATOM     13  C   UNL d   1     -39.201  13.463  21.908  0.00  0.00     0.019 A 
ATOM     14  C   UNL d   1     -38.969  13.249  22.669  0.00  0.00     0.002 A 
ATOM     15  C   UNL d   1     -38.436  13.721  23.086  0.00  0.00     0.000 A 
ATOM     16  C   UNL d   1     -38.134  14.409  22.739  0.00  0.00     0.002 A 
ATOM     17  C   UNL d   1     -38.367  14.621  21.979  0.00  0.00     0.019 A 
ENDBRANCH   6  12
BRANCH   3  18
ATOM     18  C   UNL d   1     -38.504  14.029  18.739  0.00  0.00     0.320 C 
ATOM     19  O   UNL d   1     -37.944  14.515  18.380  0.00  0.00    -0.257 OA
BRANCH  18  20
ATOM     20  O   UNL d   1     -38.641  13.268  18.447  0.00  0.00    -0.270 OA
BRANCH  20  21
ATOM     21  C   UNL d   1     -38.102  12.922  17.930  0.00  0.00     0.126 C 
ATOM     22  C   UNL d   1     -38.211  12.143  17.685  0.00  0.00     0.029 C 
ENDBRANCH  20  21
ENDBRANCH  18  20
ENDBRANCH   3  18
TORSDOF 4
ENDMDL
MODEL 9
REMARK VINA RESULT:      -4.6      1.643      4.110
REMARK  4 active torsions:
REMARK  status: ('A' for Active; 'I' for Inactive)
REMARK    1  A    between atoms: C_10  and  C_3 
REMARK    2  A    between atoms: C_12  and  N_6 
REMARK    3  A    between atoms: O_15  and  C_10 
REMARK    4  A    between atoms: C_18  and  O_15 
ROOT
ATOM      1  C   UNL d   1     -48.803  12.181  23.234  0.00  0.00     0.086 A 
ATOM      2  C   UNL d   1     -49.413  12.721  23.100  0.00  0.00     0.038 A 
ATOM      3  C   UNL d   1     -49.244  13.481  22.831  0.00  0.00     0.165 A 
ATOM      4  C   UNL d   1     -48.020  12.407  23.097  0.00  0.00     0.282 A 
ATOM      5  N   UNL d   1     -48.466  13.700  22.696  0.00  0.00    -0.157 NA
ATOM      6  N   UNL d   1     -47.854  13.163  22.830  0.00  0.00    -0.194 N 
ATOM      7  C   UNL d   1     -49.142  11.476  23.498  0.00  0.00     0.137 A 
ATOM      8  C   UNL d   1     -50.127  12.355  23.279  0.00  0.00     0.039 A 
ATOM      9  S   UNL d   1     -49.960  11.576  23.528  0.00  0.00    -0.066 SA
ATOM     10  O   UNL d   1     -47.408  11.870  23.230  0.00  0.00    -0.265 OA
ATOM     11  N   UNL d   1     -48.730  10.786  23.698  0.00  0.00    -0.141 N 
ENDROOT
BRANCH   6  12
ATOM     12  C   UNL d   1     -47.070  13.390  22.692  0.00  0.00     0.086 A 
ATOM     13  C   UNL d   1     -46.743  14.017  23.112  0.00  0.00     0.019 A 
ATOM     14  C   UNL d   1     -45.963  14.241  22.974  0.00  0.00     0.002 A 
ATOM     15  C   UNL d   1     -45.510  13.836  22.416  0.00  0.00     0.000 A 
ATOM     16  C   UNL d   1     -45.840  13.205  21.995  0.00  0.00     0.002 A 
ATOM     17  C   UNL d   1     -46.620  12.982  22.134  0.00  0.00     0.019 A 
ENDBRANCH   6  12
BRANCH   3  18
ATOM     18  C   UNL d   1     -49.856  14.018  22.698  0.00  0.00     0.320 C 
ATOM     19  O   UNL d   1     -50.247  14.026  21.973  0.00  0.00    -0.257 OA
BRANCH  18  20
ATOM     20  O   UNL d   1     -50.076  14.548  23.293  0.00  0.00    -0.270 OA
BRANCH  20  21
ATOM     21  C   UNL d   1     -50.526  15.211  23.109  0.00  0.00     0.126 C 
ATOM     22  C   UNL d   1     -50.395  15.920  23.508  0.00  0.00     0.029 C 
ENDBRANCH  20  21
ENDBRANCH  18  20
ENDBRANCH   3  18
TORSDOF 4
ENDMDL
