MODEL 1
REMARK VINA RESULT:      -5.5      0.000      0.000
REMARK  6 active torsions:
REMARK  status: ('A' for Active; 'I' for Inactive)
REMARK       I    between atoms: C_2  and  N_1 
REMARK    1  A    between atoms: C_3  and  C_2 
REMARK    2  A    between atoms: C_12  and  C_4 
REMARK       I    between atoms: C_5  and  N_8 
REMARK    3  A    between atoms: C_6  and  C_5 
REMARK       I    between atoms: N_9  and  C_6 
REMARK    4  A    between atoms: N_8  and  C_12 
REMARK    5  A    between atoms: C_19  and  N_9 
REMARK    6  A    between atoms: C_21  and  C_19 
ROOT
ATOM      1  C   UNL d   1     -46.420  12.378  23.280  0.00  0.00     0.337 C 
ATOM      2  N   UNL d   1     -47.124  12.267  22.871  0.00  0.00    -0.199 NA
ATOM      3  O   UNL d   1     -46.287  13.086  23.698  0.00  0.00    -0.260 OA
ENDROOT
BRANCH   2   4
ATOM      4  C   UNL d   1     -47.699  12.858  22.875  0.00  0.00     0.146 C 
BRANCH   4   5
ATOM      5  C   UNL d   1     -48.474  12.683  22.620  0.00  0.00     0.190 A 
ATOM      6  N   UNL d   1     -49.114  13.201  22.665  0.00  0.00    -0.250 N 
ATOM      7  C   UNL d   1     -49.182  13.980  22.948  0.00  0.00     0.272 C 
ATOM      8  C   UNL d   1     -49.768  12.801  22.352  0.00  0.00     0.112 A 
ATOM      9  O   UNL d   1     -48.518  14.366  23.258  0.00  0.00    -0.266 OA
ATOM     10  C   UNL d   1     -49.529  12.048  22.120  0.00  0.00     0.144 A 
ATOM     11  O   UNL d   1     -48.717  11.983  22.292  0.00  0.00    -0.285 OA
BRANCH   7  12
ATOM     12  C   UNL d   1     -49.908  14.370  22.922  0.00  0.00     0.086 A 
ATOM     13  S   UNL d   1     -50.379  14.614  22.281  0.00  0.00    -0.082 SA
ATOM     14  C   UNL d   1     -51.062  14.985  22.597  0.00  0.00     0.036 A 
ATOM     15  C   UNL d   1     -51.000  14.962  23.421  0.00  0.00     0.008 A 
ATOM     16  C   UNL d   1     -50.295  14.586  23.627  0.00  0.00     0.012 A 
ENDBRANCH   7  12
ENDBRANCH   4   5
ENDBRANCH   2   4
BRANCH   1  17
ATOM     17  C   UNL d   1     -45.854  11.796  23.275  0.00  0.00     0.337 C 
ATOM     18  N   UNL d   1     -45.156  11.890  22.861  0.00  0.00    -0.202 NA
ATOM     19  O   UNL d   1     -45.985  11.089  23.698  0.00  0.00    -0.260 OA
BRANCH  18  20
ATOM     20  C   UNL d   1     -45.021  12.594  22.438  0.00  0.00     0.102 C 
BRANCH  20  21
ATOM     21  C   UNL d   1     -44.295  12.694  22.036  0.00  0.00     0.019 A 
ATOM     22  C   UNL d   1     -44.170  13.333  21.536  0.00  0.00     0.004 A 
ATOM     23  C   UNL d   1     -43.448  13.418  21.146  0.00  0.00     0.030 A 
ATOM     24  C   UNL d   1     -42.847  12.873  21.249  0.00  0.00     0.140 A 
ATOM     25  C   UNL d   1     -42.964  12.231  21.747  0.00  0.00     0.030 A 
ATOM     26  F   UNL d   1     -42.122  12.967  20.851  0.00  0.00    -0.204 F 
ATOM     27  C   UNL d   1     -43.681  12.138  22.141  0.00  0.00     0.004 A 
ENDBRANCH  20  21
ENDBRANCH  18  20
ENDBRANCH   1  17
TORSDOF 6
ENDMDL
MODEL 2
REMARK VINA RESULT:      -5.5      3.991      7.227
REMARK  6 active torsions:
REMARK  status: ('A' for Active; 'I' for Inactive)
REMARK       I    between atoms: C_2  and  N_1 
REMARK    1  A    between atoms: C_3  and  C_2 
REMARK    2  A    between atoms: C_12  and  C_4 
REMARK       I    between atoms: C_5  and  N_8 
REMARK    3  A    between atoms: C_6  and  C_5 
REMARK       I    between atoms: N_9  and  C_6 
REMARK    4  A    between atoms: N_8  and  C_12 
REMARK    5  A    between atoms: C_19  and  N_9 
REMARK    6  A    between atoms: C_21  and  C_19 
ROOT
ATOM      1  C   UNL d   1     -43.110  12.707  21.255  0.00  0.00     0.337 C 
ATOM      2  N   UNL d   1     -42.432  13.163  21.348  0.00  0.00    -0.199 NA
ATOM      3  O   UNL d   1     -43.472  12.644  20.508  0.00  0.00    -0.260 OA
ENDROOT
BRANCH   2   4
ATOM      4  C   UNL d   1     -42.112  13.559  20.698  0.00  0.00     0.146 C 
BRANCH   4   5
ATOM      5  C   UNL d   1     -41.446  14.050  20.802  0.00  0.00     0.190 A 
ATOM      6  N   UNL d   1     -40.957  14.316  20.193  0.00  0.00    -0.250 N 
ATOM      7  C   UNL d   1     -40.972  14.193  19.371  0.00  0.00     0.272 C 
ATOM      8  C   UNL d   1     -40.370  14.784  20.545  0.00  0.00     0.112 A 
ATOM      9  O   UNL d   1     -41.565  13.722  19.035  0.00  0.00    -0.266 OA
ATOM     10  C   UNL d   1     -40.501  14.802  21.358  0.00  0.00     0.144 A 
ATOM     11  O   UNL d   1     -41.177  14.339  21.510  0.00  0.00    -0.285 OA
BRANCH   7  12
ATOM     12  C   UNL d   1     -40.399  14.537  18.889  0.00  0.00     0.086 A 
ATOM     13  S   UNL d   1     -40.280  15.326  18.654  0.00  0.00    -0.082 SA
ATOM     14  C   UNL d   1     -39.603  15.341  18.157  0.00  0.00     0.036 A 
ATOM     15  C   UNL d   1     -39.321  14.567  18.096  0.00  0.00     0.008 A 
ATOM     16  C   UNL d   1     -39.804  14.069  18.542  0.00  0.00     0.012 A 
ENDBRANCH   7  12
ENDBRANCH   4   5
ENDBRANCH   2   4
BRANCH   1  17
ATOM     17  C   UNL d   1     -43.425  12.317  21.894  0.00  0.00     0.337 C 
ATOM     18  N   UNL d   1     -44.170  12.502  22.174  0.00  0.00    -0.202 NA
ATOM     19  O   UNL d   1     -42.984  11.719  22.272  0.00  0.00    -0.260 OA
BRANCH  18  20
ATOM     20  C   UNL d   1     -44.614  13.098  21.799  0.00  0.00     0.102 C 
BRANCH  20  21
ATOM     21  C   UNL d   1     -45.354  13.318  22.122  0.00  0.00     0.019 A 
ATOM     22  C   UNL d   1     -45.997  12.808  22.099  0.00  0.00     0.004 A 
ATOM     23  C   UNL d   1     -46.720  13.040  22.422  0.00  0.00     0.030 A 
ATOM     24  C   UNL d   1     -46.810  13.775  22.767  0.00  0.00     0.140 A 
ATOM     25  C   UNL d   1     -46.172  14.291  22.794  0.00  0.00     0.030 A 
ATOM     26  F   UNL d   1     -47.543  14.000  23.090  0.00  0.00    -0.204 F 
ATOM     27  C   UNL d   1     -45.446  14.069  22.475  0.00  0.00     0.004 A 
ENDBRANCH  20  21
ENDBRANCH  18  20
ENDBRANCH   1  17
TORSDOF 6
ENDMDL
MODEL 3
REMARK VINA RESULT:      -5.2      1.891      2.845
REMARK  6 active torsions:
REMARK  status: ('A' for Active; 'I' for Inactive)
REMARK       I    between atoms: C_2  and  N_1 
REMARK    1  A    between atoms: C_3  and  C_2 
REMARK    2  A    between atoms: C_12  and  C_4 
REMARK       I    between atoms: C_5  and  N_8 
REMARK    3  A    between atoms: C_6  and  C_5 
REMARK       I    between atoms: N_9  and  C_6 
REMARK    4  A    between atoms: N_8  and  C_12 
REMARK    5  A    between atoms: C_19  and  N_9 
REMARK    6  A    between atoms: C_21  and  C_19 
ROOT
ATOM      1  C   UNL d   1     -43.991  12.658  21.711  0.00  0.00     0.337 C 
ATOM      2  N   UNL d   1     -44.514  12.691  22.344  0.00  0.00    -0.199 NA
ATOM      3  O   UNL d   1     -44.232  12.911  20.955  0.00  0.00    -0.260 OA
ENDROOT
BRANCH   2   4
ATOM      4  C   UNL d   1     -45.280  12.977  22.228  0.00  0.00     0.146 C 
BRANCH   4   5
ATOM      5  C   UNL d   1     -45.889  12.748  22.750  0.00  0.00     0.190 A 
ATOM      6  N   UNL d   1     -46.636  13.095  22.784  0.00  0.00    -0.250 N 
ATOM      7  C   UNL d   1     -46.983  13.717  22.355  0.00  0.00     0.272 C 
ATOM      8  C   UNL d   1     -47.058  12.697  23.377  0.00  0.00     0.112 A 
ATOM      9  O   UNL d   1     -46.547  14.105  21.767  0.00  0.00    -0.266 OA
ATOM     10  C   UNL d   1     -46.573  12.115  23.698  0.00  0.00     0.144 A 
ATOM     11  O   UNL d   1     -45.843  12.154  23.300  0.00  0.00    -0.285 OA
BRANCH   7  12
ATOM     12  C   UNL d   1     -47.757  13.951  22.513  0.00  0.00     0.086 A 
ATOM     13  S   UNL d   1     -48.483  13.562  22.395  0.00  0.00    -0.082 SA
ATOM     14  C   UNL d   1     -49.090  14.076  22.663  0.00  0.00     0.036 A 
ATOM     15  C   UNL d   1     -48.729  14.766  22.940  0.00  0.00     0.008 A 
ATOM     16  C   UNL d   1     -47.912  14.695  22.850  0.00  0.00     0.012 A 
ENDBRANCH   7  12
ENDBRANCH   4   5
ENDBRANCH   2   4
BRANCH   1  17
ATOM     17  C   UNL d   1     -43.237  12.377  21.825  0.00  0.00     0.337 C 
ATOM     18  N   UNL d   1     -42.586  12.813  21.595  0.00  0.00    -0.202 NA
ATOM     19  O   UNL d   1     -43.124  11.630  22.181  0.00  0.00    -0.260 OA
BRANCH  18  20
ATOM     20  C   UNL d   1     -42.695  13.557  21.240  0.00  0.00     0.102 C 
BRANCH  20  21
ATOM     21  C   UNL d   1     -42.024  14.019  21.050  0.00  0.00     0.019 A 
ATOM     22  C   UNL d   1     -41.328  13.672  20.787  0.00  0.00     0.004 A 
ATOM     23  C   UNL d   1     -40.675  14.141  20.604  0.00  0.00     0.030 A 
ATOM     24  C   UNL d   1     -40.707  14.954  20.679  0.00  0.00     0.140 A 
ATOM     25  C   UNL d   1     -41.399  15.310  20.941  0.00  0.00     0.030 A 
ATOM     26  F   UNL d   1     -40.043  15.420  20.492  0.00  0.00    -0.204 F 
ATOM     27  C   UNL d   1     -42.056  14.850  21.127  0.00  0.00     0.004 A 
ENDBRANCH  20  21
ENDBRANCH  18  20
ENDBRANCH   1  17
TORSDOF 6
ENDMDL
MODEL 4
REMARK VINA RESULT:      -4.6      1.751      2.418
REMARK  6 active torsions:
REMARK  status: ('A' for Active; 'I' for Inactive)
REMARK       I    between atoms: C_2  and  N_1 
REMARK    1  A    between atoms: C_3  and  C_2 
REMARK    2  A    between atoms: C_12  and  C_4 
REMARK       I    between atoms: C_5  and  N_8 
REMARK    3  A    between atoms: C_6  and  C_5 
REMARK       I    between atoms: N_9  and  C_6 
REMARK    4  A    between atoms: N_8  and  C_12 
REMARK    5  A    between atoms: C_19  and  N_9 
REMARK    6  A    between atoms: C_21  and  C_19 
ROOT
ATOM      1  C   UNL d   1     -45.924  13.394  22.870  0.00  0.00     0.337 C 
ATOM      2  N   UNL d   1     -46.587  13.746  22.536  0.00  0.00    -0.199 NA
ATOM      3  O   UNL d   1     -45.864  13.317  23.698  0.00  0.00    -0.260 OA
ENDROOT
BRANCH   2   4
ATOM      4  C   UNL d   1     -47.193  14.024  23.021  0.00  0.00     0.146 C 
BRANCH   4   5
ATOM      5  C   UNL d   1     -47.824  14.456  22.687  0.00  0.00     0.190 A 
ATOM      6  N   UNL d   1     -48.610  14.208  22.673  0.00  0.00    -0.250 N 
ATOM      7  C   UNL d   1     -48.984  13.522  22.956  0.00  0.00     0.272 C 
ATOM      8  C   UNL d   1     -49.042  14.804  22.291  0.00  0.00     0.112 A 
ATOM      9  O   UNL d   1     -48.538  12.936  23.335  0.00  0.00    -0.266 OA
ATOM     10  C   UNL d   1     -48.524  15.407  22.076  0.00  0.00     0.144 A 
ATOM     11  O   UNL d   1     -47.763  15.181  22.328  0.00  0.00    -0.285 OA
BRANCH   7  12
ATOM     12  C   UNL d   1     -49.797  13.422  22.862  0.00  0.00     0.086 A 
ATOM     13  S   UNL d   1     -50.271  13.392  22.179  0.00  0.00    -0.082 SA
ATOM     14  C   UNL d   1     -51.064  13.279  22.429  0.00  0.00     0.036 A 
ATOM     15  C   UNL d   1     -51.063  13.241  23.254  0.00  0.00     0.008 A 
ATOM     16  C   UNL d   1     -50.290  13.328  23.526  0.00  0.00     0.012 A 
ENDBRANCH   7  12
ENDBRANCH   4   5
ENDBRANCH   2   4
BRANCH   1  17
ATOM     17  C   UNL d   1     -45.327  13.120  22.393  0.00  0.00     0.337 C 
ATOM     18  N   UNL d   1     -44.951  12.413  22.552  0.00  0.00    -0.202 NA
ATOM     19  O   UNL d   1     -45.093  13.566  21.728  0.00  0.00    -0.260 OA
BRANCH  18  20
ATOM     20  C   UNL d   1     -45.182  11.964  23.214  0.00  0.00     0.102 C 
BRANCH  20  21
ATOM     21  C   UNL d   1     -44.840  11.211  23.334  0.00  0.00     0.019 A 
ATOM     22  C   UNL d   1     -44.029  11.097  23.277  0.00  0.00     0.004 A 
ATOM     23  C   UNL d   1     -43.708  10.347  23.398  0.00  0.00     0.030 A 
ATOM     24  C   UNL d   1     -44.185   9.708  23.577  0.00  0.00     0.140 A 
ATOM     25  C   UNL d   1     -44.997   9.813  23.636  0.00  0.00     0.030 A 
ATOM     26  F   UNL d   1     -43.852   8.955  23.698  0.00  0.00    -0.204 F 
ATOM     27  C   UNL d   1     -45.328  10.558  23.517  0.00  0.00     0.004 A 
ENDBRANCH  20  21
ENDBRANCH  18  20
ENDBRANCH   1  17
TORSDOF 6
ENDMDL
MODEL 5
REMARK VINA RESULT:      -3.7      5.892      9.009
REMARK  6 active torsions:
REMARK  status: ('A' for Active; 'I' for Inactive)
REMARK       I    between atoms: C_2  and  N_1 
REMARK    1  A    between atoms: C_3  and  C_2 
REMARK    2  A    between atoms: C_12  and  C_4 
REMARK       I    between atoms: C_5  and  N_8 
REMARK    3  A    between atoms: C_6  and  C_5 
REMARK       I    between atoms: N_9  and  C_6 
REMARK    4  A    between atoms: N_8  and  C_12 
REMARK    5  A    between atoms: C_19  and  N_9 
REMARK    6  A    between atoms: C_21  and  C_19 
ROOT
ATOM      1  C   UNL d   1     -40.587  14.684  20.149  0.00  0.00     0.337 C 
ATOM      2  N   UNL d   1     -40.633  15.020  19.401  0.00  0.00    -0.199 NA
ATOM      3  O   UNL d   1     -40.087  14.031  20.284  0.00  0.00    -0.260 OA
ENDROOT
BRANCH   2   4
ATOM      4  C   UNL d   1     -40.182  14.710  18.783  0.00  0.00     0.146 C 
BRANCH   4   5
ATOM      5  C   UNL d   1     -40.324  14.964  18.001  0.00  0.00     0.190 A 
ATOM      6  N   UNL d   1     -39.794  14.879  17.375  0.00  0.00    -0.250 N 
ATOM      7  C   UNL d   1     -39.032  14.549  17.328  0.00  0.00     0.272 C 
ATOM      8  C   UNL d   1     -40.160  15.206  16.706  0.00  0.00     0.112 A 
ATOM      9  O   UNL d   1     -38.681  14.226  18.006  0.00  0.00    -0.266 OA
ATOM     10  C   UNL d   1     -40.902  15.486  16.924  0.00  0.00     0.144 A 
ATOM     11  O   UNL d   1     -40.997  15.330  17.737  0.00  0.00    -0.285 OA
BRANCH   7  12
ATOM     12  C   UNL d   1     -38.625  14.541  16.612  0.00  0.00     0.086 A 
ATOM     13  S   UNL d   1     -38.277  15.154  16.171  0.00  0.00    -0.082 SA
ATOM     14  C   UNL d   1     -37.940  14.809  15.484  0.00  0.00     0.036 A 
ATOM     15  C   UNL d   1     -38.086  13.996  15.515  0.00  0.00     0.008 A 
ATOM     16  C   UNL d   1     -38.505  13.825  16.204  0.00  0.00     0.012 A 
ENDBRANCH   7  12
ENDBRANCH   4   5
ENDBRANCH   2   4
BRANCH   1  17
ATOM     17  C   UNL d   1     -41.031  14.989  20.757  0.00  0.00     0.337 C 
ATOM     18  N   UNL d   1     -41.647  14.564  21.083  0.00  0.00    -0.202 NA
ATOM     19  O   UNL d   1     -40.856  15.748  21.055  0.00  0.00    -0.260 OA
BRANCH  18  20
ATOM     20  C   UNL d   1     -41.825  13.806  20.788  0.00  0.00     0.102 C 
BRANCH  20  21
ATOM     21  C   UNL d   1     -42.450  13.371  21.134  0.00  0.00     0.019 A 
ATOM     22  C   UNL d   1     -43.225  13.641  21.103  0.00  0.00     0.004 A 
ATOM     23  C   UNL d   1     -43.831  13.201  21.449  0.00  0.00     0.030 A 
ATOM     24  C   UNL d   1     -43.673  12.493  21.827  0.00  0.00     0.140 A 
ATOM     25  C   UNL d   1     -42.901  12.216  21.862  0.00  0.00     0.030 A 
ATOM     26  F   UNL d   1     -44.291  12.056  22.173  0.00  0.00    -0.204 F 
ATOM     27  C   UNL d   1     -42.290  12.648  21.520  0.00  0.00     0.004 A 
ENDBRANCH  20  21
ENDBRANCH  18  20
ENDBRANCH   1  17
TORSDOF 6
ENDMDL
MODEL 6
REMARK VINA RESULT:      -2.8      3.559      5.322
REMARK  6 active torsions:
REMARK  status: ('A' for Active; 'I' for Inactive)
REMARK       I    between atoms: C_2  and  N_1 
REMARK    1  A    between atoms: C_3  and  C_2 
REMARK    2  A    between atoms: C_12  and  C_4 
REMARK       I    between atoms: C_5  and  N_8 
REMARK    3  A    between atoms: C_6  and  C_5 
REMARK       I    between atoms: N_9  and  C_6 
REMARK    4  A    between atoms: N_8  and  C_12 
REMARK    5  A    between atoms: C_19  and  N_9 
REMARK    6  A    between atoms: C_21  and  C_19 
ROOT
ATOM      1  C   UNL d   1     -41.641  14.106  21.065  0.00  0.00     0.337 C 
ATOM      2  N   UNL d   1     -42.068  13.425  21.239  0.00  0.00    -0.199 NA
ATOM      3  O   UNL d   1     -42.029  14.842  21.021  0.00  0.00    -0.260 OA
ENDROOT
BRANCH   2   4
ATOM      4  C   UNL d   1     -42.881  13.472  21.370  0.00  0.00     0.146 C 
BRANCH   4   5
ATOM      5  C   UNL d   1     -43.280  12.829  21.722  0.00  0.00     0.190 A 
ATOM      6  N   UNL d   1     -44.067  12.841  21.969  0.00  0.00    -0.250 N 
ATOM      7  C   UNL d   1     -44.649  13.434  21.949  0.00  0.00     0.272 C 
ATOM      8  C   UNL d   1     -44.230  12.092  22.282  0.00  0.00     0.112 A 
ATOM      9  O   UNL d   1     -44.469  14.179  21.632  0.00  0.00    -0.266 OA
ATOM     10  C   UNL d   1     -43.551  11.630  22.226  0.00  0.00     0.144 A 
ATOM     11  O   UNL d   1     -42.961  12.100  21.874  0.00  0.00    -0.285 OA
BRANCH   7  12
ATOM     12  C   UNL d   1     -45.405  13.285  22.242  0.00  0.00     0.086 A 
ATOM     13  S   UNL d   1     -45.989  12.742  22.006  0.00  0.00    -0.082 SA
ATOM     14  C   UNL d   1     -46.649  12.846  22.514  0.00  0.00     0.036 A 
ATOM     15  C   UNL d   1     -46.459  13.446  23.050  0.00  0.00     0.008 A 
ATOM     16  C   UNL d   1     -45.699  13.720  22.889  0.00  0.00     0.012 A 
ENDBRANCH   7  12
ENDBRANCH   4   5
ENDBRANCH   2   4
BRANCH   1  17
ATOM     17  C   UNL d   1     -40.841  14.059  20.936  0.00  0.00     0.337 C 
ATOM     18  N   UNL d   1     -40.522  14.232  20.204  0.00  0.00    -0.202 NA
ATOM     19  O   UNL d   1     -40.334  13.832  21.559  0.00  0.00    -0.260 OA
BRANCH  18  20
ATOM     20  C   UNL d   1     -41.023  14.459  19.580  0.00  0.00     0.102 C 
BRANCH  20  21
ATOM     21  C   UNL d   1     -40.689  14.645  18.837  0.00  0.00     0.019 A 
ATOM     22  C   UNL d   1     -40.487  14.057  18.301  0.00  0.00     0.004 A 
ATOM     23  C   UNL d   1     -40.159  14.257  17.571  0.00  0.00     0.030 A 
ATOM     24  C   UNL d   1     -40.028  15.037  17.368  0.00  0.00     0.140 A 
ATOM     25  C   UNL d   1     -40.227  15.632  17.898  0.00  0.00     0.030 A 
ATOM     26  F   UNL d   1     -39.696  15.229  16.630  0.00  0.00    -0.204 F 
ATOM     27  C   UNL d   1     -40.556  15.443  18.629  0.00  0.00     0.004 A 
ENDBRANCH  20  21
ENDBRANCH  18  20
ENDBRANCH   1  17
TORSDOF 6
ENDMDL
MODEL 7
REMARK VINA RESULT:      -2.7      7.315      9.213
REMARK  6 active torsions:
REMARK  status: ('A' for Active; 'I' for Inactive)
REMARK       I    between atoms: C_2  and  N_1 
REMARK    1  A    between atoms: C_3  and  C_2 
REMARK    2  A    between atoms: C_12  and  C_4 
REMARK       I    between atoms: C_5  and  N_8 
REMARK    3  A    between atoms: C_6  and  C_5 
REMARK       I    between atoms: N_9  and  C_6 
REMARK    4  A    between atoms: N_8  and  C_12 
REMARK    5  A    between atoms: C_19  and  N_9 
REMARK    6  A    between atoms: C_21  and  C_19 
ROOT
ATOM      1  C   UNL d   1     -40.929  14.964  19.849  0.00  0.00     0.337 C 
ATOM      2  N   UNL d   1     -40.943  14.873  19.032  0.00  0.00    -0.199 NA
ATOM      3  O   UNL d   1     -40.727  15.699  20.184  0.00  0.00    -0.260 OA
ENDROOT
BRANCH   2   4
ATOM      4  C   UNL d   1     -40.757  15.512  18.545  0.00  0.00     0.146 C 
BRANCH   4   5
ATOM      5  C   UNL d   1     -40.827  15.434  17.717  0.00  0.00     0.190 A 
ATOM      6  N   UNL d   1     -40.192  15.401  17.191  0.00  0.00    -0.250 N 
ATOM      7  C   UNL d   1     -39.369  15.431  17.307  0.00  0.00     0.272 C 
ATOM      8  C   UNL d   1     -40.515  15.323  16.432  0.00  0.00     0.112 A 
ATOM      9  O   UNL d   1     -39.063  15.508  18.073  0.00  0.00    -0.266 OA
ATOM     10  C   UNL d   1     -41.336  15.310  16.496  0.00  0.00     0.144 A 
ATOM     11  O   UNL d   1     -41.522  15.380  17.304  0.00  0.00    -0.285 OA
BRANCH   7  12
ATOM     12  C   UNL d   1     -38.857  15.384  16.663  0.00  0.00     0.086 A 
ATOM     13  S   UNL d   1     -38.695  15.921  16.049  0.00  0.00    -0.082 SA
ATOM     14  C   UNL d   1     -38.120  15.567  15.551  0.00  0.00     0.036 A 
ATOM     15  C   UNL d   1     -37.941  14.824  15.865  0.00  0.00     0.008 A 
ATOM     16  C   UNL d   1     -38.389  14.705  16.546  0.00  0.00     0.012 A 
ENDBRANCH   7  12
ENDBRANCH   4   5
ENDBRANCH   2   4
BRANCH   1  17
ATOM     17  C   UNL d   1     -41.112  14.335  20.329  0.00  0.00     0.337 C 
ATOM     18  N   UNL d   1     -40.710  14.207  21.028  0.00  0.00    -0.202 NA
ATOM     19  O   UNL d   1     -41.721  13.809  20.106  0.00  0.00    -0.260 OA
BRANCH  18  20
ATOM     20  C   UNL d   1     -40.102  14.728  21.253  0.00  0.00     0.102 C 
BRANCH  20  21
ATOM     21  C   UNL d   1     -39.554  14.487  21.837  0.00  0.00     0.019 A 
ATOM     22  C   UNL d   1     -38.863  14.908  21.972  0.00  0.00     0.004 A 
ATOM     23  C   UNL d   1     -38.332  14.657  22.552  0.00  0.00     0.030 A 
ATOM     24  C   UNL d   1     -38.482  13.990  22.999  0.00  0.00     0.140 A 
ATOM     25  C   UNL d   1     -39.171  13.563  22.870  0.00  0.00     0.030 A 
ATOM     26  F   UNL d   1     -37.941  13.745  23.582  0.00  0.00    -0.204 F 
ATOM     27  C   UNL d   1     -39.707  13.805  22.294  0.00  0.00     0.004 A 
ENDBRANCH  20  21
ENDBRANCH  18  20
ENDBRANCH   1  17
TORSDOF 6
ENDMDL
