MODEL 1
REMARK VINA RESULT:      54.4      0.000      0.000
REMARK  5 active torsions:
REMARK  status: ('A' for Active; 'I' for Inactive)
REMARK    1  A    between atoms: C_5  and  C_1 
REMARK    2  A    between atoms: N_7  and  C_5 
REMARK    3  A    between atoms: C_10  and  C_5 
REMARK    4  A    between atoms: C_16  and  C_19 
REMARK    5  A    between atoms: C_20  and  C_16 
ROOT
ATOM      1  C   UNL d   1      45.859 -18.220  43.358  0.00  0.00     0.085 C 
ENDROOT
BRANCH   1   2
ATOM      2  C   UNL d   1      45.697 -18.246  42.528  0.00  0.00     0.059 A 
ATOM      3  C   UNL d   1      44.991 -17.916  42.222  0.00  0.00     0.214 A 
ATOM      4  C   UNL d   1      44.848 -17.951  41.404  0.00  0.00     0.121 A 
ATOM      5  O   UNL d   1      44.445 -17.562  42.716  0.00  0.00    -0.285 OA
ATOM      6  N   UNL d   1      44.159 -17.630  41.098  0.00  0.00    -0.241 NA
ATOM      7  C   UNL d   1      45.405 -18.311  40.900  0.00  0.00     0.032 A 
ATOM      8  C   UNL d   1      44.028 -17.671  40.271  0.00  0.00     0.099 A 
ATOM      9  C   UNL d   1      44.563 -18.018  39.787  0.00  0.00     0.021 A 
ATOM     10  C   UNL d   1      45.267 -18.347  40.095  0.00  0.00     0.004 A 
ATOM     11  C   UNL d   1      46.098 -18.633  41.219  0.00  0.00     0.059 A 
ATOM     12  C   UNL d   1      46.232 -18.593  42.043  0.00  0.00     0.016 A 
ATOM     13 CL   UNL d   1      46.647 -18.989  40.723  0.00  0.00    -0.082 Cl
ENDBRANCH   1   2
BRANCH   1  14
ATOM     14  N   UNL d   1      45.861 -17.497  43.757  0.00  0.00    -0.302 N 
ATOM     15  C   UNL d   1      46.227 -17.422  44.499  0.00  0.00     0.080 A 
ATOM     16  C   UNL d   1      46.230 -16.699  44.898  0.00  0.00     0.019 A 
ATOM     17  C   UNL d   1      45.866 -16.045  44.559  0.00  0.00     0.003 A 
ATOM     18  C   UNL d   1      45.500 -16.114  43.821  0.00  0.00     0.019 A 
ATOM     19  C   UNL d   1      45.497 -16.829  43.426  0.00  0.00     0.080 A 
BRANCH  17  20
ATOM     20  C   UNL d   1      45.868 -15.330  44.953  0.00  0.00     0.000 C 
BRANCH  20  21
ATOM     21  C   UNL d   1      45.695 -14.644  44.556  0.00  0.00     0.000 A 
ATOM     22  C   UNL d   1      46.299 -14.151  44.300  0.00  0.00     0.000 A 
ATOM     23  C   UNL d   1      46.129 -13.459  43.899  0.00  0.00     0.000 A 
ATOM     24  C   UNL d   1      45.342 -13.257  43.751  0.00  0.00     0.000 A 
ATOM     25  C   UNL d   1      44.735 -13.746  44.004  0.00  0.00     0.000 A 
ATOM     26  C   UNL d   1      44.911 -14.450  44.413  0.00  0.00     0.000 A 
ENDBRANCH  20  21
ENDBRANCH  17  20
ENDBRANCH   1  14
BRANCH   1  27
ATOM     27  C   UNL d   1      46.018 -18.936  43.778  0.00  0.00     0.098 A 
ATOM     28  N   UNL d   1      46.486 -19.523  43.416  0.00  0.00    -0.243 NA
ATOM     29  C   UNL d   1      46.642 -20.218  43.821  0.00  0.00     0.099 A 
ATOM     30  C   UNL d   1      46.335 -20.327  44.575  0.00  0.00     0.021 A 
ATOM     31  C   UNL d   1      45.870 -19.748  44.940  0.00  0.00     0.003 A 
ATOM     32  C   UNL d   1      45.714 -19.053  44.536  0.00  0.00     0.021 A 
ENDBRANCH   1  27
TORSDOF 5
ENDMDL
