MODEL 1
REMARK VINA RESULT:      25.5      0.000      0.000
REMARK  3 active torsions:
REMARK  status: ('A' for Active; 'I' for Inactive)
REMARK       I    between atoms: C_2  and  N_1 
REMARK    1  A    between atoms: C_3  and  C_2 
REMARK    2  A    between atoms: S_5  and  C_3 
REMARK    3  A    between atoms: C_7  and  S_5 
ROOT
ATOM      1  C   UNL d   1     -56.067 -99.475 -43.849  0.00  0.00     0.125 C 
ENDROOT
BRANCH   1   2
ATOM      2  C   UNL d   1     -55.546 -99.734 -44.433  0.00  0.00     0.259 C 
ATOM      3  N   UNL d   1     -55.384-100.546 -44.518  0.00  0.00    -0.268 N 
ATOM      4  C   UNL d   1     -54.865-100.814 -45.099  0.00  0.00     0.110 A 
ATOM      5  C   UNL d   1     -55.751-101.085 -44.011  0.00  0.00     0.110 A 
ATOM      6  C   UNL d   1     -54.711-101.622 -45.174  0.00  0.00     0.142 A 
ATOM      7  O   UNL d   1     -55.078-102.160 -44.668  0.00  0.00    -0.300 OA
ATOM      8  C   UNL d   1     -55.597-101.891 -44.087  0.00  0.00     0.142 A 
ATOM      9  O   UNL d   1     -55.179 -99.191 -44.941  0.00  0.00    -0.267 OA
ENDBRANCH   1   2
BRANCH   1  10
ATOM     10  S   UNL d   1     -56.461 -98.765 -43.953  0.00  0.00    -0.095 SA
BRANCH  10  11
ATOM     11  C   UNL d   1     -57.277 -98.763 -44.075  0.00  0.00     0.029 A 
ATOM     12  C   UNL d   1     -57.579 -98.765 -44.843  0.00  0.00     0.006 A 
ATOM     13  C   UNL d   1     -58.394 -98.762 -44.965  0.00  0.00     0.001 A 
ATOM     14  C   UNL d   1     -58.908 -98.759 -44.319  0.00  0.00     0.000 A 
ATOM     15  C   UNL d   1     -58.606 -98.757 -43.552  0.00  0.00     0.001 A 
ATOM     16  C   UNL d   1     -59.722 -98.756 -44.455  0.00  0.00     0.000 C 
ATOM     17  C   UNL d   1     -57.790 -98.759 -43.430  0.00  0.00     0.006 A 
ENDBRANCH  10  11
ENDBRANCH   1  10
TORSDOF 3
ENDMDL
