MODEL 1
REMARK VINA RESULT:       6.0      0.000      0.000
REMARK  0 active torsions:
REMARK  status: ('A' for Active; 'I' for Inactive)
ROOT
ATOM      1  C   UNL d   1     -54.761-100.140 -35.966  0.00  0.00     0.311 A 
ATOM      2  N   UNL d   1     -54.778-100.681 -35.336  0.00  0.00    -0.202 NA
ATOM      3  S   UNL d   1     -54.733-100.562 -36.672  0.00  0.00    -0.024 SA
ATOM      4  C   UNL d   1     -54.760-101.446 -35.664  0.00  0.00     0.091 A 
ATOM      5  C   UNL d   1     -54.733-101.372 -36.486  0.00  0.00     0.052 A 
ATOM      6  O   UNL d   1     -54.770 -99.312 -35.892  0.00  0.00    -0.258 OA
ATOM      7  C   UNL d   1     -54.766-102.194 -35.316  0.00  0.00     0.020 A 
ATOM      8  C   UNL d   1     -54.711-102.047 -36.961  0.00  0.00     0.008 A 
ATOM      9  C   UNL d   1     -54.717-102.796 -36.613  0.00  0.00     0.001 A 
ATOM     10  C   UNL d   1     -54.744-102.869 -35.791  0.00  0.00     0.002 A 
ENDROOT
TORSDOF 0
ENDMDL
MODEL 2
REMARK VINA RESULT:       7.2      9.071      9.523
REMARK  0 active torsions:
REMARK  status: ('A' for Active; 'I' for Inactive)
ROOT
ATOM      1  C   UNL d   1     -57.217 -98.756 -44.466  0.00  0.00     0.311 A 
ATOM      2  N   UNL d   1     -57.615 -98.756 -43.736  0.00  0.00    -0.202 NA
ATOM      3  S   UNL d   1     -57.777 -98.756 -45.068  0.00  0.00    -0.024 SA
ATOM      4  C   UNL d   1     -58.431 -98.756 -43.898  0.00  0.00     0.091 A 
ATOM      5  C   UNL d   1     -58.531 -98.756 -44.718  0.00  0.00     0.052 A 
ATOM      6  O   UNL d   1     -56.392 -98.756 -44.566  0.00  0.00    -0.258 OA
ATOM      7  C   UNL d   1     -59.090 -98.756 -43.402  0.00  0.00     0.020 A 
ATOM      8  C   UNL d   1     -59.290 -98.755 -45.042  0.00  0.00     0.008 A 
ATOM      9  C   UNL d   1     -59.950 -98.755 -44.545  0.00  0.00     0.001 A 
ATOM     10  C   UNL d   1     -59.850 -98.756 -43.725  0.00  0.00     0.002 A 
ENDROOT
TORSDOF 0
ENDMDL
