MODEL 1
REMARK VINA RESULT:      34.9      0.000      0.000
REMARK  6 active torsions:
REMARK  status: ('A' for Active; 'I' for Inactive)
REMARK    1  A    between atoms: C_6  and  N_2 
REMARK    2  A    between atoms: C_7  and  C_6 
REMARK    3  A    between atoms: C_8  and  C_7 
REMARK       I    between atoms: N_13  and  C_8 
REMARK    4  A    between atoms: C_10  and  C_17 
REMARK    5  A    between atoms: C_14  and  N_13 
REMARK    6  A    between atoms: C_17  and  C_14 
ROOT
ATOM      1  C   UNL d   1      13.401  11.920  -3.010  0.00  0.00     0.082 C 
ENDROOT
BRANCH   1   2
ATOM      2  C   UNL d   1      14.133  11.919  -2.637  0.00  0.00     0.088 C 
BRANCH   2   3
ATOM      3  N   UNL d   1      14.183  11.983  -1.818  0.00  0.00    -0.268 N 
ATOM      4  C   UNL d   1      13.557  11.919  -1.288  0.00  0.00     0.296 A 
ATOM      5  S   UNL d   1      13.890  12.025  -0.505  0.00  0.00    -0.025 SA
ATOM      6  O   UNL d   1      12.769  11.779  -1.485  0.00  0.00    -0.259 OA
ATOM      7  C   UNL d   1      14.670  12.144  -0.587  0.00  0.00     0.050 A 
ATOM      8  C   UNL d   1      15.255  12.277  -0.014  0.00  0.00     0.008 A 
ATOM      9  C   UNL d   1      14.873  12.122  -1.387  0.00  0.00     0.073 A 
ATOM     10  C   UNL d   1      16.044  12.387  -0.245  0.00  0.00     0.001 A 
ATOM     11  C   UNL d   1      16.236  12.363  -1.048  0.00  0.00     0.002 A 
ATOM     12  C   UNL d   1      15.650  12.231  -1.616  0.00  0.00     0.018 A 
ENDBRANCH   2   3
ENDBRANCH   1   2
BRANCH   1  13
ATOM     13  C   UNL d   1      13.298  12.309  -3.730  0.00  0.00     0.281 C 
ATOM     14  O   UNL d   1      13.365  11.888  -4.437  0.00  0.00    -0.265 OA
ATOM     15  N   UNL d   1      13.130  13.113  -3.749  0.00  0.00    -0.206 NA
BRANCH  15  16
ATOM     16  C   UNL d   1      13.028  13.498  -4.466  0.00  0.00     0.102 C 
BRANCH  16  17
ATOM     17  C   UNL d   1      12.769  14.278  -4.486  0.00  0.00     0.021 C 
BRANCH  17  18
ATOM     18  C   UNL d   1      13.298  14.891  -4.643  0.00  0.00     0.002 A 
ATOM     19  C   UNL d   1      13.885  15.082  -4.082  0.00  0.00     0.000 A 
ATOM     20  C   UNL d   1      14.416  15.699  -4.243  0.00  0.00     0.000 A 
ATOM     21  C   UNL d   1      14.364  16.118  -4.947  0.00  0.00     0.000 A 
ATOM     22  C   UNL d   1      13.780  15.925  -5.501  0.00  0.00     0.000 A 
ATOM     23  C   UNL d   1      13.243  15.317  -5.362  0.00  0.00     0.000 A 
ENDBRANCH  17  18
ENDBRANCH  16  17
ENDBRANCH  15  16
ENDBRANCH   1  13
TORSDOF 6
ENDMDL
MODEL 2
REMARK VINA RESULT:      35.1      1.889      2.629
REMARK  6 active torsions:
REMARK  status: ('A' for Active; 'I' for Inactive)
REMARK    1  A    between atoms: C_6  and  N_2 
REMARK    2  A    between atoms: C_7  and  C_6 
REMARK    3  A    between atoms: C_8  and  C_7 
REMARK       I    between atoms: N_13  and  C_8 
REMARK    4  A    between atoms: C_10  and  C_17 
REMARK    5  A    between atoms: C_14  and  N_13 
REMARK    6  A    between atoms: C_17  and  C_14 
ROOT
ATOM      1  C   UNL d   1      14.170  14.866  -2.136  0.00  0.00     0.082 C 
ENDROOT
BRANCH   1   2
ATOM      2  C   UNL d   1      14.879  14.468  -2.013  0.00  0.00     0.088 C 
BRANCH   2   3
ATOM      3  N   UNL d   1      15.029  14.099  -1.292  0.00  0.00    -0.268 N 
ATOM      4  C   UNL d   1      15.323  14.460  -0.614  0.00  0.00     0.296 A 
ATOM      5  S   UNL d   1      15.380  13.847  -0.017  0.00  0.00    -0.025 SA
ATOM      6  O   UNL d   1      15.521  15.257  -0.538  0.00  0.00    -0.259 OA
ATOM      7  C   UNL d   1      15.129  13.168  -0.343  0.00  0.00     0.050 A 
ATOM      8  C   UNL d   1      15.068  12.409  -0.016  0.00  0.00     0.008 A 
ATOM      9  C   UNL d   1      14.907  13.299  -1.127  0.00  0.00     0.073 A 
ATOM     10  C   UNL d   1      14.785  11.780  -0.477  0.00  0.00     0.001 A 
ATOM     11  C   UNL d   1      14.566  11.922  -1.260  0.00  0.00     0.002 A 
ATOM     12  C   UNL d   1      14.628  12.681  -1.582  0.00  0.00     0.018 A 
ENDBRANCH   2   3
ENDBRANCH   1   2
BRANCH   1  13
ATOM     13  C   UNL d   1      13.866  14.952  -2.897  0.00  0.00     0.281 C 
ATOM     14  O   UNL d   1      13.819  15.703  -3.238  0.00  0.00    -0.265 OA
ATOM     15  N   UNL d   1      13.608  14.297  -3.321  0.00  0.00    -0.206 NA
BRANCH  15  16
ATOM     16  C   UNL d   1      13.306  14.385  -4.078  0.00  0.00     0.102 C 
BRANCH  16  17
ATOM     17  C   UNL d   1      12.774  13.836  -4.379  0.00  0.00     0.021 C 
BRANCH  17  18
ATOM     18  C   UNL d   1      13.040  13.199  -4.831  0.00  0.00     0.002 A 
ATOM     19  C   UNL d   1      12.769  12.429  -4.654  0.00  0.00     0.000 A 
ATOM     20  C   UNL d   1      13.037  11.790  -5.109  0.00  0.00     0.000 A 
ATOM     21  C   UNL d   1      13.564  11.912  -5.727  0.00  0.00     0.000 A 
ATOM     22  C   UNL d   1      13.830  12.678  -5.898  0.00  0.00     0.000 A 
ATOM     23  C   UNL d   1      13.577  13.326  -5.460  0.00  0.00     0.000 A 
ENDBRANCH  17  18
ENDBRANCH  16  17
ENDBRANCH  15  16
ENDBRANCH   1  13
TORSDOF 6
ENDMDL
