MODEL 1
REMARK VINA RESULT:      11.8      0.000      0.000
REMARK  1 active torsions:
REMARK  status: ('A' for Active; 'I' for Inactive)
REMARK    1  A    between atoms: C_6  and  C_1 
ROOT
ATOM      1  C   UNL d   1      13.811  12.517  -2.614  0.00  0.00     0.111 A 
ATOM      2  N   UNL d   1      14.402  12.998  -2.299  0.00  0.00    -0.239 NA
ATOM      3  S   UNL d   1      13.569  11.974  -2.030  0.00  0.00    -0.066 SA
ATOM      4  C   UNL d   1      14.528  12.757  -1.523  0.00  0.00     0.088 A 
ATOM      5  C   UNL d   1      14.018  12.129  -1.358  0.00  0.00     0.049 A 
ATOM      6  C   UNL d   1      15.049  13.030  -0.933  0.00  0.00     0.020 A 
ATOM      7  C   UNL d   1      14.032  11.779  -0.605  0.00  0.00     0.008 A 
ATOM      8  C   UNL d   1      14.550  12.049  -0.014  0.00  0.00     0.001 A 
ATOM      9  C   UNL d   1      15.060  12.676  -0.179  0.00  0.00     0.002 A 
ENDROOT
BRANCH   1  10
ATOM     10  C   UNL d   1      13.481  12.519  -3.350  0.00  0.00     0.025 A 
ATOM     11  C   UNL d   1      13.311  13.237  -3.767  0.00  0.00     0.023 A 
ATOM     12  C   UNL d   1      12.981  13.230  -4.502  0.00  0.00     0.103 A 
ATOM     13  N   UNL d   1      12.834  13.954  -4.869  0.00  0.00    -0.148 N 
ATOM     14  C   UNL d   1      12.800  12.478  -4.865  0.00  0.00     0.021 A 
ATOM     15  C   UNL d   1      12.959  11.779  -4.473  0.00  0.00     0.002 A 
ATOM     16  C   UNL d   1      13.295  11.812  -3.725  0.00  0.00     0.002 A 
ENDBRANCH   1  10
TORSDOF 1
ENDMDL
MODEL 2
REMARK VINA RESULT:      12.1      9.995     10.597
REMARK  1 active torsions:
REMARK  status: ('A' for Active; 'I' for Inactive)
REMARK    1  A    between atoms: C_6  and  C_1 
ROOT
ATOM      1  C   UNL d   1      24.289  12.484  -2.732  0.00  0.00     0.111 A 
ATOM      2  N   UNL d   1      23.684  12.850  -2.307  0.00  0.00    -0.239 NA
ATOM      3  S   UNL d   1      24.768  12.055  -2.202  0.00  0.00    -0.066 SA
ATOM      4  C   UNL d   1      23.785  12.650  -1.515  0.00  0.00     0.088 A 
ATOM      5  C   UNL d   1      24.449  12.163  -1.451  0.00  0.00     0.049 A 
ATOM      6  C   UNL d   1      23.353  12.850  -0.832  0.00  0.00     0.020 A 
ATOM      7  C   UNL d   1      24.676  11.880  -0.704  0.00  0.00     0.008 A 
ATOM      8  C   UNL d   1      24.247  12.077  -0.020  0.00  0.00     0.001 A 
ATOM      9  C   UNL d   1      23.584  12.564  -0.084  0.00  0.00     0.002 A 
ENDROOT
BRANCH   1  10
ATOM     10  C   UNL d   1      24.445  12.500  -3.524  0.00  0.00     0.025 A 
ATOM     11  C   UNL d   1      24.507  13.224  -3.959  0.00  0.00     0.023 A 
ATOM     12  C   UNL d   1      24.663  13.229  -4.749  0.00  0.00     0.103 A 
ATOM     13  N   UNL d   1      24.713  13.960  -5.131  0.00  0.00    -0.148 N 
ATOM     14  C   UNL d   1      24.768  12.484  -5.153  0.00  0.00     0.021 A 
ATOM     15  C   UNL d   1      24.712  11.779  -4.744  0.00  0.00     0.002 A 
ATOM     16  C   UNL d   1      24.552  11.799  -3.940  0.00  0.00     0.002 A 
ENDBRANCH   1  10
TORSDOF 1
ENDMDL
