MODEL 1
REMARK VINA RESULT:      83.5      0.000      0.000
REMARK  10 active torsions:
REMARK  status: ('A' for Active; 'I' for Inactive)
REMARK    1  A    between atoms: C_9  and  C_1 
REMARK    2  A    between atoms: C_11  and  C_2 
REMARK    3  A    between atoms: S_12  and  C_3 
REMARK    4  A    between atoms: C_16  and  C_4 
REMARK    5  A    between atoms: C_7  and  N_8 
REMARK       I    between atoms: N_8  and  C_15 
REMARK    6  A    between atoms: O_26  and  C_9 
REMARK    7  A    between atoms: C_21  and  S_12 
REMARK    8  A    between atoms: C_15  and  C_21 
REMARK    9  A    between atoms: C_24  and  C_32 
REMARK   10  A    between atoms: C_32  and  O_26 
ROOT
ATOM      1  C   UNL d   1     -48.461  30.292  34.591  0.00  0.00     0.081 A 
ATOM      2  C   UNL d   1     -48.365  28.877  34.820  0.00  0.00     0.045 A 
ATOM      3  C   UNL d   1     -48.948  28.750  34.186  0.00  0.00     0.112 A 
ATOM      4  C   UNL d   1     -48.143  29.640  35.000  0.00  0.00     0.010 A 
ATOM      5  C   UNL d   1     -49.012  30.171  33.992  0.00  0.00     0.087 A 
ATOM      6  N   UNL d   1     -49.245  29.399  33.801  0.00  0.00    -0.239 NA
ATOM      7  C   UNL d   1     -49.342  30.828  33.570  0.00  0.00     0.021 C 
ENDROOT
BRANCH   3   8
ATOM      8  S   UNL d   1     -49.228  27.968  33.944  0.00  0.00    -0.062 SA
BRANCH   8   9
ATOM      9  C   UNL d   1     -49.966  27.710  34.196  0.00  0.00     0.099 C 
BRANCH   9  10
ATOM     10  C   UNL d   1     -50.231  26.995  33.964  0.00  0.00     0.288 C 
ATOM     11  N   UNL d   1     -51.040  26.863  33.911  0.00  0.00    -0.182 NA
ATOM     12  O   UNL d   1     -49.724  26.393  33.780  0.00  0.00    -0.265 OA
BRANCH  11  13
ATOM     13  C   UNL d   1     -51.315  26.148  33.679  0.00  0.00     0.197 A 
ATOM     14  N   UNL d   1     -52.105  26.051  33.541  0.00  0.00    -0.219 NA
ATOM     15  C   UNL d   1     -52.219  25.260  33.311  0.00  0.00     0.108 A 
ATOM     16  C   UNL d   1     -51.499  24.882  33.312  0.00  0.00     0.059 A 
ATOM     17  S   UNL d   1     -50.928  25.432  33.542  0.00  0.00    -0.046 SA
ENDBRANCH  11  13
ENDBRANCH   9  10
ENDBRANCH   8   9
ENDBRANCH   3   8
BRANCH   2  18
ATOM     18  C   UNL d   1     -48.026  28.231  35.252  0.00  0.00     0.124 C 
ATOM     19  N   UNL d   1     -48.181  28.130  36.052  0.00  0.00    -0.146 N 
ENDBRANCH   2  18
BRANCH   4  20
ATOM     20  C   UNL d   1     -47.602  29.758  35.589  0.00  0.00     0.000 A 
ATOM     21  C   UNL d   1     -47.852  29.960  36.350  0.00  0.00     0.001 A 
ATOM     22  C   UNL d   1     -47.312  30.078  36.938  0.00  0.00     0.011 A 
ATOM     23  C   UNL d   1     -46.504  29.998  36.782  0.00  0.00     0.058 A 
ATOM     24  C   UNL d   1     -46.248  29.795  36.016  0.00  0.00     0.011 A 
ATOM     25 CL   UNL d   1     -45.947  30.120  37.388  0.00  0.00    -0.082 Cl
ATOM     26  C   UNL d   1     -46.799  29.675  35.417  0.00  0.00     0.001 A 
ENDBRANCH   4  20
BRANCH   1  27
ATOM     27  C   UNL d   1     -48.208  31.076  34.804  0.00  0.00     0.302 C 
ATOM     28  O   UNL d   1     -48.301  31.360  35.571  0.00  0.00    -0.259 OA
BRANCH  27  29
ATOM     29  O   UNL d   1     -47.863  31.553  34.224  0.00  0.00    -0.271 OA
BRANCH  29  30
ATOM     30  C   UNL d   1     -47.951  32.355  34.251  0.00  0.00     0.126 C 
BRANCH  30  31
ATOM     31  C   UNL d   1     -47.285  32.850  34.167  0.00  0.00     0.027 C 
ATOM     32  C   UNL d   1     -47.204  33.308  33.506  0.00  0.00     0.002 C 
ENDBRANCH  30  31
ENDBRANCH  29  30
ENDBRANCH  27  29
ENDBRANCH   1  27
TORSDOF 10
ENDMDL
