MODEL 1
REMARK VINA RESULT:      65.7      0.000      0.000
REMARK  5 active torsions:
REMARK  status: ('A' for Active; 'I' for Inactive)
REMARK    1  A    between atoms: C_5  and  N_1 
REMARK    2  A    between atoms: C_7  and  C_5 
REMARK    3  A    between atoms: O_14  and  C_10 
REMARK    4  A    between atoms: C_18  and  O_14 
REMARK    5  A    between atoms: C_19  and  C_18 
ROOT
ATOM      1  N   UNL d   1      60.571  48.430  50.425  0.00  0.00    -0.251 N 
ATOM      2  C   UNL d   1      61.249  48.888  50.294  0.00  0.00     0.378 A 
ATOM      3  C   UNL d   1      60.801  47.637  50.482  0.00  0.00     0.092 A 
ATOM      4  O   UNL d   1      61.900  48.375  50.270  0.00  0.00    -0.258 OA
ATOM      5  C   UNL d   1      61.622  47.603  50.387  0.00  0.00     0.121 A 
ATOM      6  O   UNL d   1      61.277  49.706  50.203  0.00  0.00    -0.237 OA
ATOM      7  C   UNL d   1      60.365  46.952  50.608  0.00  0.00     0.020 A 
ATOM      8  C   UNL d   1      62.003  46.868  50.419  0.00  0.00     0.026 A 
ATOM      9  C   UNL d   1      60.747  46.225  50.640  0.00  0.00     0.002 A 
ATOM     10  C   UNL d   1      61.567  46.183  50.545  0.00  0.00     0.002 A 
ATOM     11  C   UNL d   1      60.311  45.536  50.767  0.00  0.00     0.000 C 
ENDROOT
BRANCH   1  12
ATOM     12  C   UNL d   1      59.787  48.681  50.493  0.00  0.00     0.087 C 
BRANCH  12  13
ATOM     13  C   UNL d   1      59.518  49.025  51.198  0.00  0.00     0.041 A 
ATOM     14  C   UNL d   1      58.729  49.194  51.294  0.00  0.00     0.102 A 
ATOM     15  C   UNL d   1      58.464  49.533  51.991  0.00  0.00     0.025 A 
ATOM     16  C   UNL d   1      58.997  49.704  52.595  0.00  0.00     0.002 A 
ATOM     17  C   UNL d   1      59.798  49.531  52.496  0.00  0.00     0.000 A 
ATOM     18  C   UNL d   1      60.059  49.189  51.791  0.00  0.00     0.004 A 
BRANCH  14  19
ATOM     19  O   UNL d   1      58.189  49.024  50.689  0.00  0.00    -0.305 OA
BRANCH  19  20
ATOM     20  C   UNL d   1      57.675  49.610  50.416  0.00  0.00     0.123 C 
BRANCH  20  21
ATOM     21  C   UNL d   1      57.054  49.414  49.919  0.00  0.00     0.027 C 
ATOM     22  C   UNL d   1      56.276  49.585  50.139  0.00  0.00     0.002 C 
ENDBRANCH  20  21
ENDBRANCH  19  20
ENDBRANCH  14  19
ENDBRANCH  12  13
ENDBRANCH   1  12
TORSDOF 5
ENDMDL
MODEL 2
REMARK VINA RESULT:      66.0      0.798      1.051
REMARK  5 active torsions:
REMARK  status: ('A' for Active; 'I' for Inactive)
REMARK    1  A    between atoms: C_5  and  N_1 
REMARK    2  A    between atoms: C_7  and  C_5 
REMARK    3  A    between atoms: O_14  and  C_10 
REMARK    4  A    between atoms: C_18  and  O_14 
REMARK    5  A    between atoms: C_19  and  C_18 
ROOT
ATOM      1  N   UNL d   1      61.118  47.843  50.204  0.00  0.00    -0.251 N 
ATOM      2  C   UNL d   1      61.712  48.266  49.810  0.00  0.00     0.378 A 
ATOM      3  C   UNL d   1      61.326  47.042  50.203  0.00  0.00     0.092 A 
ATOM      4  O   UNL d   1      62.288  47.723  49.565  0.00  0.00    -0.258 OA
ATOM      5  C   UNL d   1      62.049  46.968  49.808  0.00  0.00     0.121 A 
ATOM      6  O   UNL d   1      61.731  49.078  49.682  0.00  0.00    -0.237 OA
ATOM      7  C   UNL d   1      60.947  46.381  50.511  0.00  0.00     0.020 A 
ATOM      8  C   UNL d   1      62.390  46.217  49.725  0.00  0.00     0.026 A 
ATOM      9  C   UNL d   1      61.288  45.638  50.427  0.00  0.00     0.002 A 
ATOM     10  C   UNL d   1      62.011  45.556  50.033  0.00  0.00     0.002 A 
ATOM     11  C   UNL d   1      60.909  44.973  50.735  0.00  0.00     0.000 C 
ENDROOT
BRANCH   1  12
ATOM     12  C   UNL d   1      60.426  48.132  50.550  0.00  0.00     0.087 C 
BRANCH  12  13
ATOM     13  C   UNL d   1      60.467  48.662  51.186  0.00  0.00     0.041 A 
ATOM     14  C   UNL d   1      59.809  49.084  51.408  0.00  0.00     0.102 A 
ATOM     15  C   UNL d   1      59.851  49.608  52.037  0.00  0.00     0.025 A 
ATOM     16  C   UNL d   1      60.559  49.707  52.445  0.00  0.00     0.002 A 
ATOM     17  C   UNL d   1      61.226  49.276  52.219  0.00  0.00     0.000 A 
ATOM     18  C   UNL d   1      61.178  48.750  51.584  0.00  0.00     0.004 A 
BRANCH  14  19
ATOM     19  O   UNL d   1      59.094  48.989  51.000  0.00  0.00    -0.305 OA
BRANCH  19  20
ATOM     20  C   UNL d   1      58.515  49.576  51.036  0.00  0.00     0.123 C 
BRANCH  20  21
ATOM     21  C   UNL d   1      58.021  49.707  50.396  0.00  0.00     0.027 C 
ATOM     22  C   UNL d   1      57.217  49.524  50.447  0.00  0.00     0.002 C 
ENDBRANCH  20  21
ENDBRANCH  19  20
ENDBRANCH  14  19
ENDBRANCH  12  13
ENDBRANCH   1  12
TORSDOF 5
ENDMDL
