MODEL 1
REMARK VINA RESULT:      -8.2      0.000      0.000
REMARK  2 active torsions:
REMARK  status: ('A' for Active; 'I' for Inactive)
REMARK    1  A    between atoms: N_10  and  C_5 
REMARK    2  A    between atoms: C_22  and  N_12 
ROOT
ATOM      1  N   UNL d   1     -48.394  14.146  22.889  0.00  0.00    -0.175 N 
ATOM      2  C   UNL d   1     -48.810  13.510  23.228  0.00  0.00     0.167 A 
ATOM      3  N   UNL d   1     -47.613  14.045  22.612  0.00  0.00    -0.143 NA
ATOM      4  C   UNL d   1     -48.745  14.896  22.818  0.00  0.00     0.283 A 
ATOM      5  C   UNL d   1     -47.263  13.296  22.684  0.00  0.00     0.168 A 
ATOM      6  N   UNL d   1     -49.573  13.630  23.493  0.00  0.00    -0.227 NA
ATOM      7  C   UNL d   1     -49.522  14.992  23.094  0.00  0.00     0.076 A 
ATOM      8  C   UNL d   1     -48.440  12.780  23.287  0.00  0.00     0.039 A 
ATOM      9  C   UNL d   1     -47.678  12.661  23.022  0.00  0.00     0.039 A 
ATOM     10  C   UNL d   1     -49.937  14.357  23.433  0.00  0.00     0.088 A 
ATOM     11  O   UNL d   1     -48.342  15.512  22.489  0.00  0.00    -0.265 OA
ATOM     12  C   UNL d   1     -49.873  15.741  23.023  0.00  0.00     0.006 A 
ATOM     13  C   UNL d   1     -48.855  12.145  23.626  0.00  0.00     0.003 A 
ATOM     14  C   UNL d   1     -47.313  11.934  23.082  0.00  0.00     0.003 A 
ATOM     15  C   UNL d   1     -50.700  14.476  23.698  0.00  0.00     0.019 A 
ATOM     16  C   UNL d   1     -50.649  15.838  23.299  0.00  0.00     0.000 A 
ATOM     17  C   UNL d   1     -48.487  11.423  23.683  0.00  0.00     0.000 A 
ATOM     18  C   UNL d   1     -47.728  11.299  23.421  0.00  0.00     0.000 A 
ATOM     19  C   UNL d   1     -51.064  15.203  23.638  0.00  0.00     0.002 A 
ENDROOT
BRANCH   5  20
ATOM     20  N   UNL d   1     -46.486  13.200  22.407  0.00  0.00    -0.285 N 
ATOM     21  C   UNL d   1     -46.342  12.930  21.660  0.00  0.00     0.101 A 
ATOM     22  C   UNL d   1     -45.569  12.842  21.405  0.00  0.00     0.100 A 
ATOM     23  N   UNL d   1     -44.941  13.022  21.897  0.00  0.00    -0.300 N 
ATOM     24  C   UNL d   1     -45.085  13.291  22.644  0.00  0.00     0.100 A 
ATOM     25  C   UNL d   1     -45.862  13.388  22.921  0.00  0.00     0.101 A 
BRANCH  23  26
ATOM     26  C   UNL d   1     -44.167  12.933  21.642  0.00  0.00     0.080 C 
ATOM     27  C   UNL d   1     -43.702  12.329  21.957  0.00  0.00     0.021 C 
ENDBRANCH  23  26
ENDBRANCH   5  20
TORSDOF 2
ENDMDL
MODEL 2
REMARK VINA RESULT:      -7.6      1.796      2.455
REMARK  2 active torsions:
REMARK  status: ('A' for Active; 'I' for Inactive)
REMARK    1  A    between atoms: N_10  and  C_5 
REMARK    2  A    between atoms: C_22  and  N_12 
ROOT
ATOM      1  N   UNL d   1     -48.369  12.741  22.338  0.00  0.00    -0.175 N 
ATOM      2  C   UNL d   1     -48.242  13.561  22.362  0.00  0.00     0.167 A 
ATOM      3  N   UNL d   1     -47.757  12.208  22.536  0.00  0.00    -0.143 NA
ATOM      4  C   UNL d   1     -49.107  12.429  22.116  0.00  0.00     0.283 A 
ATOM      5  C   UNL d   1     -47.020  12.520  22.757  0.00  0.00     0.168 A 
ATOM      6  N   UNL d   1     -48.854  14.065  22.164  0.00  0.00    -0.227 NA
ATOM      7  C   UNL d   1     -49.713  12.961  21.920  0.00  0.00     0.076 A 
ATOM      8  C   UNL d   1     -47.504  13.844  22.584  0.00  0.00     0.039 A 
ATOM      9  C   UNL d   1     -46.893  13.341  22.781  0.00  0.00     0.039 A 
ATOM     10  C   UNL d   1     -49.587  13.782  21.944  0.00  0.00     0.088 A 
ATOM     11  O   UNL d   1     -49.230  11.632  22.093  0.00  0.00    -0.265 OA
ATOM     12  C   UNL d   1     -50.450  12.649  21.698  0.00  0.00     0.006 A 
ATOM     13  C   UNL d   1     -47.377  14.665  22.608  0.00  0.00     0.003 A 
ATOM     14  C   UNL d   1     -46.161  13.624  23.002  0.00  0.00     0.003 A 
ATOM     15  C   UNL d   1     -50.198  14.285  21.746  0.00  0.00     0.019 A 
ATOM     16  C   UNL d   1     -51.057  13.180  21.502  0.00  0.00     0.000 A 
ATOM     17  C   UNL d   1     -46.646  14.941  22.828  0.00  0.00     0.000 A 
ATOM     18  C   UNL d   1     -46.034  14.445  23.026  0.00  0.00     0.000 A 
ATOM     19  C   UNL d   1     -50.930  14.001  21.526  0.00  0.00     0.002 A 
ENDROOT
BRANCH   5  20
ATOM     20  N   UNL d   1     -46.413  11.988  22.954  0.00  0.00    -0.285 N 
ATOM     21  C   UNL d   1     -45.680  12.054  22.623  0.00  0.00     0.101 A 
ATOM     22  C   UNL d   1     -45.095  11.520  22.829  0.00  0.00     0.100 A 
ATOM     23  N   UNL d   1     -45.243  10.921  23.366  0.00  0.00    -0.300 N 
ATOM     24  C   UNL d   1     -45.976  10.855  23.697  0.00  0.00     0.100 A 
ATOM     25  C   UNL d   1     -46.583  11.386  23.500  0.00  0.00     0.101 A 
BRANCH  23  26
ATOM     26  C   UNL d   1     -44.657  10.386  23.572  0.00  0.00     0.080 C 
ATOM     27  C   UNL d   1     -43.878  10.526  23.338  0.00  0.00     0.021 C 
ENDBRANCH  23  26
ENDBRANCH   5  20
TORSDOF 2
ENDMDL
MODEL 3
REMARK VINA RESULT:      -7.4      0.898      4.386
REMARK  2 active torsions:
REMARK  status: ('A' for Active; 'I' for Inactive)
REMARK    1  A    between atoms: N_10  and  C_5 
REMARK    2  A    between atoms: C_22  and  N_12 
ROOT
ATOM      1  N   UNL d   1     -46.899  13.303  22.619  0.00  0.00    -0.175 N 
ATOM      2  C   UNL d   1     -46.937  12.511  22.867  0.00  0.00     0.167 A 
ATOM      3  N   UNL d   1     -47.577  13.792  22.646  0.00  0.00    -0.143 NA
ATOM      4  C   UNL d   1     -46.189  13.630  22.338  0.00  0.00     0.283 A 
ATOM      5  C   UNL d   1     -48.287  13.465  22.927  0.00  0.00     0.168 A 
ATOM      6  N   UNL d   1     -46.263  12.051  22.832  0.00  0.00    -0.227 NA
ATOM      7  C   UNL d   1     -45.517  13.142  22.313  0.00  0.00     0.076 A 
ATOM      8  C   UNL d   1     -47.651  12.213  23.140  0.00  0.00     0.039 A 
ATOM      9  C   UNL d   1     -48.324  12.673  23.175  0.00  0.00     0.039 A 
ATOM     10  C   UNL d   1     -45.555  12.350  22.560  0.00  0.00     0.088 A 
ATOM     11  O   UNL d   1     -46.152  14.399  22.098  0.00  0.00    -0.265 OA
ATOM     12  C   UNL d   1     -44.807  13.469  22.032  0.00  0.00     0.006 A 
ATOM     13  C   UNL d   1     -47.688  11.420  23.388  0.00  0.00     0.003 A 
ATOM     14  C   UNL d   1     -49.032  12.374  23.447  0.00  0.00     0.003 A 
ATOM     15  C   UNL d   1     -44.882  11.890  22.526  0.00  0.00     0.019 A 
ATOM     16  C   UNL d   1     -44.136  12.981  22.006  0.00  0.00     0.000 A 
ATOM     17  C   UNL d   1     -48.397  11.128  23.658  0.00  0.00     0.000 A 
ATOM     18  C   UNL d   1     -49.070  11.581  23.695  0.00  0.00     0.000 A 
ATOM     19  C   UNL d   1     -44.173  12.189  22.254  0.00  0.00     0.002 A 
ENDROOT
BRANCH   5  20
ATOM     20  N   UNL d   1     -48.958  13.953  22.953  0.00  0.00    -0.285 N 
ATOM     21  C   UNL d   1     -49.125  14.395  23.607  0.00  0.00     0.101 A 
ATOM     22  C   UNL d   1     -49.792  14.870  23.614  0.00  0.00     0.100 A 
ATOM     23  N   UNL d   1     -50.291  14.902  22.967  0.00  0.00    -0.300 N 
ATOM     24  C   UNL d   1     -50.124  14.460  22.312  0.00  0.00     0.100 A 
ATOM     25  C   UNL d   1     -49.453  13.972  22.287  0.00  0.00     0.101 A 
BRANCH  23  26
ATOM     26  C   UNL d   1     -50.959  15.378  22.973  0.00  0.00     0.080 C 
ATOM     27  C   UNL d   1     -51.064  15.922  23.584  0.00  0.00     0.021 C 
ENDBRANCH  23  26
ENDBRANCH   5  20
TORSDOF 2
ENDMDL
MODEL 4
REMARK VINA RESULT:      -7.3      1.435      2.344
REMARK  2 active torsions:
REMARK  status: ('A' for Active; 'I' for Inactive)
REMARK    1  A    between atoms: N_10  and  C_5 
REMARK    2  A    between atoms: C_22  and  N_12 
ROOT
ATOM      1  N   UNL d   1     -48.190  12.553  22.975  0.00  0.00    -0.175 N 
ATOM      2  C   UNL d   1     -48.467  13.336  23.006  0.00  0.00     0.167 A 
ATOM      3  N   UNL d   1     -47.394  12.389  22.785  0.00  0.00    -0.143 NA
ATOM      4  C   UNL d   1     -48.698  11.914  23.132  0.00  0.00     0.283 A 
ATOM      5  C   UNL d   1     -46.887  13.027  22.628  0.00  0.00     0.168 A 
ATOM      6  N   UNL d   1     -49.249  13.474  23.194  0.00  0.00    -0.227 NA
ATOM      7  C   UNL d   1     -49.489  12.080  23.321  0.00  0.00     0.076 A 
ATOM      8  C   UNL d   1     -47.945  13.949  22.847  0.00  0.00     0.039 A 
ATOM      9  C   UNL d   1     -47.164  13.810  22.659  0.00  0.00     0.039 A 
ATOM     10  C   UNL d   1     -49.766  12.863  23.352  0.00  0.00     0.088 A 
ATOM     11  O   UNL d   1     -48.429  11.153  23.102  0.00  0.00    -0.265 OA
ATOM     12  C   UNL d   1     -49.996  11.441  23.478  0.00  0.00     0.006 A 
ATOM     13  C   UNL d   1     -48.222  14.732  22.878  0.00  0.00     0.003 A 
ATOM     14  C   UNL d   1     -46.647  14.421  22.501  0.00  0.00     0.003 A 
ATOM     15  C   UNL d   1     -50.548  13.001  23.540  0.00  0.00     0.019 A 
ATOM     16  C   UNL d   1     -50.787  11.607  23.667  0.00  0.00     0.000 A 
ATOM     17  C   UNL d   1     -47.703  15.336  22.720  0.00  0.00     0.000 A 
ATOM     18  C   UNL d   1     -46.924  15.204  22.532  0.00  0.00     0.000 A 
ATOM     19  C   UNL d   1     -51.064  12.390  23.698  0.00  0.00     0.002 A 
ENDROOT
BRANCH   5  20
ATOM     20  N   UNL d   1     -46.096  12.861  22.439  0.00  0.00    -0.285 N 
ATOM     21  C   UNL d   1     -45.798  13.034  21.709  0.00  0.00     0.101 A 
ATOM     22  C   UNL d   1     -45.015  12.863  21.541  0.00  0.00     0.100 A 
ATOM     23  N   UNL d   1     -44.530  12.519  22.103  0.00  0.00    -0.300 N 
ATOM     24  C   UNL d   1     -44.828  12.346  22.833  0.00  0.00     0.100 A 
ATOM     25  C   UNL d   1     -45.619  12.512  23.022  0.00  0.00     0.101 A 
BRANCH  23  26
ATOM     26  C   UNL d   1     -43.747  12.348  21.936  0.00  0.00     0.080 C 
ATOM     27  C   UNL d   1     -43.326  12.833  21.418  0.00  0.00     0.021 C 
ENDBRANCH  23  26
ENDBRANCH   5  20
TORSDOF 2
ENDMDL
MODEL 5
REMARK VINA RESULT:      -6.7      8.571     10.035
REMARK  2 active torsions:
REMARK  status: ('A' for Active; 'I' for Inactive)
REMARK    1  A    between atoms: N_10  and  C_5 
REMARK    2  A    between atoms: C_22  and  N_12 
ROOT
ATOM      1  N   UNL d   1     -39.259  15.124  19.133  0.00  0.00    -0.175 N 
ATOM      2  C   UNL d   1     -40.019  15.462  19.122  0.00  0.00     0.167 A 
ATOM      3  N   UNL d   1     -38.904  14.850  18.428  0.00  0.00    -0.143 NA
ATOM      4  C   UNL d   1     -38.835  15.050  19.844  0.00  0.00     0.283 A 
ATOM      5  C   UNL d   1     -39.328  14.925  17.719  0.00  0.00     0.168 A 
ATOM      6  N   UNL d   1     -40.348  15.723  19.822  0.00  0.00    -0.227 NA
ATOM      7  C   UNL d   1     -39.191  15.323  20.542  0.00  0.00     0.076 A 
ATOM      8  C   UNL d   1     -40.417  15.524  18.407  0.00  0.00     0.039 A 
ATOM      9  C   UNL d   1     -40.087  15.263  17.708  0.00  0.00     0.039 A 
ATOM     10  C   UNL d   1     -39.950  15.661  20.532  0.00  0.00     0.088 A 
ATOM     11  O   UNL d   1     -38.098  14.722  19.854  0.00  0.00    -0.265 OA
ATOM     12  C   UNL d   1     -38.766  15.248  21.252  0.00  0.00     0.006 A 
ATOM     13  C   UNL d   1     -41.176  15.862  18.396  0.00  0.00     0.003 A 
ATOM     14  C   UNL d   1     -40.485  15.325  16.999  0.00  0.00     0.003 A 
ATOM     15  C   UNL d   1     -40.279  15.922  21.231  0.00  0.00     0.019 A 
ATOM     16  C   UNL d   1     -39.122  15.521  21.951  0.00  0.00     0.000 A 
ATOM     17  C   UNL d   1     -41.567  15.921  17.687  0.00  0.00     0.000 A 
ATOM     18  C   UNL d   1     -41.244  15.663  16.988  0.00  0.00     0.000 A 
ATOM     19  C   UNL d   1     -39.881  15.859  21.940  0.00  0.00     0.002 A 
ENDROOT
BRANCH   5  20
ATOM     20  N   UNL d   1     -38.973  14.652  17.020  0.00  0.00    -0.285 N 
ATOM     21  C   UNL d   1     -38.574  15.157  16.532  0.00  0.00     0.101 A 
ATOM     22  C   UNL d   1     -38.229  14.869  15.848  0.00  0.00     0.100 A 
ATOM     23  N   UNL d   1     -38.284  14.077  15.651  0.00  0.00    -0.300 N 
ATOM     24  C   UNL d   1     -38.683  13.572  16.138  0.00  0.00     0.100 A 
ATOM     25  C   UNL d   1     -39.039  13.845  16.837  0.00  0.00     0.101 A 
BRANCH  23  26
ATOM     26  C   UNL d   1     -37.940  13.789  14.965  0.00  0.00     0.080 C 
ATOM     27  C   UNL d   1     -38.259  13.993  14.233  0.00  0.00     0.021 C 
ENDBRANCH  23  26
ENDBRANCH   5  20
TORSDOF 2
ENDMDL
MODEL 6
REMARK VINA RESULT:      -6.6      8.884      9.854
REMARK  2 active torsions:
REMARK  status: ('A' for Active; 'I' for Inactive)
REMARK    1  A    between atoms: N_10  and  C_5 
REMARK    2  A    between atoms: C_22  and  N_12 
ROOT
ATOM      1  N   UNL d   1     -39.183  14.318  20.437  0.00  0.00    -0.175 N 
ATOM      2  C   UNL d   1     -38.665  13.689  20.278  0.00  0.00     0.167 A 
ATOM      3  N   UNL d   1     -39.593  14.702  19.818  0.00  0.00    -0.143 NA
ATOM      4  C   UNL d   1     -39.308  14.582  21.215  0.00  0.00     0.283 A 
ATOM      5  C   UNL d   1     -39.468  14.437  19.041  0.00  0.00     0.168 A 
ATOM      6  N   UNL d   1     -38.275  13.328  20.898  0.00  0.00    -0.227 NA
ATOM      7  C   UNL d   1     -38.900  14.200  21.828  0.00  0.00     0.076 A 
ATOM      8  C   UNL d   1     -38.560  13.447  19.500  0.00  0.00     0.039 A 
ATOM      9  C   UNL d   1     -38.950  13.808  18.881  0.00  0.00     0.039 A 
ATOM     10  C   UNL d   1     -38.382  13.570  21.669  0.00  0.00     0.088 A 
ATOM     11  O   UNL d   1     -39.811  15.194  21.370  0.00  0.00    -0.265 OA
ATOM     12  C   UNL d   1     -39.025  14.464  22.606  0.00  0.00     0.006 A 
ATOM     13  C   UNL d   1     -38.042  12.817  19.341  0.00  0.00     0.003 A 
ATOM     14  C   UNL d   1     -38.843  13.565  18.110  0.00  0.00     0.003 A 
ATOM     15  C   UNL d   1     -37.992  13.209  22.288  0.00  0.00     0.019 A 
ATOM     16  C   UNL d   1     -38.617  14.081  23.219  0.00  0.00     0.000 A 
ATOM     17  C   UNL d   1     -37.940  12.580  18.571  0.00  0.00     0.000 A 
ATOM     18  C   UNL d   1     -38.325  12.936  17.950  0.00  0.00     0.000 A 
ATOM     19  C   UNL d   1     -38.098  13.451  23.060  0.00  0.00     0.002 A 
ENDROOT
BRANCH   5  20
ATOM     20  N   UNL d   1     -39.876  14.820  18.427  0.00  0.00    -0.285 N 
ATOM     21  C   UNL d   1     -39.507  15.366  17.961  0.00  0.00     0.101 A 
ATOM     22  C   UNL d   1     -39.926  15.733  17.360  0.00  0.00     0.100 A 
ATOM     23  N   UNL d   1     -40.713  15.554  17.228  0.00  0.00    -0.300 N 
ATOM     24  C   UNL d   1     -41.082  15.009  17.695  0.00  0.00     0.100 A 
ATOM     25  C   UNL d   1     -40.674  14.626  18.308  0.00  0.00     0.101 A 
BRANCH  23  26
ATOM     26  C   UNL d   1     -41.133  15.922  16.627  0.00  0.00     0.080 C 
ATOM     27  C   UNL d   1     -41.824  15.574  16.342  0.00  0.00     0.021 C 
ENDBRANCH  23  26
ENDBRANCH   5  20
TORSDOF 2
ENDMDL
MODEL 7
REMARK VINA RESULT:      -6.4      8.744      9.525
REMARK  2 active torsions:
REMARK  status: ('A' for Active; 'I' for Inactive)
REMARK    1  A    between atoms: N_10  and  C_5 
REMARK    2  A    between atoms: C_22  and  N_12 
ROOT
ATOM      1  N   UNL d   1     -39.989  14.830  18.866  0.00  0.00    -0.175 N 
ATOM      2  C   UNL d   1     -39.643  14.299  18.329  0.00  0.00     0.167 A 
ATOM      3  N   UNL d   1     -39.768  14.828  19.672  0.00  0.00    -0.143 NA
ATOM      4  C   UNL d   1     -40.564  15.376  18.616  0.00  0.00     0.283 A 
ATOM      5  C   UNL d   1     -39.194  14.282  19.921  0.00  0.00     0.168 A 
ATOM      6  N   UNL d   1     -39.873  14.318  17.546  0.00  0.00    -0.227 NA
ATOM      7  C   UNL d   1     -40.782  15.376  17.815  0.00  0.00     0.076 A 
ATOM      8  C   UNL d   1     -39.078  13.770  18.602  0.00  0.00     0.039 A 
ATOM      9  C   UNL d   1     -38.848  13.751  19.384  0.00  0.00     0.039 A 
ATOM     10  C   UNL d   1     -40.435  14.845  17.278  0.00  0.00     0.088 A 
ATOM     11  O   UNL d   1     -40.900  15.892  19.138  0.00  0.00    -0.265 OA
ATOM     12  C   UNL d   1     -41.355  15.922  17.566  0.00  0.00     0.006 A 
ATOM     13  C   UNL d   1     -38.731  13.239  18.065  0.00  0.00     0.003 A 
ATOM     14  C   UNL d   1     -38.286  13.224  19.652  0.00  0.00     0.003 A 
ATOM     15  C   UNL d   1     -40.665  14.863  16.496  0.00  0.00     0.019 A 
ATOM     16  C   UNL d   1     -41.573  15.922  16.765  0.00  0.00     0.000 A 
ATOM     17  C   UNL d   1     -38.172  12.716  18.337  0.00  0.00     0.000 A 
ATOM     18  C   UNL d   1     -37.940  12.693  19.115  0.00  0.00     0.000 A 
ATOM     19  C   UNL d   1     -41.227  15.391  16.228  0.00  0.00     0.002 A 
ENDROOT
BRANCH   5  20
ATOM     20  N   UNL d   1     -38.977  14.283  20.722  0.00  0.00    -0.285 N 
ATOM     21  C   UNL d   1     -38.354  14.724  20.983  0.00  0.00     0.101 A 
ATOM     22  C   UNL d   1     -38.154  14.712  21.777  0.00  0.00     0.100 A 
ATOM     23  N   UNL d   1     -38.577  14.257  22.309  0.00  0.00    -0.300 N 
ATOM     24  C   UNL d   1     -39.200  13.815  22.049  0.00  0.00     0.100 A 
ATOM     25  C   UNL d   1     -39.418  13.815  21.248  0.00  0.00     0.101 A 
BRANCH  23  26
ATOM     26  C   UNL d   1     -38.378  14.245  23.104  0.00  0.00     0.080 C 
ATOM     27  C   UNL d   1     -38.451  13.542  23.531  0.00  0.00     0.021 C 
ENDBRANCH  23  26
ENDBRANCH   5  20
TORSDOF 2
ENDMDL
