MODEL 1
REMARK VINA RESULT:      -0.1      0.000      0.000
REMARK  6 active torsions:
REMARK  status: ('A' for Active; 'I' for Inactive)
REMARK    1  A    between atoms: C_10  and  N_2 
REMARK    2  A    between atoms: C_11  and  N_5 
REMARK    3  A    between atoms: C_21  and  C_10 
REMARK    4  A    between atoms: C_12  and  C_11 
REMARK       I    between atoms: N_16  and  C_12 
REMARK    5  A    between atoms: C_15  and  C_17 
REMARK    6  A    between atoms: C_17  and  N_16 
ROOT
ATOM      1  C   UNL d   1      60.084  -0.928  30.004  0.00  0.00     0.102 A 
ATOM      2  N   UNL d   1      59.116  -1.471  29.119  0.00  0.00    -0.225 N 
ATOM      3  C   UNL d   1      58.512  -1.103  29.544  0.00  0.00     0.342 A 
ATOM      4  C   UNL d   1      59.475  -0.556  30.434  0.00  0.00     0.080 A 
ATOM      5  N   UNL d   1      58.696  -0.645  30.204  0.00  0.00    -0.253 N 
ATOM      6  C   UNL d   1      59.908  -1.385  29.348  0.00  0.00     0.276 A 
ATOM      7  S   UNL d   1      60.805  -0.733  30.374  0.00  0.00    -0.081 SA
ATOM      8  C   UNL d   1      59.825  -0.138  31.061  0.00  0.00     0.023 A 
ATOM      9  C   UNL d   1      60.646  -0.248  31.022  0.00  0.00     0.031 A 
ATOM     10  O   UNL d   1      57.731  -1.194  29.312  0.00  0.00    -0.245 OA
ATOM     11  O   UNL d   1      60.499  -1.753  28.922  0.00  0.00    -0.266 OA
ATOM     12  C   UNL d   1      59.496   0.325  31.655  0.00  0.00     0.002 A 
ATOM     13  C   UNL d   1      61.133   0.104  31.577  0.00  0.00     0.006 A 
ATOM     14  C   UNL d   1      59.986   0.682  32.217  0.00  0.00     0.000 A 
ATOM     15  C   UNL d   1      60.807   0.572  32.179  0.00  0.00     0.001 A 
ENDROOT
BRANCH   5  16
ATOM     16  C   UNL d   1      58.094  -0.277  30.629  0.00  0.00     0.147 C 
BRANCH  16  17
ATOM     17  C   UNL d   1      57.514  -0.735  31.007  0.00  0.00     0.297 C 
ATOM     18  N   UNL d   1      56.994  -0.379  31.529  0.00  0.00    -0.205 NA
ATOM     19  O   UNL d   1      57.465  -1.541  30.857  0.00  0.00    -0.264 OA
BRANCH  18  20
ATOM     20  C   UNL d   1      56.415  -0.841  31.906  0.00  0.00     0.103 C 
BRANCH  20  21
ATOM     21  C   UNL d   1      56.047  -0.551  32.597  0.00  0.00     0.030 A 
ATOM     22  C   UNL d   1      55.683  -1.071  33.125  0.00  0.00     0.059 A 
ATOM     23 CL   UNL d   1      55.681  -1.886  32.970  0.00  0.00    -0.082 Cl
ATOM     24  C   UNL d   1      55.323  -0.772  33.804  0.00  0.00     0.011 A 
ATOM     25  C   UNL d   1      55.326   0.040  33.956  0.00  0.00     0.001 A 
ATOM     26  C   UNL d   1      55.692   0.553  33.424  0.00  0.00     0.000 A 
ATOM     27  C   UNL d   1      56.054   0.265  32.743  0.00  0.00     0.002 A 
ENDBRANCH  20  21
ENDBRANCH  18  20
ENDBRANCH  16  17
ENDBRANCH   5  16
BRANCH   2  28
ATOM     28  C   UNL d   1      58.931  -1.933  28.455  0.00  0.00     0.087 C 
BRANCH  28  29
ATOM     29  C   UNL d   1      59.007  -2.754  28.492  0.00  0.00     0.018 A 
ATOM     30  C   UNL d   1      58.324  -3.216  28.493  0.00  0.00     0.002 A 
ATOM     31  C   UNL d   1      58.400  -4.045  28.530  0.00  0.00     0.000 A 
ATOM     32  C   UNL d   1      59.154  -4.391  28.564  0.00  0.00     0.000 A 
ATOM     33  C   UNL d   1      59.818  -3.913  28.562  0.00  0.00     0.000 A 
ATOM     34  C   UNL d   1      59.747  -3.093  28.525  0.00  0.00     0.002 A 
ENDBRANCH  28  29
ENDBRANCH   2  28
TORSDOF 6
ENDMDL
