MODEL 1
REMARK VINA RESULT:      -7.4      0.000      0.000
REMARK  4 active torsions:
REMARK  status: ('A' for Active; 'I' for Inactive)
REMARK    1  A    between atoms: C_7  and  N_2 
REMARK    2  A    between atoms: C_12  and  C_7 
REMARK    3  A    between atoms: C_9  and  O_11 
REMARK    4  A    between atoms: O_11  and  C_12 
ROOT
ATOM      1  C   UNL d   1     -49.548  13.938  21.719  0.00  0.00     0.296 A 
ATOM      2  N   UNL d   1     -49.110  14.409  22.231  0.00  0.00    -0.266 N 
ATOM      3  S   UNL d   1     -50.359  14.082  21.872  0.00  0.00    -0.025 SA
ATOM      4  C   UNL d   1     -49.639  14.843  22.700  0.00  0.00     0.074 A 
ATOM      5  C   UNL d   1     -50.405  14.643  22.480  0.00  0.00     0.050 A 
ATOM      6  O   UNL d   1     -49.251  13.419  21.157  0.00  0.00    -0.259 OA
ATOM      7  C   UNL d   1     -49.508  15.396  23.301  0.00  0.00     0.018 A 
ATOM      8  C   UNL d   1     -51.056  14.992  22.855  0.00  0.00     0.008 A 
ATOM      9  C   UNL d   1     -50.156  15.746  23.677  0.00  0.00     0.002 A 
ATOM     10  C   UNL d   1     -50.922  15.546  23.457  0.00  0.00     0.001 A 
ENDROOT
BRANCH   2  11
ATOM     11  C   UNL d   1     -48.287  14.444  22.273  0.00  0.00     0.110 C 
BRANCH  11  12
ATOM     12  C   UNL d   1     -47.854  13.783  22.501  0.00  0.00     0.142 C 
BRANCH  12  13
ATOM     13  O   UNL d   1     -47.149  13.861  22.929  0.00  0.00    -0.304 OA
BRANCH  13  14
ATOM     14  C   UNL d   1     -46.565  13.282  22.879  0.00  0.00     0.100 A 
ATOM     15  C   UNL d   1     -46.639  12.584  23.314  0.00  0.00     0.025 A 
ATOM     16  C   UNL d   1     -46.057  12.008  23.263  0.00  0.00     0.002 A 
ATOM     17  C   UNL d   1     -46.132  11.311  23.697  0.00  0.00     0.000 C 
ATOM     18  C   UNL d   1     -45.400  12.130  22.779  0.00  0.00     0.000 A 
ATOM     19  C   UNL d   1     -45.330  12.832  22.345  0.00  0.00     0.002 A 
ATOM     20  C   UNL d   1     -45.917  13.404  22.401  0.00  0.00     0.025 A 
ENDBRANCH  13  14
ENDBRANCH  12  13
ENDBRANCH  11  12
ENDBRANCH   2  11
TORSDOF 4
ENDMDL
MODEL 2
REMARK VINA RESULT:      -7.3      0.960      1.799
REMARK  4 active torsions:
REMARK  status: ('A' for Active; 'I' for Inactive)
REMARK    1  A    between atoms: C_7  and  N_2 
REMARK    2  A    between atoms: C_12  and  C_7 
REMARK    3  A    between atoms: C_9  and  O_11 
REMARK    4  A    between atoms: O_11  and  C_12 
ROOT
ATOM      1  C   UNL d   1     -49.652  15.153  23.077  0.00  0.00     0.296 A 
ATOM      2  N   UNL d   1     -49.177  14.715  22.568  0.00  0.00    -0.266 N 
ATOM      3  S   UNL d   1     -50.445  14.910  22.958  0.00  0.00    -0.025 SA
ATOM      4  C   UNL d   1     -49.666  14.204  22.135  0.00  0.00     0.074 A 
ATOM      5  C   UNL d   1     -50.443  14.323  22.374  0.00  0.00     0.050 A 
ATOM      6  O   UNL d   1     -49.400  15.726  23.609  0.00  0.00    -0.259 OA
ATOM      7  C   UNL d   1     -49.490  13.645  21.551  0.00  0.00     0.018 A 
ATOM      8  C   UNL d   1     -51.060  13.886  22.034  0.00  0.00     0.008 A 
ATOM      9  C   UNL d   1     -50.104  13.207  21.211  0.00  0.00     0.002 A 
ATOM     10  C   UNL d   1     -50.880  13.326  21.450  0.00  0.00     0.001 A 
ENDROOT
BRANCH   2  11
ATOM     11  C   UNL d   1     -48.358  14.773  22.499  0.00  0.00     0.110 C 
BRANCH  11  12
ATOM     12  C   UNL d   1     -47.868  14.248  22.902  0.00  0.00     0.142 C 
BRANCH  12  13
ATOM     13  O   UNL d   1     -47.046  14.349  22.905  0.00  0.00    -0.304 OA
BRANCH  13  14
ATOM     14  C   UNL d   1     -46.547  13.693  22.910  0.00  0.00     0.100 A 
ATOM     15  C   UNL d   1     -45.910  13.657  22.386  0.00  0.00     0.025 A 
ATOM     16  C   UNL d   1     -45.413  13.004  22.392  0.00  0.00     0.002 A 
ATOM     17  C   UNL d   1     -44.777  12.969  21.868  0.00  0.00     0.000 C 
ATOM     18  C   UNL d   1     -45.554  12.387  22.921  0.00  0.00     0.000 A 
ATOM     19  C   UNL d   1     -46.194  12.427  23.445  0.00  0.00     0.002 A 
ATOM     20  C   UNL d   1     -46.686  13.084  23.433  0.00  0.00     0.025 A 
ENDBRANCH  13  14
ENDBRANCH  12  13
ENDBRANCH  11  12
ENDBRANCH   2  11
TORSDOF 4
ENDMDL
MODEL 3
REMARK VINA RESULT:      -7.1      1.092      1.470
REMARK  4 active torsions:
REMARK  status: ('A' for Active; 'I' for Inactive)
REMARK    1  A    between atoms: C_7  and  N_2 
REMARK    2  A    between atoms: C_12  and  C_7 
REMARK    3  A    between atoms: C_9  and  O_11 
REMARK    4  A    between atoms: O_11  and  C_12 
ROOT
ATOM      1  C   UNL d   1     -50.261  12.897  22.109  0.00  0.00     0.296 A 
ATOM      2  N   UNL d   1     -49.965  13.145  22.835  0.00  0.00    -0.266 N 
ATOM      3  S   UNL d   1     -50.727  13.520  21.799  0.00  0.00    -0.025 SA
ATOM      4  C   UNL d   1     -50.242  13.913  22.978  0.00  0.00     0.074 A 
ATOM      5  C   UNL d   1     -50.709  14.143  22.343  0.00  0.00     0.050 A 
ATOM      6  O   UNL d   1     -50.128  12.171  21.749  0.00  0.00    -0.259 OA
ATOM      7  C   UNL d   1     -50.120  14.427  23.615  0.00  0.00     0.018 A 
ATOM      8  C   UNL d   1     -51.064  14.893  22.330  0.00  0.00     0.008 A 
ATOM      9  C   UNL d   1     -50.474  15.175  23.606  0.00  0.00     0.002 A 
ATOM     10  C   UNL d   1     -50.941  15.405  22.970  0.00  0.00     0.001 A 
ENDROOT
BRANCH   2  11
ATOM     11  C   UNL d   1     -49.478  12.706  23.336  0.00  0.00     0.110 C 
BRANCH  11  12
ATOM     12  C   UNL d   1     -48.687  12.584  23.144  0.00  0.00     0.142 C 
BRANCH  12  13
ATOM     13  O   UNL d   1     -48.158  12.268  23.697  0.00  0.00    -0.304 OA
BRANCH  13  14
ATOM     14  C   UNL d   1     -47.359  12.187  23.509  0.00  0.00     0.100 A 
ATOM     15  C   UNL d   1     -46.959  12.805  23.135  0.00  0.00     0.025 A 
ATOM     16  C   UNL d   1     -46.165  12.724  22.949  0.00  0.00     0.002 A 
ATOM     17  C   UNL d   1     -45.766  13.342  22.576  0.00  0.00     0.000 C 
ATOM     18  C   UNL d   1     -45.769  12.024  23.137  0.00  0.00     0.000 A 
ATOM     19  C   UNL d   1     -46.174  11.407  23.512  0.00  0.00     0.002 A 
ATOM     20  C   UNL d   1     -46.970  11.497  23.695  0.00  0.00     0.025 A 
ENDBRANCH  13  14
ENDBRANCH  12  13
ENDBRANCH  11  12
ENDBRANCH   2  11
TORSDOF 4
ENDMDL
MODEL 4
REMARK VINA RESULT:      -4.6      1.104      1.698
REMARK  4 active torsions:
REMARK  status: ('A' for Active; 'I' for Inactive)
REMARK    1  A    between atoms: C_7  and  N_2 
REMARK    2  A    between atoms: C_12  and  C_7 
REMARK    3  A    between atoms: C_9  and  O_11 
REMARK    4  A    between atoms: O_11  and  C_12 
ROOT
ATOM      1  C   UNL d   1     -48.793  12.648  21.600  0.00  0.00     0.296 A 
ATOM      2  N   UNL d   1     -48.659  12.869  22.380  0.00  0.00    -0.266 N 
ATOM      3  S   UNL d   1     -49.311  13.213  21.260  0.00  0.00    -0.025 SA
ATOM      4  C   UNL d   1     -49.087  13.564  22.528  0.00  0.00     0.074 A 
ATOM      5  C   UNL d   1     -49.486  13.775  21.843  0.00  0.00     0.050 A 
ATOM      6  O   UNL d   1     -48.480  11.992  21.216  0.00  0.00    -0.259 OA
ATOM      7  C   UNL d   1     -49.156  14.027  23.211  0.00  0.00     0.018 A 
ATOM      8  C   UNL d   1     -49.963  14.453  21.823  0.00  0.00     0.008 A 
ATOM      9  C   UNL d   1     -49.631  14.704  23.195  0.00  0.00     0.002 A 
ATOM     10  C   UNL d   1     -50.031  14.914  22.509  0.00  0.00     0.001 A 
ENDROOT
BRANCH   2  11
ATOM     11  C   UNL d   1     -48.182  12.470  22.922  0.00  0.00     0.110 C 
BRANCH  11  12
ATOM     12  C   UNL d   1     -47.363  12.487  22.846  0.00  0.00     0.142 C 
BRANCH  12  13
ATOM     13  O   UNL d   1     -46.871  12.334  23.494  0.00  0.00    -0.304 OA
BRANCH  13  14
ATOM     14  C   UNL d   1     -46.205  11.857  23.408  0.00  0.00     0.100 A 
ATOM     15  C   UNL d   1     -45.529  12.156  23.040  0.00  0.00     0.025 A 
ATOM     16  C   UNL d   1     -44.866  11.681  22.955  0.00  0.00     0.002 A 
ATOM     17  C   UNL d   1     -44.192  11.980  22.587  0.00  0.00     0.000 C 
ATOM     18  C   UNL d   1     -44.879  10.905  23.237  0.00  0.00     0.000 A 
ATOM     19  C   UNL d   1     -45.559  10.609  23.606  0.00  0.00     0.002 A 
ATOM     20  C   UNL d   1     -46.218  11.092  23.687  0.00  0.00     0.025 A 
ENDBRANCH  13  14
ENDBRANCH  12  13
ENDBRANCH  11  12
ENDBRANCH   2  11
TORSDOF 4
ENDMDL
MODEL 5
REMARK VINA RESULT:      -4.4      1.613      2.224
REMARK  4 active torsions:
REMARK  status: ('A' for Active; 'I' for Inactive)
REMARK    1  A    between atoms: C_7  and  N_2 
REMARK    2  A    between atoms: C_12  and  C_7 
REMARK    3  A    between atoms: C_9  and  O_11 
REMARK    4  A    between atoms: O_11  and  C_12 
ROOT
ATOM      1  C   UNL d   1     -48.750  12.010  22.682  0.00  0.00     0.296 A 
ATOM      2  N   UNL d   1     -48.204  12.496  23.060  0.00  0.00    -0.266 N 
ATOM      3  S   UNL d   1     -49.257  12.501  22.231  0.00  0.00    -0.025 SA
ATOM      4  C   UNL d   1     -48.368  13.281  22.848  0.00  0.00     0.074 A 
ATOM      5  C   UNL d   1     -49.013  13.284  22.341  0.00  0.00     0.050 A 
ATOM      6  O   UNL d   1     -48.794  11.192  22.734  0.00  0.00    -0.259 OA
ATOM      7  C   UNL d   1     -48.000  13.991  23.062  0.00  0.00     0.018 A 
ATOM      8  C   UNL d   1     -49.305  13.998  22.035  0.00  0.00     0.008 A 
ATOM      9  C   UNL d   1     -48.290  14.704  22.759  0.00  0.00     0.002 A 
ATOM     10  C   UNL d   1     -48.935  14.707  22.251  0.00  0.00     0.001 A 
ENDROOT
BRANCH   2  11
ATOM     11  C   UNL d   1     -47.599  12.247  23.562  0.00  0.00     0.110 C 
BRANCH  11  12
ATOM     12  C   UNL d   1     -46.888  11.973  23.252  0.00  0.00     0.142 C 
BRANCH  12  13
ATOM     13  O   UNL d   1     -46.388  11.486  23.698  0.00  0.00    -0.304 OA
BRANCH  13  14
ATOM     14  C   UNL d   1     -45.611  11.354  23.455  0.00  0.00     0.100 A 
ATOM     15  C   UNL d   1     -45.219  10.666  23.688  0.00  0.00     0.025 A 
ATOM     16  C   UNL d   1     -44.446  10.535  23.447  0.00  0.00     0.002 A 
ATOM     17  C   UNL d   1     -44.055   9.848  23.680  0.00  0.00     0.000 C 
ATOM     18  C   UNL d   1     -44.065  11.092  22.972  0.00  0.00     0.000 A 
ATOM     19  C   UNL d   1     -44.462  11.781  22.740  0.00  0.00     0.002 A 
ATOM     20  C   UNL d   1     -45.237  11.904  22.987  0.00  0.00     0.025 A 
ENDBRANCH  13  14
ENDBRANCH  12  13
ENDBRANCH  11  12
ENDBRANCH   2  11
TORSDOF 4
ENDMDL
