MODEL 1
REMARK VINA RESULT:      32.6      0.000      0.000
REMARK  6 active torsions:
REMARK  status: ('A' for Active; 'I' for Inactive)
REMARK       I    between atoms: C_5  and  N_1 
REMARK    1  A    between atoms: C_10  and  C_5 
REMARK    2  A    between atoms: C_7  and  C_13 
REMARK       I    between atoms: N_8  and  C_7 
REMARK    3  A    between atoms: C_12  and  N_8 
REMARK    4  A    between atoms: C_13  and  C_10 
REMARK    5  A    between atoms: O_20  and  C_14 
REMARK    6  A    between atoms: C_22  and  O_20 
ROOT
ATOM      1  C   UNL d   1     -55.415 -99.275 -45.066  0.00  0.00     0.279 C 
ATOM      2  N   UNL d   1     -54.733 -99.662 -44.840  0.00  0.00    -0.208 NA
ATOM      3  O   UNL d   1     -55.421 -98.795 -45.752  0.00  0.00    -0.265 OA
ENDROOT
BRANCH   1   4
ATOM      4  C   UNL d   1     -56.089 -99.355 -44.623  0.00  0.00     0.068 C 
BRANCH   4   5
ATOM      5  C   UNL d   1     -56.654 -98.759 -44.615  0.00  0.00     0.068 C 
BRANCH   5   6
ATOM      6  C   UNL d   1     -57.276 -98.782 -44.072  0.00  0.00     0.281 C 
ATOM      7  N   UNL d   1     -58.062 -98.804 -44.347  0.00  0.00    -0.195 N 
ATOM      8  N   UNL d   1     -58.391 -98.807 -45.095  0.00  0.00    -0.163 NA
ATOM      9  C   UNL d   1     -58.678 -98.827 -43.801  0.00  0.00     0.088 A 
ATOM     10  C   UNL d   1     -59.229 -98.833 -45.014  0.00  0.00     0.103 A 
ATOM     11  C   UNL d   1     -59.794 -98.845 -45.618  0.00  0.00     0.022 C 
ATOM     12  C   UNL d   1     -59.388 -98.845 -44.219  0.00  0.00     0.040 A 
ATOM     13  C   UNL d   1     -58.609 -98.833 -42.971  0.00  0.00     0.021 C 
ATOM     14  O   UNL d   1     -57.116 -98.785 -43.259  0.00  0.00    -0.265 OA
ENDBRANCH   5   6
ENDBRANCH   4   5
ENDBRANCH   1   4
BRANCH   2  15
ATOM     15  C   UNL d   1     -54.730-100.135 -44.162  0.00  0.00     0.085 A 
ATOM     16  C   UNL d   1     -54.717 -99.784 -43.407  0.00  0.00     0.021 A 
ATOM     17  C   UNL d   1     -54.713-100.257 -42.729  0.00  0.00     0.026 A 
ATOM     18  C   UNL d   1     -54.723-101.065 -42.805  0.00  0.00     0.100 A 
ATOM     19  C   UNL d   1     -54.736-101.422 -43.556  0.00  0.00     0.026 A 
ATOM     20  C   UNL d   1     -54.739-100.958 -44.234  0.00  0.00     0.021 A 
BRANCH  18  21
ATOM     21  O   UNL d   1     -54.719-101.526 -42.114  0.00  0.00    -0.305 OA
BRANCH  21  22
ATOM     22  C   UNL d   1     -55.028-102.282 -42.117  0.00  0.00     0.123 C 
ATOM     23  C   UNL d   1     -54.937-102.769 -41.463  0.00  0.00     0.029 C 
ENDBRANCH  21  22
ENDBRANCH  18  21
ENDBRANCH   2  15
TORSDOF 6
ENDMDL
