MODEL 1
REMARK VINA RESULT:      57.9      0.000      0.000
REMARK  8 active torsions:
REMARK  status: ('A' for Active; 'I' for Inactive)
REMARK    1  A    between atoms: C_3  and  C_1 
REMARK    2  A    between atoms: N_4  and  C_2 
REMARK    3  A    between atoms: O_21  and  C_3 
REMARK       I    between atoms: C_11  and  N_4 
REMARK    4  A    between atoms: C_6  and  C_7 
REMARK    5  A    between atoms: O_22  and  C_6 
REMARK    6  A    between atoms: C_10  and  C_20 
REMARK    7  A    between atoms: C_19  and  C_11 
REMARK    8  A    between atoms: C_20  and  C_19 
ROOT
ATOM      1  C   UNL d   1     -47.450  30.594  35.480  0.00  0.00     0.081 A 
ATOM      2  C   UNL d   1     -47.991  30.472  34.871  0.00  0.00     0.090 A 
ATOM      3  C   UNL d   1     -47.956  31.856  34.544  0.00  0.00     0.065 A 
ATOM      4  C   UNL d   1     -48.245  31.097  34.402  0.00  0.00     0.025 A 
ATOM      5  C   UNL d   1     -47.161  31.353  35.622  0.00  0.00     0.007 A 
ATOM      6  C   UNL d   1     -47.414  31.985  35.153  0.00  0.00     0.006 A 
ENDROOT
BRANCH   2   7
ATOM      7  N   UNL d   1     -48.277  29.713  34.734  0.00  0.00    -0.208 NA
ATOM      8  C   UNL d   1     -48.936  29.602  34.243  0.00  0.00     0.279 C 
ATOM      9  O   UNL d   1     -49.299  30.259  33.895  0.00  0.00    -0.265 OA
BRANCH   8  10
ATOM     10  C   UNL d   1     -49.222  28.846  34.105  0.00  0.00     0.065 C 
BRANCH  10  11
ATOM     11  C   UNL d   1     -49.761  28.714  33.489  0.00  0.00     0.030 C 
BRANCH  11  12
ATOM     12  C   UNL d   1     -50.185  28.011  33.458  0.00  0.00     0.100 A 
ATOM     13  O   UNL d   1     -51.004  27.937  33.380  0.00  0.00    -0.307 OA
ATOM     14  C   UNL d   1     -51.182  27.141  33.374  0.00  0.00     0.100 A 
ATOM     15  C   UNL d   1     -51.938  26.817  33.306  0.00  0.00     0.027 C 
ATOM     16  C   UNL d   1     -50.487  26.714  33.448  0.00  0.00     0.027 A 
ATOM     17  C   UNL d   1     -49.870  27.241  33.500  0.00  0.00     0.027 A 
ENDBRANCH  11  12
ENDBRANCH  10  11
ENDBRANCH   8  10
ENDBRANCH   2   7
BRANCH   1  18
ATOM     18  C   UNL d   1     -47.203  29.959  35.943  0.00  0.00     0.297 C 
ATOM     19  O   UNL d   1     -47.588  29.783  36.645  0.00  0.00    -0.259 OA
BRANCH  18  20
ATOM     20  O   UNL d   1     -46.564  29.498  35.700  0.00  0.00    -0.296 OA
ATOM     21  C   UNL d   1     -46.305  28.872  36.177  0.00  0.00     0.185 C 
ENDBRANCH  18  20
ENDBRANCH   1  18
BRANCH   3  22
ATOM     22  C   UNL d   1     -48.208  32.488  34.075  0.00  0.00     0.296 C 
ATOM     23  O   UNL d   1     -48.852  32.949  34.308  0.00  0.00    -0.259 OA
BRANCH  22  24
ATOM     24  O   UNL d   1     -47.816  32.663  33.369  0.00  0.00    -0.296 OA
ATOM     25  C   UNL d   1     -47.363  33.349  33.306  0.00  0.00     0.185 C 
ENDBRANCH  22  24
ENDBRANCH   3  22
TORSDOF 8
ENDMDL
MODEL 2
REMARK VINA RESULT:      59.0      2.413      6.179
REMARK  8 active torsions:
REMARK  status: ('A' for Active; 'I' for Inactive)
REMARK    1  A    between atoms: C_3  and  C_1 
REMARK    2  A    between atoms: N_4  and  C_2 
REMARK    3  A    between atoms: O_21  and  C_3 
REMARK       I    between atoms: C_11  and  N_4 
REMARK    4  A    between atoms: C_6  and  C_7 
REMARK    5  A    between atoms: O_22  and  C_6 
REMARK    6  A    between atoms: C_10  and  C_20 
REMARK    7  A    between atoms: C_19  and  C_11 
REMARK    8  A    between atoms: C_20  and  C_19 
ROOT
ATOM      1  C   UNL d   1     -50.385  24.668  33.346  0.00  0.00     0.081 A 
ATOM      2  C   UNL d   1     -50.568  25.471  33.368  0.00  0.00     0.090 A 
ATOM      3  C   UNL d   1     -51.958  25.169  33.328  0.00  0.00     0.065 A 
ATOM      4  C   UNL d   1     -51.349  25.725  33.359  0.00  0.00     0.025 A 
ATOM      5  C   UNL d   1     -50.993  24.113  33.315  0.00  0.00     0.007 A 
ATOM      6  C   UNL d   1     -51.780  24.363  33.306  0.00  0.00     0.006 A 
ENDROOT
BRANCH   2   7
ATOM      7  N   UNL d   1     -49.957  26.021  33.399  0.00  0.00    -0.208 NA
ATOM      8  C   UNL d   1     -49.851  26.482  34.080  0.00  0.00     0.279 C 
ATOM      9  O   UNL d   1     -50.361  26.382  34.723  0.00  0.00    -0.265 OA
BRANCH   8  10
ATOM     10  C   UNL d   1     -49.242  27.031  34.114  0.00  0.00     0.065 C 
BRANCH  10  11
ATOM     11  C   UNL d   1     -48.998  27.333  34.846  0.00  0.00     0.030 C 
BRANCH  11  12
ATOM     12  C   UNL d   1     -48.497  27.984  34.874  0.00  0.00     0.100 A 
ATOM     13  O   UNL d   1     -48.647  28.699  35.260  0.00  0.00    -0.307 OA
ATOM     14  C   UNL d   1     -48.002  29.184  35.143  0.00  0.00     0.100 A 
ATOM     15  C   UNL d   1     -47.917  29.953  35.433  0.00  0.00     0.027 C 
ATOM     16  C   UNL d   1     -47.449  28.784  34.689  0.00  0.00     0.027 A 
ATOM     17  C   UNL d   1     -47.746  28.047  34.520  0.00  0.00     0.027 A 
ENDBRANCH  11  12
ENDBRANCH  10  11
ENDBRANCH   8  10
ENDBRANCH   2   7
BRANCH   1  18
ATOM     18  C   UNL d   1     -49.597  24.426  33.355  0.00  0.00     0.297 C 
ATOM     19  O   UNL d   1     -48.994  24.979  33.316  0.00  0.00    -0.259 OA
BRANCH  18  20
ATOM     20  O   UNL d   1     -49.415  23.623  33.404  0.00  0.00    -0.296 OA
ATOM     21  C   UNL d   1     -49.159  23.303  34.124  0.00  0.00     0.185 C 
ENDBRANCH  18  20
ENDBRANCH   1  18
BRANCH   3  22
ATOM     22  C   UNL d   1     -52.745  25.419  33.319  0.00  0.00     0.296 C 
ATOM     23  O   UNL d   1     -53.359  24.867  33.322  0.00  0.00    -0.259 OA
BRANCH  22  24
ATOM     24  O   UNL d   1     -52.923  26.226  33.307  0.00  0.00    -0.296 OA
ATOM     25  C   UNL d   1     -53.534  26.523  33.776  0.00  0.00     0.185 C 
ENDBRANCH  22  24
ENDBRANCH   3  22
TORSDOF 8
ENDMDL
