MODEL 1
REMARK VINA RESULT:      16.8      0.000      0.000
REMARK  5 active torsions:
REMARK  status: ('A' for Active; 'I' for Inactive)
REMARK    1  A    between atoms: C_6  and  C_1 
REMARK    2  A    between atoms: C_3  and  C_5 
REMARK    3  A    between atoms: C_5  and  C_6 
REMARK    4  A    between atoms: C_17  and  C_13 
REMARK    5  A    between atoms: C_20  and  C_17 
ROOT
ATOM      1  C   UNL d   1      46.145 -17.270  44.015  0.00  0.00     0.201 C 
ATOM      2  O   UNL d   1      46.396 -17.148  44.794  0.00  0.00    -0.286 OA
ENDROOT
BRANCH   1   3
ATOM      3  C   UNL d   1      46.268 -18.009  43.668  0.00  0.00     0.078 A 
ATOM      4  C   UNL d   1      46.266 -18.694  44.142  0.00  0.00     0.202 A 
ATOM      5  C   UNL d   1      46.389 -19.432  43.795  0.00  0.00     0.084 A 
ATOM      6  O   UNL d   1      46.141 -18.629  44.955  0.00  0.00    -0.286 OA
ATOM      7  C   UNL d   1      46.512 -19.492  42.990  0.00  0.00     0.199 A 
ATOM      8  C   UNL d   1      46.514 -18.807  42.516  0.00  0.00     0.039 A 
ATOM      9  O   UNL d   1      46.635 -20.242  42.652  0.00  0.00    -0.286 OA
ATOM     10  C   UNL d   1      46.393 -18.088  42.860  0.00  0.00     0.010 A 
BRANCH   8  11
ATOM     11  C   UNL d   1      46.640 -18.889  41.703  0.00  0.00     0.003 C 
BRANCH  11  12
ATOM     12  C   UNL d   1      46.275 -18.393  41.156  0.00  0.00     0.000 C 
ATOM     13  C   UNL d   1      46.533 -18.346  40.377  0.00  0.00     0.000 C 
ENDBRANCH  11  12
ENDBRANCH   8  11
ENDBRANCH   1   3
BRANCH   1  14
ATOM     14  C   UNL d   1      45.777 -16.655  43.599  0.00  0.00     0.068 C 
BRANCH  14  15
ATOM     15  C   UNL d   1      45.741 -15.899  43.908  0.00  0.00     0.114 A 
ATOM     16  N   UNL d   1      46.387 -15.436  44.134  0.00  0.00    -0.238 NA
ATOM     17  C   UNL d   1      46.091 -14.718  44.413  0.00  0.00     0.088 A 
ATOM     18  C   UNL d   1      46.469 -14.054  44.707  0.00  0.00     0.020 A 
ATOM     19  C   UNL d   1      45.273 -14.734  44.362  0.00  0.00     0.049 A 
ATOM     20  C   UNL d   1      46.036 -13.394  44.955  0.00  0.00     0.002 A 
ATOM     21  C   UNL d   1      45.205 -13.419  44.899  0.00  0.00     0.001 A 
ATOM     22  C   UNL d   1      44.827 -14.083  44.605  0.00  0.00     0.008 A 
ATOM     23  S   UNL d   1      45.037 -15.470  44.046  0.00  0.00    -0.066 SA
ENDBRANCH  14  15
ENDBRANCH   1  14
TORSDOF 5
ENDMDL
