MODEL 1
REMARK VINA RESULT:     121.0      0.000      0.000
REMARK  8 active torsions:
REMARK  status: ('A' for Active; 'I' for Inactive)
REMARK    1  A    between atoms: N_3  and  C_1 
REMARK    2  A    between atoms: S_2  and  C_9 
REMARK    3  A    between atoms: N_10  and  S_2 
REMARK       I    between atoms: C_8  and  N_3 
REMARK    4  A    between atoms: C_15  and  C_8 
REMARK    5  A    between atoms: C_27  and  N_10 
REMARK       I    between atoms: C_16  and  N_17 
REMARK    6  A    between atoms: N_17  and  C_18 
REMARK    7  A    between atoms: C_30  and  C_27 
REMARK    8  A    between atoms: C_31  and  C_30 
ROOT
ATOM      1  N   UNL d   1      61.794  45.236  50.843  0.00  0.00    -0.184 NA
ATOM      2  C   UNL d   1      61.576  45.674  50.179  0.00  0.00     0.281 C 
ATOM      3  O   UNL d   1      61.548  45.314  49.428  0.00  0.00    -0.265 OA
ENDROOT
BRANCH   2   4
ATOM      4  C   UNL d   1      61.383  46.473  50.253  0.00  0.00     0.058 A 
ATOM      5  C   UNL d   1      61.835  47.046  49.867  0.00  0.00     0.005 A 
ATOM      6  C   UNL d   1      61.641  47.844  49.942  0.00  0.00     0.013 A 
ATOM      7  C   UNL d   1      60.997  48.083  50.402  0.00  0.00     0.104 A 
ATOM      8  C   UNL d   1      60.545  47.511  50.788  0.00  0.00     0.013 A 
ATOM      9  C   UNL d   1      60.738  46.707  50.714  0.00  0.00     0.005 A 
BRANCH   7  10
ATOM     10  S   UNL d   1      60.804  48.894  50.475  0.00  0.00     0.271 S 
ATOM     11  O   UNL d   1      60.613  49.697  50.558  0.00  0.00    -0.200 OA
ATOM     12  O   UNL d   1      60.802  48.971  49.660  0.00  0.00    -0.200 OA
BRANCH  10  13
ATOM     13  N   UNL d   1      60.808  48.807  51.304  0.00  0.00    -0.228 N 
ATOM     14  C   UNL d   1      61.362  48.310  51.672  0.00  0.00     0.111 C 
BRANCH  13  15
ATOM     15  C   UNL d   1      60.259  49.218  51.761  0.00  0.00     0.092 C 
BRANCH  15  16
ATOM     16  C   UNL d   1      60.514  49.674  52.391  0.00  0.00     0.020 C 
BRANCH  16  17
ATOM     17  C   UNL d   1      60.075  49.703  53.076  0.00  0.00     0.002 C 
ATOM     18  C   UNL d   1      60.467  49.692  53.819  0.00  0.00     0.000 C 
ENDBRANCH  16  17
ENDBRANCH  15  16
ENDBRANCH  13  15
ENDBRANCH  10  13
ENDBRANCH   7  10
ENDBRANCH   2   4
BRANCH   1  19
ATOM     19  C   UNL d   1      61.989  44.430  50.765  0.00  0.00     0.182 A 
ATOM     20  N   UNL d   1      61.782  43.835  51.293  0.00  0.00    -0.283 N 
ATOM     21  C   UNL d   1      62.078  43.118  51.018  0.00  0.00     0.072 A 
ATOM     22  C   UNL d   1      61.342  43.945  51.995  0.00  0.00     0.101 C 
ATOM     23  C   UNL d   1      62.039  42.347  51.321  0.00  0.00     0.020 A 
ATOM     24  C   UNL d   1      62.477  43.252  50.310  0.00  0.00     0.050 A 
ATOM     25  C   UNL d   1      62.396  41.730  50.913  0.00  0.00     0.021 A 
ATOM     26  C   UNL d   1      62.793  41.868  50.206  0.00  0.00     0.085 A 
ATOM     27  C   UNL d   1      62.835  42.635  49.901  0.00  0.00     0.027 A 
ATOM     28  S   UNL d   1      62.423  44.068  50.151  0.00  0.00    -0.048 SA
BRANCH  26  29
ATOM     29  N   UNL d   1      63.155  41.234  49.795  0.00  0.00    -0.208 NA
ATOM     30  C   UNL d   1      62.736  40.523  49.694  0.00  0.00     0.279 C 
ATOM     31  O   UNL d   1      63.087  39.896  49.292  0.00  0.00    -0.265 OA
ATOM     32  C   UNL d   1      61.972  40.456  50.001  0.00  0.00     0.068 C 
ENDBRANCH  26  29
ENDBRANCH   1  19
TORSDOF 8
ENDMDL
