MODEL 1
REMARK VINA RESULT:      41.5      0.000      0.000
REMARK  1 active torsions:
REMARK  status: ('A' for Active; 'I' for Inactive)
REMARK    1  A    between atoms: C_10  and  C_4 
ROOT
ATOM      1  N   UNL d   1     -58.553 -98.830 -43.221  0.00  0.00    -0.202 N 
ATOM      2  C   UNL d   1     -58.099 -98.826 -43.910  0.00  0.00     0.166 A 
ATOM      3  N   UNL d   1     -58.031 -98.811 -42.571  0.00  0.00    -0.163 NA
ATOM      4  C   UNL d   1     -57.295 -98.805 -43.687  0.00  0.00     0.055 A 
ATOM      5  C   UNL d   1     -59.379 -98.851 -43.271  0.00  0.00     0.143 A 
ATOM      6  C   UNL d   1     -57.268 -98.796 -42.867  0.00  0.00     0.104 A 
ATOM      7  N   UNL d   1     -58.465 -98.842 -44.645  0.00  0.00    -0.227 NA
ATOM      8  C   UNL d   1     -59.747 -98.867 -44.012  0.00  0.00     0.050 A 
ATOM      9  C   UNL d   1     -59.286 -98.863 -44.705  0.00  0.00     0.086 A 
ATOM     10 CL   UNL d   1     -59.836 -98.855 -42.586  0.00  0.00    -0.061 Cl
ATOM     11  C   UNL d   1     -56.580 -98.775 -42.413  0.00  0.00     0.023 C 
ATOM     12  C   UNL d   1     -59.653 -98.879 -45.441  0.00  0.00     0.021 C 
ENDROOT
BRANCH   4  13
ATOM     13  C   UNL d   1     -56.648 -98.794 -44.200  0.00  0.00     0.004 A 
ATOM     14  C   UNL d   1     -55.881 -98.810 -43.896  0.00  0.00     0.001 A 
ATOM     15  C   UNL d   1     -55.239 -98.799 -44.408  0.00  0.00     0.011 A 
ATOM     16  C   UNL d   1     -55.354 -98.773 -45.224  0.00  0.00     0.058 A 
ATOM     17  C   UNL d   1     -56.117 -98.757 -45.529  0.00  0.00     0.011 A 
ATOM     18 CL   UNL d   1     -54.712 -98.763 -45.731  0.00  0.00    -0.082 Cl
ATOM     19  C   UNL d   1     -56.769 -98.768 -45.020  0.00  0.00     0.001 A 
ENDBRANCH   4  13
TORSDOF 1
ENDMDL
MODEL 2
REMARK VINA RESULT:      43.6      1.210      2.076
REMARK  1 active torsions:
REMARK  status: ('A' for Active; 'I' for Inactive)
REMARK    1  A    between atoms: C_10  and  C_4 
ROOT
ATOM      1  N   UNL d   1     -58.606 -98.856 -45.378  0.00  0.00    -0.202 N 
ATOM      2  C   UNL d   1     -58.138 -98.860 -44.699  0.00  0.00     0.166 A 
ATOM      3  N   UNL d   1     -58.097 -98.859 -46.039  0.00  0.00    -0.163 NA
ATOM      4  C   UNL d   1     -57.338 -98.865 -44.937  0.00  0.00     0.055 A 
ATOM      5  C   UNL d   1     -59.432 -98.851 -45.311  0.00  0.00     0.143 A 
ATOM      6  C   UNL d   1     -57.328 -98.864 -45.758  0.00  0.00     0.104 A 
ATOM      7  N   UNL d   1     -58.490 -98.858 -43.956  0.00  0.00    -0.227 NA
ATOM      8  C   UNL d   1     -59.785 -98.849 -44.563  0.00  0.00     0.050 A 
ATOM      9  C   UNL d   1     -59.310 -98.853 -43.880  0.00  0.00     0.086 A 
ATOM     10 CL   UNL d   1     -59.902 -98.847 -45.988  0.00  0.00    -0.061 Cl
ATOM     11  C   UNL d   1     -56.648 -98.868 -46.226  0.00  0.00     0.023 C 
ATOM     12  C   UNL d   1     -59.662 -98.851 -43.137  0.00  0.00     0.021 C 
ENDROOT
BRANCH   4  13
ATOM     13  C   UNL d   1     -56.681 -98.870 -44.438  0.00  0.00     0.004 A 
ATOM     14  C   UNL d   1     -56.781 -98.771 -43.625  0.00  0.00     0.001 A 
ATOM     15  C   UNL d   1     -56.126 -98.776 -43.130  0.00  0.00     0.011 A 
ATOM     16  C   UNL d   1     -55.368 -98.879 -43.440  0.00  0.00     0.058 A 
ATOM     17  C   UNL d   1     -55.267 -98.978 -44.249  0.00  0.00     0.011 A 
ATOM     18 CL   UNL d   1     -54.717 -98.884 -42.943  0.00  0.00    -0.082 Cl
ATOM     19  C   UNL d   1     -55.921 -98.974 -44.754  0.00  0.00     0.001 A 
ENDBRANCH   4  13
TORSDOF 1
ENDMDL
MODEL 3
REMARK VINA RESULT:      44.4      6.200      7.581
REMARK  1 active torsions:
REMARK  status: ('A' for Active; 'I' for Inactive)
REMARK    1  A    between atoms: C_10  and  C_4 
ROOT
ATOM      1  N   UNL d   1     -55.090-100.600 -36.722  0.00  0.00    -0.202 N 
ATOM      2  C   UNL d   1     -55.085-101.256 -37.222  0.00  0.00     0.166 A 
ATOM      3  N   UNL d   1     -54.953 -99.923 -37.188  0.00  0.00    -0.163 NA
ATOM      4  C   UNL d   1     -54.945-100.986 -37.999  0.00  0.00     0.055 A 
ATOM      5  C   UNL d   1     -55.217-100.701 -35.910  0.00  0.00     0.143 A 
ATOM      6  C   UNL d   1     -54.867-100.170 -37.964  0.00  0.00     0.104 A 
ATOM      7  N   UNL d   1     -55.206-102.009 -36.916  0.00  0.00    -0.227 NA
ATOM      8  C   UNL d   1     -55.339-101.460 -35.602  0.00  0.00     0.050 A 
ATOM      9  C   UNL d   1     -55.334-102.119 -36.109  0.00  0.00     0.086 A 
ATOM     10 CL   UNL d   1     -55.223-100.049 -35.407  0.00  0.00    -0.061 Cl
ATOM     11  C   UNL d   1     -54.723 -99.676 -38.609  0.00  0.00     0.023 C 
ATOM     12  C   UNL d   1     -55.455-102.872 -35.803  0.00  0.00     0.021 C 
ENDROOT
BRANCH   4  13
ATOM     13  C   UNL d   1     -54.895-101.455 -38.676  0.00  0.00     0.004 A 
ATOM     14  C   UNL d   1     -54.793-101.102 -39.415  0.00  0.00     0.001 A 
ATOM     15  C   UNL d   1     -54.744-101.571 -40.088  0.00  0.00     0.011 A 
ATOM     16  C   UNL d   1     -54.796-102.392 -40.030  0.00  0.00     0.058 A 
ATOM     17  C   UNL d   1     -54.897-102.746 -39.295  0.00  0.00     0.011 A 
ATOM     18 CL   UNL d   1     -54.746-102.856 -40.703  0.00  0.00    -0.082 Cl
ATOM     19  C   UNL d   1     -54.948-102.281 -38.614  0.00  0.00     0.001 A 
ENDBRANCH   4  13
TORSDOF 1
ENDMDL
