MODEL 1
REMARK VINA RESULT:      20.0      0.000      0.000
REMARK  3 active torsions:
REMARK  status: ('A' for Active; 'I' for Inactive)
REMARK    1  A    between atoms: S_4  and  C_1 
REMARK    2  A    between atoms: N_3  and  C_2 
REMARK    3  A    between atoms: C_5  and  S_4 
ROOT
ATOM      1  C   UNL d   1      59.282  49.584  50.690  0.00  0.00     0.139 A 
ATOM      2  C   UNL d   1      60.088  49.559  50.866  0.00  0.00     0.188 A 
ATOM      3  N   UNL d   1      58.747  49.661  51.335  0.00  0.00    -0.216 NA
ATOM      4  C   UNL d   1      60.384  49.602  51.597  0.00  0.00     0.209 A 
ATOM      5  N   UNL d   1      59.869  49.680  52.274  0.00  0.00    -0.202 NA
ATOM      6  C   UNL d   1      59.033  49.708  52.112  0.00  0.00     0.201 A 
ATOM      7  N   UNL d   1      61.194  49.581  51.837  0.00  0.00    -0.125 N 
ENDROOT
BRANCH   1   8
ATOM      8  S   UNL d   1      58.991  49.542  49.975  0.00  0.00    -0.047 SA
BRANCH   8   9
ATOM      9  C   UNL d   1      58.048  49.586  50.026  0.00  0.00     0.115 A 
ATOM     10  N   UNL d   1      57.734  49.612  50.809  0.00  0.00    -0.217 NA
ATOM     11  C   UNL d   1      56.902  49.651  50.906  0.00  0.00     0.200 A 
ATOM     12  N   UNL d   1      56.405  49.663  50.258  0.00  0.00    -0.224 NA
ATOM     13  C   UNL d   1      56.727  49.636  49.474  0.00  0.00     0.085 A 
ATOM     14  C   UNL d   1      57.538  49.598  49.365  0.00  0.00     0.045 A 
ATOM     15  C   UNL d   1      56.288  49.647  48.932  0.00  0.00     0.021 C 
ENDBRANCH   8   9
ENDBRANCH   1   8
BRANCH   2  16
ATOM     16  N   UNL d   1      60.620  49.482  50.217  0.00  0.00    -0.108 N 
ATOM     17  O   UNL d   1      61.413  49.275  50.276  0.00  0.00    -0.532 OA
ATOM     18  O   UNL d   1      60.382  49.615  49.426  0.00  0.00    -0.532 OA
ENDBRANCH   2  16
TORSDOF 3
ENDMDL
MODEL 2
REMARK VINA RESULT:      22.4      1.694      3.636
REMARK  3 active torsions:
REMARK  status: ('A' for Active; 'I' for Inactive)
REMARK    1  A    between atoms: S_4  and  C_1 
REMARK    2  A    between atoms: N_3  and  C_2 
REMARK    3  A    between atoms: C_5  and  S_4 
ROOT
ATOM      1  C   UNL d   1      58.139  49.610  50.441  0.00  0.00     0.139 A 
ATOM      2  C   UNL d   1      57.333  49.530  50.278  0.00  0.00     0.188 A 
ATOM      3  N   UNL d   1      58.659  49.700  49.786  0.00  0.00    -0.216 NA
ATOM      4  C   UNL d   1      57.025  49.532  49.551  0.00  0.00     0.209 A 
ATOM      5  N   UNL d   1      57.525  49.621  48.864  0.00  0.00    -0.202 NA
ATOM      6  C   UNL d   1      58.359  49.705  49.012  0.00  0.00     0.201 A 
ATOM      7  N   UNL d   1      56.215  49.455  49.324  0.00  0.00    -0.125 N 
ENDROOT
BRANCH   1   8
ATOM      8  S   UNL d   1      58.441  49.607  51.152  0.00  0.00    -0.047 SA
BRANCH   8   9
ATOM      9  C   UNL d   1      59.384  49.625  51.083  0.00  0.00     0.115 A 
ATOM     10  N   UNL d   1      59.794  49.687  51.817  0.00  0.00    -0.217 NA
ATOM     11  C   UNL d   1      60.632  49.707  51.808  0.00  0.00     0.200 A 
ATOM     12  N   UNL d   1      61.044  49.668  51.103  0.00  0.00    -0.224 NA
ATOM     13  C   UNL d   1      60.625  49.606  50.368  0.00  0.00     0.085 A 
ATOM     14  C   UNL d   1      59.807  49.585  50.364  0.00  0.00     0.045 A 
ATOM     15  C   UNL d   1      60.993  49.573  49.777  0.00  0.00     0.021 C 
ENDBRANCH   8   9
ENDBRANCH   1   8
BRANCH   2  16
ATOM     16  N   UNL d   1      56.815  49.440  50.937  0.00  0.00    -0.108 N 
ATOM     17  O   UNL d   1      56.035  49.186  50.896  0.00  0.00    -0.532 OA
ATOM     18  O   UNL d   1      57.057  49.606  51.721  0.00  0.00    -0.532 OA
ENDBRANCH   2  16
TORSDOF 3
ENDMDL
