MODEL 1
REMARK VINA RESULT:      -3.5      0.000      0.000
REMARK  3 active torsions:
REMARK  status: ('A' for Active; 'I' for Inactive)
REMARK       I    between atoms: C_2  and  N_1 
REMARK    1  A    between atoms: C_4  and  C_2 
REMARK    2  A    between atoms: C_6  and  C_4 
REMARK    3  A    between atoms: C_10  and  C_6 
ROOT
ATOM      1  N   UNL d   1      32.672  18.399 -23.526  0.00  0.00    -0.273 N 
ATOM      2  C   UNL d   1      32.941  18.713 -22.821  0.00  0.00     0.265 C 
ATOM      3  C   UNL d   1      32.669  17.607 -23.725  0.00  0.00     0.067 A 
ATOM      4  C   UNL d   1      32.360  18.827 -24.155  0.00  0.00     0.083 A 
ATOM      5  C   UNL d   1      32.353  17.535 -24.483  0.00  0.00     0.018 A 
ATOM      6  O   UNL d   1      33.241  18.219 -22.235  0.00  0.00    -0.267 OA
ATOM      7  C   UNL d   1      32.161  18.287 -24.753  0.00  0.00     0.021 A 
ATOM      8  C   UNL d   1      32.913  16.930 -23.314  0.00  0.00     0.018 A 
ATOM      9  C   UNL d   1      32.280  16.788 -24.833  0.00  0.00     0.002 A 
ATOM     10  C   UNL d   1      32.839  16.190 -23.665  0.00  0.00     0.002 A 
ATOM     11  C   UNL d   1      32.522  16.114 -24.426  0.00  0.00     0.000 A 
ENDROOT
BRANCH   2  12
ATOM     12  C   UNL d   1      32.912  19.527 -22.693  0.00  0.00     0.061 C 
BRANCH  12  13
ATOM     13  C   UNL d   1      33.112  19.841 -21.958  0.00  0.00     0.005 C 
BRANCH  13  14
ATOM     14  C   UNL d   1      32.936  20.624 -21.791  0.00  0.00     0.002 A 
ATOM     15  C   UNL d   1      32.458  20.812 -21.145  0.00  0.00     0.030 A 
ATOM     16  C   UNL d   1      32.279  21.601 -20.973  0.00  0.00     0.140 A 
ATOM     17  F   UNL d   1      31.802  21.786 -20.330  0.00  0.00    -0.204 F 
ATOM     18  C   UNL d   1      32.581  22.206 -21.451  0.00  0.00     0.030 A 
ATOM     19  C   UNL d   1      33.061  22.016 -22.098  0.00  0.00     0.002 A 
ATOM     20  C   UNL d   1      33.239  21.229 -22.269  0.00  0.00     0.000 A 
ENDBRANCH  13  14
ENDBRANCH  12  13
ENDBRANCH   2  12
TORSDOF 3
ENDMDL
MODEL 2
REMARK VINA RESULT:      -3.4      1.899      4.948
REMARK  3 active torsions:
REMARK  status: ('A' for Active; 'I' for Inactive)
REMARK       I    between atoms: C_2  and  N_1 
REMARK    1  A    between atoms: C_4  and  C_2 
REMARK    2  A    between atoms: C_6  and  C_4 
REMARK    3  A    between atoms: C_10  and  C_6 
ROOT
ATOM      1  N   UNL d   1      32.862  21.749 -21.411  0.00  0.00    -0.273 N 
ATOM      2  C   UNL d   1      33.018  20.947 -21.425  0.00  0.00     0.265 C 
ATOM      3  C   UNL d   1      32.883  22.227 -20.750  0.00  0.00     0.067 A 
ATOM      4  C   UNL d   1      32.657  22.211 -22.060  0.00  0.00     0.083 A 
ATOM      5  C   UNL d   1      32.691  22.994 -20.983  0.00  0.00     0.018 A 
ATOM      6  O   UNL d   1      33.218  20.552 -20.731  0.00  0.00    -0.267 OA
ATOM      7  C   UNL d   1      32.550  22.988 -21.792  0.00  0.00     0.021 A 
ATOM      8  C   UNL d   1      33.054  22.069 -19.954  0.00  0.00     0.018 A 
ATOM      9  C   UNL d   1      32.668  23.605 -20.424  0.00  0.00     0.002 A 
ATOM     10  C   UNL d   1      33.030  22.679 -19.402  0.00  0.00     0.002 A 
ATOM     11  C   UNL d   1      32.838  23.449 -19.633  0.00  0.00     0.000 A 
ENDROOT
BRANCH   2  12
ATOM     12  C   UNL d   1      32.976  20.530 -22.134  0.00  0.00     0.061 C 
BRANCH  12  13
ATOM     13  C   UNL d   1      33.104  19.716 -22.148  0.00  0.00     0.005 C 
BRANCH  13  14
ATOM     14  C   UNL d   1      32.988  19.299 -22.845  0.00  0.00     0.002 A 
ATOM     15  C   UNL d   1      32.619  18.561 -22.827  0.00  0.00     0.030 A 
ATOM     16  C   UNL d   1      32.500  18.137 -23.528  0.00  0.00     0.140 A 
ATOM     17  F   UNL d   1      32.133  17.402 -23.509  0.00  0.00    -0.204 F 
ATOM     18  C   UNL d   1      32.752  18.455 -24.250  0.00  0.00     0.030 A 
ATOM     19  C   UNL d   1      33.122  19.196 -24.265  0.00  0.00     0.002 A 
ATOM     20  C   UNL d   1      33.240  19.617 -23.566  0.00  0.00     0.000 A 
ENDBRANCH  13  14
ENDBRANCH  12  13
ENDBRANCH   2  12
TORSDOF 3
ENDMDL
MODEL 3
REMARK VINA RESULT:      -3.4      1.774      4.756
REMARK  3 active torsions:
REMARK  status: ('A' for Active; 'I' for Inactive)
REMARK       I    between atoms: C_2  and  N_1 
REMARK    1  A    between atoms: C_4  and  C_2 
REMARK    2  A    between atoms: C_6  and  C_4 
REMARK    3  A    between atoms: C_10  and  C_6 
ROOT
ATOM      1  N   UNL d   1      32.914  20.689 -21.803  0.00  0.00    -0.273 N 
ATOM      2  C   UNL d   1      33.029  20.310 -22.518  0.00  0.00     0.265 C 
ATOM      3  C   UNL d   1      32.990  21.491 -21.671  0.00  0.00     0.067 A 
ATOM      4  C   UNL d   1      32.703  20.327 -21.095  0.00  0.00     0.083 A 
ATOM      5  C   UNL d   1      32.826  21.636 -20.876  0.00  0.00     0.018 A 
ATOM      6  O   UNL d   1      33.241  20.741 -23.186  0.00  0.00    -0.267 OA
ATOM      7  C   UNL d   1      32.648  20.919 -20.517  0.00  0.00     0.021 A 
ATOM      8  C   UNL d   1      33.189  22.120 -22.172  0.00  0.00     0.018 A 
ATOM      9  C   UNL d   1      32.860  22.408 -20.579  0.00  0.00     0.002 A 
ATOM     10  C   UNL d   1      33.222  22.886 -21.873  0.00  0.00     0.002 A 
ATOM     11  C   UNL d   1      33.058  23.035 -21.076  0.00  0.00     0.000 A 
ENDROOT
BRANCH   2  12
ATOM     12  C   UNL d   1      32.934  19.493 -22.573  0.00  0.00     0.061 C 
BRANCH  12  13
ATOM     13  C   UNL d   1      32.960  19.119 -23.306  0.00  0.00     0.005 C 
BRANCH  13  14
ATOM     14  C   UNL d   1      32.750  18.328 -23.366  0.00  0.00     0.002 A 
ATOM     15  C   UNL d   1      32.053  18.114 -23.751  0.00  0.00     0.030 A 
ATOM     16  C   UNL d   1      31.838  17.317 -23.814  0.00  0.00     0.140 A 
ATOM     17  F   UNL d   1      31.144  17.105 -24.198  0.00  0.00    -0.204 F 
ATOM     18  C   UNL d   1      32.325  16.732 -23.487  0.00  0.00     0.030 A 
ATOM     19  C   UNL d   1      33.024  16.949 -23.100  0.00  0.00     0.002 A 
ATOM     20  C   UNL d   1      33.237  17.744 -23.038  0.00  0.00     0.000 A 
ENDBRANCH  13  14
ENDBRANCH  12  13
ENDBRANCH   2  12
TORSDOF 3
ENDMDL
MODEL 4
REMARK VINA RESULT:      -2.1      2.116      5.206
REMARK  3 active torsions:
REMARK  status: ('A' for Active; 'I' for Inactive)
REMARK       I    between atoms: C_2  and  N_1 
REMARK    1  A    between atoms: C_4  and  C_2 
REMARK    2  A    between atoms: C_6  and  C_4 
REMARK    3  A    between atoms: C_10  and  C_6 
ROOT
ATOM      1  N   UNL d   1      33.161  21.858 -20.655  0.00  0.00    -0.273 N 
ATOM      2  C   UNL d   1      33.214  21.044 -20.691  0.00  0.00     0.265 C 
ATOM      3  C   UNL d   1      33.131  22.304 -19.971  0.00  0.00     0.067 A 
ATOM      4  C   UNL d   1      33.131  22.368 -21.300  0.00  0.00     0.083 A 
ATOM      5  C   UNL d   1      33.080  23.098 -20.186  0.00  0.00     0.018 A 
ATOM      6  O   UNL d   1      33.240  20.599 -19.999  0.00  0.00    -0.267 OA
ATOM      7  C   UNL d   1      33.080  23.142 -21.007  0.00  0.00     0.021 A 
ATOM      8  C   UNL d   1      33.141  22.094 -19.170  0.00  0.00     0.018 A 
ATOM      9  C   UNL d   1      33.041  23.685 -19.603  0.00  0.00     0.002 A 
ATOM     10  C   UNL d   1      33.102  22.680 -18.593  0.00  0.00     0.002 A 
ATOM     11  C   UNL d   1      33.052  23.477 -18.806  0.00  0.00     0.000 A 
ENDROOT
BRANCH   2  12
ATOM     12  C   UNL d   1      33.240  20.663 -21.421  0.00  0.00     0.061 C 
BRANCH  12  13
ATOM     13  C   UNL d   1      32.972  19.888 -21.498  0.00  0.00     0.005 C 
BRANCH  13  14
ATOM     14  C   UNL d   1      33.060  19.497 -22.214  0.00  0.00     0.002 A 
ATOM     15  C   UNL d   1      33.089  19.926 -22.918  0.00  0.00     0.030 A 
ATOM     16  C   UNL d   1      33.178  19.535 -23.643  0.00  0.00     0.140 A 
ATOM     17  F   UNL d   1      33.206  19.964 -24.343  0.00  0.00    -0.204 F 
ATOM     18  C   UNL d   1      33.238  18.709 -23.660  0.00  0.00     0.030 A 
ATOM     19  C   UNL d   1      33.209  18.281 -22.952  0.00  0.00     0.002 A 
ATOM     20  C   UNL d   1      33.121  18.672 -22.231  0.00  0.00     0.000 A 
ENDBRANCH  13  14
ENDBRANCH  12  13
ENDBRANCH   2  12
TORSDOF 3
ENDMDL
MODEL 5
REMARK VINA RESULT:      -1.5      3.035      4.903
REMARK  3 active torsions:
REMARK  status: ('A' for Active; 'I' for Inactive)
REMARK       I    between atoms: C_2  and  N_1 
REMARK    1  A    between atoms: C_4  and  C_2 
REMARK    2  A    between atoms: C_6  and  C_4 
REMARK    3  A    between atoms: C_10  and  C_6 
ROOT
ATOM      1  N   UNL d   1      31.519  17.889 -24.106  0.00  0.00    -0.273 N 
ATOM      2  C   UNL d   1      30.837  17.785 -24.544  0.00  0.00     0.265 C 
ATOM      3  C   UNL d   1      32.024  18.529 -24.155  0.00  0.00     0.067 A 
ATOM      4  C   UNL d   1      31.814  17.367 -23.542  0.00  0.00     0.083 A 
ATOM      5  C   UNL d   1      32.640  18.411 -23.619  0.00  0.00     0.018 A 
ATOM      6  O   UNL d   1      30.606  18.354 -25.092  0.00  0.00    -0.267 OA
ATOM      7  C   UNL d   1      32.513  17.693 -23.238  0.00  0.00     0.021 A 
ATOM      8  C   UNL d   1      32.009  19.215 -24.619  0.00  0.00     0.018 A 
ATOM      9  C   UNL d   1      33.241  18.975 -23.546  0.00  0.00     0.002 A 
ATOM     10  C   UNL d   1      32.608  19.773 -24.544  0.00  0.00     0.002 A 
ATOM     11  C   UNL d   1      33.227  19.657 -24.007  0.00  0.00     0.000 A 
ENDROOT
BRANCH   2  12
ATOM     12  C   UNL d   1      30.377  17.109 -24.438  0.00  0.00     0.061 C 
BRANCH  12  13
ATOM     13  C   UNL d   1      29.627  17.059 -24.775  0.00  0.00     0.005 C 
BRANCH  13  14
ATOM     14  C   UNL d   1      29.028  16.668 -24.373  0.00  0.00     0.002 A 
ATOM     15  C   UNL d   1      28.482  17.097 -23.928  0.00  0.00     0.030 A 
ATOM     16  C   UNL d   1      27.876  16.707 -23.521  0.00  0.00     0.140 A 
ATOM     17  F   UNL d   1      27.333  17.136 -23.077  0.00  0.00    -0.204 F 
ATOM     18  C   UNL d   1      27.817  15.882 -23.562  0.00  0.00     0.030 A 
ATOM     19  C   UNL d   1      28.366  15.453 -24.010  0.00  0.00     0.002 A 
ATOM     20  C   UNL d   1      28.969  15.843 -24.415  0.00  0.00     0.000 A 
ENDBRANCH  13  14
ENDBRANCH  12  13
ENDBRANCH   2  12
TORSDOF 3
ENDMDL
