MODEL 1
REMARK VINA RESULT:      49.3      0.000      0.000
REMARK  4 active torsions:
REMARK  status: ('A' for Active; 'I' for Inactive)
REMARK    1  A    between atoms: C_6  and  C_1 
REMARK    2  A    between atoms: S_7  and  C_3 
REMARK    3  A    between atoms: C_17  and  S_7 
REMARK    4  A    between atoms: C_18  and  C_17 
ROOT
ATOM      1  C   UNL d   1      59.352  49.673  51.607  0.00  0.00     0.087 A 
ATOM      2  N   UNL d   1      58.615  49.692  51.962  0.00  0.00    -0.245 NA
ATOM      3  C   UNL d   1      59.261  49.653  50.787  0.00  0.00     0.049 A 
ATOM      4  C   UNL d   1      58.461  49.660  50.623  0.00  0.00     0.025 A 
ATOM      5  C   UNL d   1      58.060  49.684  51.349  0.00  0.00     0.082 A 
ATOM      6  C   UNL d   1      58.054  49.647  49.908  0.00  0.00     0.002 A 
ATOM      7  C   UNL d   1      57.249  49.696  51.373  0.00  0.00     0.019 A 
ATOM      8  C   UNL d   1      57.227  49.659  49.929  0.00  0.00     0.000 A 
ATOM      9  C   UNL d   1      56.836  49.683  50.656  0.00  0.00     0.002 A 
ENDROOT
BRANCH   1  10
ATOM     10  C   UNL d   1      60.086  49.672  51.967  0.00  0.00     0.018 A 
ATOM     11  C   UNL d   1      60.137  49.640  52.799  0.00  0.00     0.002 A 
ATOM     12  C   UNL d   1      60.863  49.638  53.169  0.00  0.00     0.011 A 
ATOM     13  C   UNL d   1      61.542  49.669  52.707  0.00  0.00     0.058 A 
ATOM     14  C   UNL d   1      61.477  49.702  51.867  0.00  0.00     0.011 A 
ATOM     15 CL   UNL d   1      62.274  49.668  53.078  0.00  0.00    -0.082 Cl
ATOM     16  C   UNL d   1      60.760  49.703  51.504  0.00  0.00     0.002 A 
ENDBRANCH   1  10
BRANCH   3  17
ATOM     17  S   UNL d   1      59.858  49.630  50.213  0.00  0.00    -0.083 SA
BRANCH  17  18
ATOM     18  C   UNL d   1      60.393  48.989  50.166  0.00  0.00     0.058 C 
BRANCH  18  19
ATOM     19  C   UNL d   1      61.047  49.006  49.663  0.00  0.00     0.129 C 
ATOM     20  N   UNL d   1      61.486  48.322  49.503  0.00  0.00    -0.146 N 
ENDBRANCH  18  19
ENDBRANCH  17  18
ENDBRANCH   3  17
TORSDOF 4
ENDMDL
