MODEL 1
REMARK VINA RESULT:      17.1      0.000      0.000
REMARK  2 active torsions:
REMARK  status: ('A' for Active; 'I' for Inactive)
REMARK    1  A    between atoms: C_7  and  C_1 
REMARK    2  A    between atoms: O_14  and  C_11 
ROOT
ATOM      1  C   UNL d   1      57.536  49.678  50.298  0.00  0.00     0.066 A 
ATOM      2  C   UNL d   1      58.287  49.683  49.893  0.00  0.00     0.200 A 
ATOM      3  C   UNL d   1      58.983  49.682  50.335  0.00  0.00     0.062 A 
ATOM      4  C   UNL d   1      57.514  49.673  51.123  0.00  0.00     0.126 A 
ATOM      5  C   UNL d   1      58.962  49.677  51.161  0.00  0.00     0.106 A 
ATOM      6  O   UNL d   1      58.244  49.672  51.566  0.00  0.00    -0.305 OA
ATOM      7  C   UNL d   1      59.723  49.687  49.930  0.00  0.00     0.009 A 
ATOM      8  C   UNL d   1      59.679  49.676  51.604  0.00  0.00     0.067 A 
ATOM      9  O   UNL d   1      58.309  49.689  49.052  0.00  0.00    -0.286 OA
ATOM     10  C   UNL d   1      60.423  49.681  51.199  0.00  0.00     0.198 A 
ATOM     11  C   UNL d   1      60.445  49.687  50.373  0.00  0.00     0.042 A 
ATOM     12  O   UNL d   1      61.144  49.681  51.642  0.00  0.00    -0.286 OA
ENDROOT
BRANCH   1  13
ATOM     13  C   UNL d   1      57.040  49.678  49.993  0.00  0.00     0.027 A 
ATOM     14  C   UNL d   1      56.533  49.688  50.265  0.00  0.00     0.094 A 
ATOM     15  C   UNL d   1      56.036  49.688  49.968  0.00  0.00     0.024 A 
ATOM     16  C   UNL d   1      56.060  49.679  49.384  0.00  0.00     0.002 A 
ATOM     17  C   UNL d   1      56.567  49.670  49.112  0.00  0.00     0.000 A 
ATOM     18  C   UNL d   1      57.062  49.669  49.417  0.00  0.00     0.002 A 
BRANCH  14  19
ATOM     19  O   UNL d   1      56.512  49.697  50.854  0.00  0.00    -0.328 OA
ATOM     20  C   UNL d   1      56.036  49.524  51.131  0.00  0.00     0.181 C 
ENDBRANCH  14  19
ENDBRANCH   1  13
TORSDOF 2
ENDMDL
