MODEL 1
REMARK VINA RESULT:      20.5      0.000      0.000
REMARK  6 active torsions:
REMARK  status: ('A' for Active; 'I' for Inactive)
REMARK    1  A    between atoms: C_9  and  N_1 
REMARK    2  A    between atoms: C_2  and  C_3 
REMARK    3  A    between atoms: C_4  and  C_6 
REMARK    4  A    between atoms: C_7  and  C_5 
REMARK       I    between atoms: C_6  and  N_8 
REMARK    5  A    between atoms: N_8  and  N_12 
REMARK    6  A    between atoms: N_12  and  C_17 
ROOT
ATOM      1  C   UNL d   1      44.875 -13.867  44.597  0.00  0.00     0.005 A 
ATOM      2  C   UNL d   1      45.133 -14.629  44.782  0.00  0.00     0.059 A 
ATOM      3  C   UNL d   1      44.063 -13.726  44.595  0.00  0.00     0.000 A 
ATOM      4  C   UNL d   1      44.605 -15.219  44.954  0.00  0.00     0.005 A 
ATOM      5  C   UNL d   1      43.524 -14.329  44.771  0.00  0.00     0.000 A 
ATOM      6  C   UNL d   1      43.807 -15.061  44.947  0.00  0.00     0.000 A 
ENDROOT
BRANCH   2   7
ATOM      7  C   UNL d   1      45.959 -14.782  44.787  0.00  0.00     0.297 C 
ATOM      8  N   UNL d   1      46.214 -15.566  44.755  0.00  0.00    -0.106 NA
ATOM      9  O   UNL d   1      46.504 -14.155  44.822  0.00  0.00    -0.264 OA
BRANCH   8  10
ATOM     10  N   UNL d   1      45.672 -16.191  44.719  0.00  0.00    -0.145 NA
BRANCH  10  11
ATOM     11  C   UNL d   1      45.877 -16.888  44.351  0.00  0.00     0.103 A 
ATOM     12  C   UNL d   1      45.808 -16.956  43.541  0.00  0.00     0.023 A 
ATOM     13  C   UNL d   1      46.015 -17.662  43.159  0.00  0.00     0.025 A 
ATOM     14  C   UNL d   1      46.289 -18.293  43.601  0.00  0.00     0.127 A 
ATOM     15  C   UNL d   1      46.361 -18.233  44.416  0.00  0.00     0.025 A 
ATOM     16  C   UNL d   1      46.154 -17.527  44.798  0.00  0.00     0.023 A 
BRANCH  14  17
ATOM     17  N   UNL d   1      46.492 -18.992  43.210  0.00  0.00    -0.114 N 
ATOM     18  O   UNL d   1      46.556 -19.699  43.601  0.00  0.00    -0.532 OA
ATOM     19  O   UNL d   1      46.638 -18.980  42.385  0.00  0.00    -0.532 OA
ENDBRANCH  14  17
ENDBRANCH  10  11
ENDBRANCH   8  10
ENDBRANCH   2   7
BRANCH   1  20
ATOM     20  C   UNL d   1      45.403 -13.279  44.425  0.00  0.00     0.006 A 
ATOM     21  C   UNL d   1      45.350 -12.877  43.717  0.00  0.00     0.064 A 
ATOM     22  C   UNL d   1      45.888 -12.274  43.541  0.00  0.00     0.006 A 
ATOM     23  C   UNL d   1      46.474 -12.082  44.075  0.00  0.00     0.000 A 
ATOM     24  C   UNL d   1      46.532 -12.464  44.759  0.00  0.00     0.000 A 
ATOM     25  C   UNL d   1      46.000 -13.072  44.955  0.00  0.00     0.000 A 
BRANCH  21  26
ATOM     26  C   UNL d   1      44.754 -13.067  43.164  0.00  0.00     0.211 C 
ATOM     27  O   UNL d   1      44.110 -12.544  43.045  0.00  0.00    -0.644 OA
ATOM     28  O   UNL d   1      44.788 -13.769  42.728  0.00  0.00    -0.644 OA
ENDBRANCH  21  26
ENDBRANCH   1  20
TORSDOF 6
ENDMDL
