MODEL 1
REMARK VINA RESULT:      -8.3      0.000      0.000
REMARK  1 active torsions:
REMARK  status: ('A' for Active; 'I' for Inactive)
REMARK    1  A    between atoms: C_6  and  C_1 
ROOT
ATOM      1  C   UNL d   1      53.698  32.653  53.848  0.00  0.00     0.085 A 
ATOM      2  C   UNL d   1      53.148  33.153  53.478  0.00  0.00     0.137 A 
ATOM      3  S   UNL d   1      52.648  32.710  53.060  0.00  0.00    -0.066 SA
ATOM      4  C   UNL d   1      53.509  31.883  53.636  0.00  0.00     0.013 A 
ATOM      5  C   UNL d   1      52.856  31.918  53.145  0.00  0.00     0.031 A 
ATOM      6  N   UNL d   1      53.122  33.992  53.535  0.00  0.00    -0.141 N 
ATOM      7  C   UNL d   1      53.843  31.150  53.822  0.00  0.00     0.001 A 
ATOM      8  C   UNL d   1      52.535  31.221  52.838  0.00  0.00     0.006 A 
ATOM      9  C   UNL d   1      53.523  30.455  53.516  0.00  0.00     0.000 A 
ATOM     10  C   UNL d   1      52.869  30.490  53.025  0.00  0.00     0.001 A 
ENDROOT
BRANCH   1  11
ATOM     11  C   UNL d   1      54.348  32.890  54.362  0.00  0.00     0.299 C 
ATOM     12  O   UNL d   1      55.096  33.063  54.033  0.00  0.00    -0.264 OA
ATOM     13  N   UNL d   1      54.237  32.947  55.183  0.00  0.00    -0.102 N 
ENDBRANCH   1  11
TORSDOF 1
ENDMDL
MODEL 2
REMARK VINA RESULT:      -8.2      1.109      2.225
REMARK  1 active torsions:
REMARK  status: ('A' for Active; 'I' for Inactive)
REMARK    1  A    between atoms: C_6  and  C_1 
ROOT
ATOM      1  C   UNL d   1      53.578  32.828  53.873  0.00  0.00     0.085 A 
ATOM      2  C   UNL d   1      53.309  32.130  53.513  0.00  0.00     0.137 A 
ATOM      3  S   UNL d   1      52.686  32.304  53.062  0.00  0.00    -0.066 SA
ATOM      4  C   UNL d   1      53.089  33.438  53.620  0.00  0.00     0.013 A 
ATOM      5  C   UNL d   1      52.534  33.112  53.115  0.00  0.00     0.031 A 
ATOM      6  N   UNL d   1      53.640  31.363  53.608  0.00  0.00    -0.141 N 
ATOM      7  C   UNL d   1      53.072  34.248  53.780  0.00  0.00     0.001 A 
ATOM      8  C   UNL d   1      51.960  33.595  52.770  0.00  0.00     0.006 A 
ATOM      9  C   UNL d   1      52.499  34.730  53.434  0.00  0.00     0.000 A 
ATOM     10  C   UNL d   1      51.944  34.404  52.930  0.00  0.00     0.001 A 
ENDROOT
BRANCH   1  11
ATOM     11  C   UNL d   1      54.246  32.908  54.413  0.00  0.00     0.299 C 
ATOM     12  O   UNL d   1      55.005  33.084  54.112  0.00  0.00    -0.264 OA
ATOM     13  N   UNL d   1      54.139  32.811  55.231  0.00  0.00    -0.102 N 
ENDBRANCH   1  11
TORSDOF 1
ENDMDL
MODEL 3
REMARK VINA RESULT:      -8.0      1.759      2.783
REMARK  1 active torsions:
REMARK  status: ('A' for Active; 'I' for Inactive)
REMARK    1  A    between atoms: C_6  and  C_1 
ROOT
ATOM      1  C   UNL d   1      52.686  32.914  53.472  0.00  0.00     0.085 A 
ATOM      2  C   UNL d   1      52.980  32.165  53.270  0.00  0.00     0.137 A 
ATOM      3  S   UNL d   1      53.649  32.042  53.667  0.00  0.00    -0.066 SA
ATOM      4  C   UNL d   1      53.210  33.243  54.013  0.00  0.00     0.013 A 
ATOM      5  C   UNL d   1      53.809  32.700  54.134  0.00  0.00     0.031 A 
ATOM      6  N   UNL d   1      52.627  31.623  52.732  0.00  0.00    -0.141 N 
ATOM      7  C   UNL d   1      53.224  33.965  54.414  0.00  0.00     0.001 A 
ATOM      8  C   UNL d   1      54.424  32.877  54.657  0.00  0.00     0.006 A 
ATOM      9  C   UNL d   1      53.838  34.142  54.936  0.00  0.00     0.000 A 
ATOM     10  C   UNL d   1      54.438  33.599  55.057  0.00  0.00     0.001 A 
ENDROOT
BRANCH   1  11
ATOM     11  C   UNL d   1      51.967  33.287  53.176  0.00  0.00     0.299 C 
ATOM     12  O   UNL d   1      51.245  33.178  53.581  0.00  0.00    -0.264 OA
ATOM     13  N   UNL d   1      51.987  33.753  52.488  0.00  0.00    -0.102 N 
ENDBRANCH   1  11
TORSDOF 1
ENDMDL
MODEL 4
REMARK VINA RESULT:      -7.8      1.670      2.340
REMARK  1 active torsions:
REMARK  status: ('A' for Active; 'I' for Inactive)
REMARK    1  A    between atoms: C_6  and  C_1 
ROOT
ATOM      1  C   UNL d   1      52.308  33.634  53.337  0.00  0.00     0.085 A 
ATOM      2  C   UNL d   1      52.760  34.173  53.779  0.00  0.00     0.137 A 
ATOM      3  S   UNL d   1      53.400  33.801  54.049  0.00  0.00    -0.066 SA
ATOM      4  C   UNL d   1      52.704  32.915  53.351  0.00  0.00     0.013 A 
ATOM      5  C   UNL d   1      53.384  33.018  53.794  0.00  0.00     0.031 A 
ATOM      6  N   UNL d   1      52.572  34.981  53.918  0.00  0.00    -0.141 N 
ATOM      7  C   UNL d   1      52.539  32.176  53.020  0.00  0.00     0.001 A 
ATOM      8  C   UNL d   1      53.900  32.384  53.907  0.00  0.00     0.006 A 
ATOM      9  C   UNL d   1      53.055  31.542  53.133  0.00  0.00     0.000 A 
ATOM     10  C   UNL d   1      53.735  31.646  53.576  0.00  0.00     0.001 A 
ENDROOT
BRANCH   1  11
ATOM     11  C   UNL d   1      51.562  33.792  52.935  0.00  0.00     0.299 C 
ATOM     12  O   UNL d   1      50.840  33.593  53.306  0.00  0.00    -0.264 OA
ATOM     13  N   UNL d   1      51.555  34.142  52.182  0.00  0.00    -0.102 N 
ENDBRANCH   1  11
TORSDOF 1
ENDMDL
