MODEL 1
REMARK VINA RESULT:       6.6      0.000      0.000
REMARK  4 active torsions:
REMARK  status: ('A' for Active; 'I' for Inactive)
REMARK    1  A    between atoms: C_4  and  C_1 
REMARK    2  A    between atoms: N_8  and  C_4 
REMARK    3  A    between atoms: C_12  and  C_4 
REMARK    4  A    between atoms: C_5  and  N_8 
ROOT
ATOM      1  C   UNL d   1     -42.205-122.246 -50.023  0.00  0.00     0.085 C 
ENDROOT
BRANCH   1   2
ATOM      2  C   UNL d   1     -41.816-122.772 -49.518  0.00  0.00     0.037 A 
ATOM      3  C   UNL d   1     -41.427-123.475 -49.746  0.00  0.00     0.083 A 
ATOM      4  N   UNL d   1     -41.123-123.817 -49.070  0.00  0.00    -0.245 NA
ATOM      5  C   UNL d   1     -41.363-123.770 -50.515  0.00  0.00     0.021 C 
ATOM      6  C   UNL d   1     -41.321-123.330 -48.432  0.00  0.00     0.081 A 
ATOM      7  C   UNL d   1     -41.743-122.696 -48.715  0.00  0.00     0.021 A 
ATOM      8  C   UNL d   1     -41.157-123.403 -47.622  0.00  0.00     0.019 A 
ATOM      9  C   UNL d   1     -42.011-122.121 -48.194  0.00  0.00     0.002 A 
ATOM     10  C   UNL d   1     -41.857-122.179 -47.385  0.00  0.00     0.000 A 
ATOM     11  C   UNL d   1     -41.434-122.814 -47.102  0.00  0.00     0.002 A 
ENDBRANCH   1   2
BRANCH   1  12
ATOM     12  N   UNL d   1     -42.908-121.958 -49.845  0.00  0.00    -0.221 NA
BRANCH  12  13
ATOM     13  C   UNL d   1     -43.538-122.329 -50.097  0.00  0.00     0.194 A 
ATOM     14  N   UNL d   1     -43.749-123.073 -49.928  0.00  0.00    -0.219 NA
ATOM     15  C   UNL d   1     -44.396-123.217 -50.284  0.00  0.00     0.108 A 
ATOM     16  C   UNL d   1     -44.609-122.587 -50.678  0.00  0.00     0.059 A 
ATOM     17  S   UNL d   1     -44.078-122.031 -50.566  0.00  0.00    -0.046 SA
ENDBRANCH  12  13
ENDBRANCH   1  12
BRANCH   1  18
ATOM     18  C   UNL d   1     -41.861-122.009 -50.736  0.00  0.00     0.021 A 
ATOM     19  C   UNL d   1     -41.472-121.282 -50.766  0.00  0.00     0.022 A 
ATOM     20  C   UNL d   1     -41.123-121.032 -51.474  0.00  0.00     0.099 A 
ATOM     21  N   UNL d   1     -41.166-121.510 -52.143  0.00  0.00    -0.242 NA
ATOM     22  C   UNL d   1     -41.558-122.240 -52.110  0.00  0.00     0.099 A 
ATOM     23  C   UNL d   1     -41.905-122.487 -51.404  0.00  0.00     0.022 A 
ENDBRANCH   1  18
TORSDOF 4
ENDMDL
MODEL 2
REMARK VINA RESULT:       9.0      1.798      2.786
REMARK  4 active torsions:
REMARK  status: ('A' for Active; 'I' for Inactive)
REMARK    1  A    between atoms: C_4  and  C_1 
REMARK    2  A    between atoms: N_8  and  C_4 
REMARK    3  A    between atoms: C_12  and  C_4 
REMARK    4  A    between atoms: C_5  and  N_8 
ROOT
ATOM      1  C   UNL d   1     -42.211-122.308 -52.157  0.00  0.00     0.085 C 
ENDROOT
BRANCH   1   2
ATOM      2  C   UNL d   1     -42.179-122.817 -51.506  0.00  0.00     0.037 A 
ATOM      3  C   UNL d   1     -41.675-123.479 -51.425  0.00  0.00     0.083 A 
ATOM      4  N   UNL d   1     -41.830-123.817 -50.698  0.00  0.00    -0.245 NA
ATOM      5  C   UNL d   1     -41.123-123.742 -51.980  0.00  0.00     0.021 C 
ATOM      6  C   UNL d   1     -42.422-123.369 -50.335  0.00  0.00     0.081 A 
ATOM      7  C   UNL d   1     -42.628-122.762 -50.835  0.00  0.00     0.021 A 
ATOM      8  C   UNL d   1     -42.793-123.455 -49.598  0.00  0.00     0.019 A 
ATOM      9  C   UNL d   1     -43.209-122.228 -50.608  0.00  0.00     0.002 A 
ATOM     10  C   UNL d   1     -43.587-122.300 -49.878  0.00  0.00     0.000 A 
ATOM     11  C   UNL d   1     -43.381-122.907 -49.378  0.00  0.00     0.002 A 
ENDBRANCH   1   2
BRANCH   1  12
ATOM     12  N   UNL d   1     -42.582-122.512 -52.813  0.00  0.00    -0.221 NA
BRANCH  12  13
ATOM     13  C   UNL d   1     -42.163-122.741 -53.422  0.00  0.00     0.194 A 
ATOM     14  N   UNL d   1     -41.646-123.338 -53.444  0.00  0.00    -0.219 NA
ATOM     15  C   UNL d   1     -41.360-123.373 -54.139  0.00  0.00     0.108 A 
ATOM     16  C   UNL d   1     -41.679-122.814 -54.567  0.00  0.00     0.059 A 
ATOM     17  S   UNL d   1     -42.181-122.417 -54.125  0.00  0.00    -0.046 SA
ENDBRANCH  12  13
ENDBRANCH   1  12
BRANCH   1  18
ATOM     18  C   UNL d   1     -41.851-121.565 -52.134  0.00  0.00     0.021 A 
ATOM     19  C   UNL d   1     -41.872-121.093 -52.810  0.00  0.00     0.022 A 
ATOM     20  C   UNL d   1     -41.515-120.346 -52.800  0.00  0.00     0.099 A 
ATOM     21  N   UNL d   1     -41.142-120.079 -52.117  0.00  0.00    -0.242 NA
ATOM     22  C   UNL d   1     -41.123-120.555 -51.438  0.00  0.00     0.099 A 
ATOM     23  C   UNL d   1     -41.479-121.299 -51.450  0.00  0.00     0.022 A 
ENDBRANCH   1  18
TORSDOF 4
ENDMDL
