MODEL 1
REMARK VINA RESULT:       9.2      0.000      0.000
REMARK  5 active torsions:
REMARK  status: ('A' for Active; 'I' for Inactive)
REMARK    1  A    between atoms: C_7  and  N_2 
REMARK    2  A    between atoms: C_14  and  C_7 
REMARK    3  A    between atoms: C_8  and  O_16 
REMARK    4  A    between atoms: C_18  and  C_14 
REMARK    5  A    between atoms: O_16  and  C_18 
ROOT
ATOM      1  C   UNL d   1      45.766 -17.449  43.498  0.00  0.00     0.086 C 
ENDROOT
BRANCH   1   2
ATOM      2  N   UNL d   1      46.081 -18.170  43.260  0.00  0.00    -0.268 N 
ATOM      3  C   UNL d   1      46.374 -18.343  42.509  0.00  0.00     0.296 A 
ATOM      4  S   UNL d   1      46.636 -19.135  42.516  0.00  0.00    -0.025 SA
ATOM      5  O   UNL d   1      46.406 -17.834  41.862  0.00  0.00    -0.259 OA
ATOM      6  C   UNL d   1      46.499 -19.434  43.274  0.00  0.00     0.050 A 
ATOM      7  C   UNL d   1      46.646 -20.187  43.610  0.00  0.00     0.008 A 
ATOM      8  C   UNL d   1      46.159 -18.846  43.733  0.00  0.00     0.073 A 
ATOM      9  C   UNL d   1      46.448 -20.328  44.395  0.00  0.00     0.001 A 
ATOM     10  C   UNL d   1      46.104 -19.727  44.852  0.00  0.00     0.002 A 
ATOM     11  C   UNL d   1      45.959 -18.985  44.522  0.00  0.00     0.018 A 
ENDBRANCH   1   2
BRANCH   1  12
ATOM     12  C   UNL d   1      46.185 -16.960  44.022  0.00  0.00     0.046 C 
BRANCH  12  13
ATOM     13  C   UNL d   1      45.788 -16.511  44.588  0.00  0.00     0.124 C 
BRANCH  13  14
ATOM     14  O   UNL d   1      45.756 -15.695  44.518  0.00  0.00    -0.305 OA
BRANCH  14  15
ATOM     15  C   UNL d   1      45.727 -14.870  44.446  0.00  0.00     0.100 A 
ATOM     16  C   UNL d   1      46.361 -14.430  44.695  0.00  0.00     0.025 A 
ATOM     17  C   UNL d   1      46.340 -13.602  44.627  0.00  0.00     0.002 A 
ATOM     18  C   UNL d   1      45.672 -13.235  44.306  0.00  0.00     0.000 A 
ATOM     19  C   UNL d   1      45.034 -13.693  44.056  0.00  0.00     0.002 A 
ATOM     20  C   UNL d   1      45.646 -12.419  44.236  0.00  0.00     0.000 C 
ATOM     21  C   UNL d   1      45.060 -14.509  44.126  0.00  0.00     0.025 A 
ENDBRANCH  14  15
ENDBRANCH  13  14
ENDBRANCH  12  13
ENDBRANCH   1  12
TORSDOF 5
ENDMDL
MODEL 2
REMARK VINA RESULT:      11.4      1.804      5.370
REMARK  5 active torsions:
REMARK  status: ('A' for Active; 'I' for Inactive)
REMARK    1  A    between atoms: C_7  and  N_2 
REMARK    2  A    between atoms: C_14  and  C_7 
REMARK    3  A    between atoms: C_8  and  O_16 
REMARK    4  A    between atoms: C_18  and  C_14 
REMARK    5  A    between atoms: O_16  and  C_18 
ROOT
ATOM      1  C   UNL d   1      45.118 -15.127  44.083  0.00  0.00     0.086 C 
ENDROOT
BRANCH   1   2
ATOM      2  N   UNL d   1      45.446 -14.378  44.178  0.00  0.00    -0.268 N 
ATOM      3  C   UNL d   1      46.146 -14.206  44.578  0.00  0.00     0.296 A 
ATOM      4  S   UNL d   1      46.264 -13.382  44.536  0.00  0.00    -0.025 SA
ATOM      5  O   UNL d   1      46.644 -14.744  44.955  0.00  0.00    -0.259 OA
ATOM      6  C   UNL d   1      45.634 -13.062  44.109  0.00  0.00     0.050 A 
ATOM      7  C   UNL d   1      45.453 -12.275  43.890  0.00  0.00     0.008 A 
ATOM      8  C   UNL d   1      45.130 -13.670  43.887  0.00  0.00     0.073 A 
ATOM      9  C   UNL d   1      44.772 -12.120  43.455  0.00  0.00     0.001 A 
ATOM     10  C   UNL d   1      44.268 -12.740  43.236  0.00  0.00     0.002 A 
ATOM     11  C   UNL d   1      44.445 -13.517  43.451  0.00  0.00     0.018 A 
ENDBRANCH   1   2
BRANCH   1  12
ATOM     12  C   UNL d   1      45.604 -15.779  43.912  0.00  0.00     0.046 C 
BRANCH  12  13
ATOM     13  C   UNL d   1      45.466 -16.511  44.267  0.00  0.00     0.124 C 
BRANCH  13  14
ATOM     14  O   UNL d   1      45.704 -17.200  43.894  0.00  0.00    -0.305 OA
BRANCH  14  15
ATOM     15  C   UNL d   1      45.941 -17.899  43.517  0.00  0.00     0.100 A 
ATOM     16  C   UNL d   1      46.003 -17.909  42.708  0.00  0.00     0.025 A 
ATOM     17  C   UNL d   1      46.241 -18.605  42.322  0.00  0.00     0.002 A 
ATOM     18  C   UNL d   1      46.412 -19.282  42.766  0.00  0.00     0.000 A 
ATOM     19  C   UNL d   1      46.346 -19.259  43.588  0.00  0.00     0.002 A 
ATOM     20  C   UNL d   1      46.647 -19.971  42.391  0.00  0.00     0.000 C 
ATOM     21  C   UNL d   1      46.111 -18.569  43.963  0.00  0.00     0.025 A 
ENDBRANCH  14  15
ENDBRANCH  13  14
ENDBRANCH  12  13
ENDBRANCH   1  12
TORSDOF 5
ENDMDL
