MODEL 1
REMARK VINA RESULT:      -5.1      0.000      0.000
REMARK  5 active torsions:
REMARK  status: ('A' for Active; 'I' for Inactive)
REMARK    1  A    between atoms: C_9  and  N_2 
REMARK    2  A    between atoms: C_8  and  O_11 
REMARK    3  A    between atoms: C_12  and  C_9 
REMARK    4  A    between atoms: O_11  and  C_15 
REMARK    5  A    between atoms: C_15  and  C_12 
ROOT
ATOM      1  C   UNL d   1      57.854  -0.514  30.087  0.00  0.00     0.087 C 
ENDROOT
BRANCH   1   2
ATOM      2  N   UNL d   1      58.562  -0.715  29.710  0.00  0.00    -0.251 N 
ATOM      3  C   UNL d   1      59.105  -0.093  29.647  0.00  0.00     0.378 A 
ATOM      4  O   UNL d   1      59.781  -0.361  29.265  0.00  0.00    -0.258 OA
ATOM      5  O   UNL d   1      58.983   0.679  29.927  0.00  0.00    -0.237 OA
ATOM      6  C   UNL d   1      59.657  -1.174  29.084  0.00  0.00     0.121 A 
ATOM      7  C   UNL d   1      60.133  -1.733  28.707  0.00  0.00     0.026 A 
ATOM      8  C   UNL d   1      58.912  -1.383  29.358  0.00  0.00     0.092 A 
ATOM      9  C   UNL d   1      59.855  -2.507  28.606  0.00  0.00     0.002 A 
ATOM     10  C   UNL d   1      59.110  -2.717  28.880  0.00  0.00     0.002 A 
ATOM     11  C   UNL d   1      58.632  -2.154  29.259  0.00  0.00     0.020 A 
ENDBRANCH   1   2
BRANCH   1  12
ATOM     12  C   UNL d   1      57.781  -0.613  30.895  0.00  0.00     0.046 C 
BRANCH  12  13
ATOM     13  C   UNL d   1      57.086  -0.370  31.276  0.00  0.00     0.124 C 
BRANCH  13  14
ATOM     14  O   UNL d   1      56.774  -0.830  31.885  0.00  0.00    -0.304 OA
BRANCH  14  15
ATOM     15  C   UNL d   1      56.258  -0.486  32.438  0.00  0.00     0.111 A 
ATOM     16  C   UNL d   1      55.799  -0.961  32.929  0.00  0.00     0.080 A 
ATOM     17 CL   UNL d   1      55.845  -1.784  32.879  0.00  0.00    -0.080 Cl
ATOM     18  C   UNL d   1      55.289  -0.617  33.475  0.00  0.00     0.013 A 
ATOM     19  C   UNL d   1      55.237   0.197  33.530  0.00  0.00     0.001 A 
ATOM     20  C   UNL d   1      55.696   0.682  33.040  0.00  0.00     0.002 A 
ATOM     21  C   UNL d   1      56.206   0.336  32.493  0.00  0.00     0.026 A 
ENDBRANCH  14  15
ENDBRANCH  13  14
ENDBRANCH  12  13
ENDBRANCH   1  12
TORSDOF 5
ENDMDL
MODEL 2
REMARK VINA RESULT:      -4.9      1.340      1.492
REMARK  5 active torsions:
REMARK  status: ('A' for Active; 'I' for Inactive)
REMARK    1  A    between atoms: C_9  and  N_2 
REMARK    2  A    between atoms: C_8  and  O_11 
REMARK    3  A    between atoms: C_12  and  C_9 
REMARK    4  A    between atoms: O_11  and  C_15 
REMARK    5  A    between atoms: C_15  and  C_12 
ROOT
ATOM      1  C   UNL d   1      58.136   0.681  30.553  0.00  0.00     0.087 C 
ENDROOT
BRANCH   1   2
ATOM      2  N   UNL d   1      58.613   0.493  29.905  0.00  0.00    -0.251 N 
ATOM      3  C   UNL d   1      58.218   0.500  29.176  0.00  0.00     0.378 A 
ATOM      4  O   UNL d   1      58.748   0.305  28.579  0.00  0.00    -0.258 OA
ATOM      5  O   UNL d   1      57.414   0.676  29.070  0.00  0.00    -0.237 OA
ATOM      6  C   UNL d   1      59.495   0.173  28.945  0.00  0.00     0.121 A 
ATOM      7  C   UNL d   1      60.230  -0.037  28.634  0.00  0.00     0.026 A 
ATOM      8  C   UNL d   1      59.405   0.289  29.753  0.00  0.00     0.092 A 
ATOM      9  C   UNL d   1      60.879  -0.129  29.142  0.00  0.00     0.002 A 
ATOM     10  C   UNL d   1      60.789  -0.013  29.950  0.00  0.00     0.002 A 
ATOM     11  C   UNL d   1      60.050   0.197  30.261  0.00  0.00     0.020 A 
ENDBRANCH   1   2
BRANCH   1  12
ATOM     12  C   UNL d   1      57.667   0.106  30.895  0.00  0.00     0.046 C 
BRANCH  12  13
ATOM     13  C   UNL d   1      57.230   0.285  31.575  0.00  0.00     0.124 C 
BRANCH  13  14
ATOM     14  O   UNL d   1      57.004  -0.323  32.085  0.00  0.00    -0.304 OA
BRANCH  14  15
ATOM     15  C   UNL d   1      56.381  -0.201  32.621  0.00  0.00     0.111 A 
ATOM     16  C   UNL d   1      55.907  -0.832  32.856  0.00  0.00     0.080 A 
ATOM     17 CL   UNL d   1      56.043  -1.591  32.563  0.00  0.00    -0.080 Cl
ATOM     18  C   UNL d   1      55.290  -0.707  33.387  0.00  0.00     0.013 A 
ATOM     19  C   UNL d   1      55.149   0.042  33.681  0.00  0.00     0.001 A 
ATOM     20  C   UNL d   1      55.622   0.681  33.449  0.00  0.00     0.002 A 
ATOM     21  C   UNL d   1      56.239   0.556  32.918  0.00  0.00     0.026 A 
ENDBRANCH  14  15
ENDBRANCH  13  14
ENDBRANCH  12  13
ENDBRANCH   1  12
TORSDOF 5
ENDMDL
MODEL 3
REMARK VINA RESULT:      -3.8      1.799      5.140
REMARK  5 active torsions:
REMARK  status: ('A' for Active; 'I' for Inactive)
REMARK    1  A    between atoms: C_9  and  N_2 
REMARK    2  A    between atoms: C_8  and  O_11 
REMARK    3  A    between atoms: C_12  and  C_9 
REMARK    4  A    between atoms: O_11  and  C_15 
REMARK    5  A    between atoms: C_15  and  C_12 
ROOT
ATOM      1  C   UNL d   1      57.198   0.682  32.652  0.00  0.00     0.087 C 
ENDROOT
BRANCH   1   2
ATOM      2  N   UNL d   1      56.770   0.651  33.359  0.00  0.00    -0.251 N 
ATOM      3  C   UNL d   1      57.239   0.616  34.042  0.00  0.00     0.378 A 
ATOM      4  O   UNL d   1      56.753   0.587  34.704  0.00  0.00    -0.258 OA
ATOM      5  O   UNL d   1      58.069   0.610  34.052  0.00  0.00    -0.237 OA
ATOM      6  C   UNL d   1      55.958   0.605  34.427  0.00  0.00     0.121 A 
ATOM      7  C   UNL d   1      55.236   0.590  34.826  0.00  0.00     0.026 A 
ATOM      8  C   UNL d   1      55.976   0.644  33.607  0.00  0.00     0.092 A 
ATOM      9  C   UNL d   1      54.528   0.615  34.396  0.00  0.00     0.002 A 
ATOM     10  C   UNL d   1      54.546   0.654  33.576  0.00  0.00     0.002 A 
ATOM     11  C   UNL d   1      55.272   0.668  33.175  0.00  0.00     0.020 A 
ENDBRANCH   1   2
BRANCH   1  12
ATOM     12  C   UNL d   1      57.161   0.058  32.126  0.00  0.00     0.046 C 
BRANCH  12  13
ATOM     13  C   UNL d   1      57.466   0.148  31.362  0.00  0.00     0.124 C 
BRANCH  13  14
ATOM     14  O   UNL d   1      57.713  -0.517  30.940  0.00  0.00    -0.304 OA
BRANCH  14  15
ATOM     15  C   UNL d   1      58.055  -0.424  30.189  0.00  0.00     0.111 A 
ATOM     16  C   UNL d   1      58.325  -1.082  29.773  0.00  0.00     0.080 A 
ATOM     17 CL   UNL d   1      58.259  -1.839  30.095  0.00  0.00    -0.080 Cl
ATOM     18  C   UNL d   1      58.663  -0.987  29.028  0.00  0.00     0.013 A 
ATOM     19  C   UNL d   1      58.732  -0.240  28.703  0.00  0.00     0.001 A 
ATOM     20  C   UNL d   1      58.463   0.425  29.116  0.00  0.00     0.002 A 
ATOM     21  C   UNL d   1      58.125   0.329  29.861  0.00  0.00     0.026 A 
ENDBRANCH  14  15
ENDBRANCH  13  14
ENDBRANCH  12  13
ENDBRANCH   1  12
TORSDOF 5
ENDMDL
MODEL 4
REMARK VINA RESULT:      -3.1      1.673      4.840
REMARK  5 active torsions:
REMARK  status: ('A' for Active; 'I' for Inactive)
REMARK    1  A    between atoms: C_9  and  N_2 
REMARK    2  A    between atoms: C_8  and  O_11 
REMARK    3  A    between atoms: C_12  and  C_9 
REMARK    4  A    between atoms: O_11  and  C_15 
REMARK    5  A    between atoms: C_15  and  C_12 
ROOT
ATOM      1  C   UNL d   1      57.381  -0.575  30.684  0.00  0.00     0.087 C 
ENDROOT
BRANCH   1   2
ATOM      2  N   UNL d   1      57.258  -0.263  31.440  0.00  0.00    -0.251 N 
ATOM      3  C   UNL d   1      57.760   0.367  31.637  0.00  0.00     0.378 A 
ATOM      4  O   UNL d   1      57.584   0.626  32.397  0.00  0.00    -0.258 OA
ATOM      5  O   UNL d   1      58.348   0.682  31.143  0.00  0.00    -0.237 OA
ATOM      6  C   UNL d   1      56.954   0.146  32.682  0.00  0.00     0.121 A 
ATOM      7  C   UNL d   1      56.545   0.144  33.400  0.00  0.00     0.026 A 
ATOM      8  C   UNL d   1      56.760  -0.393  32.094  0.00  0.00     0.092 A 
ATOM      9  C   UNL d   1      55.938  -0.406  33.524  0.00  0.00     0.002 A 
ATOM     10  C   UNL d   1      55.744  -0.946  32.936  0.00  0.00     0.002 A 
ATOM     11  C   UNL d   1      56.155  -0.943  32.215  0.00  0.00     0.020 A 
ENDBRANCH   1   2
BRANCH   1  12
ATOM     12  C   UNL d   1      58.140  -0.741  30.432  0.00  0.00     0.046 C 
BRANCH  12  13
ATOM     13  C   UNL d   1      58.260  -1.314  29.846  0.00  0.00     0.124 C 
BRANCH  13  14
ATOM     14  O   UNL d   1      58.998  -1.379  29.484  0.00  0.00    -0.304 OA
BRANCH  14  15
ATOM     15  C   UNL d   1      59.226  -2.099  29.139  0.00  0.00     0.111 A 
ATOM     16  C   UNL d   1      59.978  -2.183  28.812  0.00  0.00     0.080 A 
ATOM     17 CL   UNL d   1      60.513  -1.555  28.824  0.00  0.00    -0.080 Cl
ATOM     18  C   UNL d   1      60.200  -2.898  28.471  0.00  0.00     0.013 A 
ATOM     19  C   UNL d   1      59.676  -3.525  28.456  0.00  0.00     0.001 A 
ATOM     20  C   UNL d   1      58.919  -3.448  28.782  0.00  0.00     0.002 A 
ATOM     21  C   UNL d   1      58.697  -2.731  29.123  0.00  0.00     0.026 A 
ENDBRANCH  14  15
ENDBRANCH  13  14
ENDBRANCH  12  13
ENDBRANCH   1  12
TORSDOF 5
ENDMDL
MODEL 5
REMARK VINA RESULT:      -2.6      8.793      9.180
REMARK  5 active torsions:
REMARK  status: ('A' for Active; 'I' for Inactive)
REMARK    1  A    between atoms: C_9  and  N_2 
REMARK    2  A    between atoms: C_8  and  O_11 
REMARK    3  A    between atoms: C_12  and  C_9 
REMARK    4  A    between atoms: O_11  and  C_15 
REMARK    5  A    between atoms: C_15  and  C_12 
ROOT
ATOM      1  C   UNL d   1      58.633  -9.818  32.485  0.00  0.00     0.087 C 
ENDROOT
BRANCH   1   2
ATOM      2  N   UNL d   1      58.391  -9.765  31.696  0.00  0.00    -0.251 N 
ATOM      3  C   UNL d   1      57.571  -9.695  31.594  0.00  0.00     0.378 A 
ATOM      4  O   UNL d   1      57.402  -9.647  30.791  0.00  0.00    -0.258 OA
ATOM      5  O   UNL d   1      57.012  -9.675  32.207  0.00  0.00    -0.237 OA
ATOM      6  C   UNL d   1      58.137  -9.690  30.381  0.00  0.00     0.121 A 
ATOM      7  C   UNL d   1      58.319  -9.671  29.576  0.00  0.00     0.026 A 
ATOM      8  C   UNL d   1      58.735  -9.761  30.938  0.00  0.00     0.092 A 
ATOM      9  C   UNL d   1      59.109  -9.725  29.333  0.00  0.00     0.002 A 
ATOM     10  C   UNL d   1      59.707  -9.796  29.891  0.00  0.00     0.002 A 
ATOM     11  C   UNL d   1      59.523  -9.815  30.700  0.00  0.00     0.020 A 
ENDBRANCH   1   2
BRANCH   1  12
ATOM     12  C   UNL d   1      58.905  -9.152  32.873  0.00  0.00     0.046 C 
BRANCH  12  13
ATOM     13  C   UNL d   1      59.256  -9.228  33.619  0.00  0.00     0.124 C 
BRANCH  13  14
ATOM     14  O   UNL d   1      59.438  -8.552  34.055  0.00  0.00    -0.304 OA
BRANCH  14  15
ATOM     15  C   UNL d   1      59.916  -8.613  34.731  0.00  0.00     0.111 A 
ATOM     16  C   UNL d   1      59.777  -8.129  35.382  0.00  0.00     0.080 A 
ATOM     17 CL   UNL d   1      59.163  -7.579  35.373  0.00  0.00    -0.080 Cl
ATOM     18  C   UNL d   1      60.254  -8.193  36.051  0.00  0.00     0.013 A 
ATOM     19  C   UNL d   1      60.865  -8.736  36.067  0.00  0.00     0.001 A 
ATOM     20  C   UNL d   1      61.010  -9.225  35.416  0.00  0.00     0.002 A 
ATOM     21  C   UNL d   1      60.533  -9.161  34.747  0.00  0.00     0.026 A 
ENDBRANCH  14  15
ENDBRANCH  13  14
ENDBRANCH  12  13
ENDBRANCH   1  12
TORSDOF 5
ENDMDL
