MODEL 1
REMARK VINA RESULT:      -8.7      0.000      0.000
REMARK  1 active torsions:
REMARK  status: ('A' for Active; 'I' for Inactive)
REMARK    1  A    between atoms: C_9  and  C_3 
ROOT
ATOM      1  N   UNL d   1      54.696  32.841  53.733  0.00  0.00    -0.145 NA
ATOM      2  N   UNL d   1      55.159  33.362  54.172  0.00  0.00    -0.106 NA
ATOM      3  C   UNL d   1      54.040  32.478  54.083  0.00  0.00     0.103 A 
ATOM      4  C   UNL d   1      54.970  33.523  54.958  0.00  0.00     0.297 A 
ATOM      5  C   UNL d   1      53.845  32.633  54.869  0.00  0.00     0.026 A 
ATOM      6  C   UNL d   1      54.315  33.160  55.307  0.00  0.00     0.066 A 
ATOM      7  O   UNL d   1      55.433  34.045  55.395  0.00  0.00    -0.264 OA
ENDROOT
BRANCH   3   8
ATOM      8  C   UNL d   1      53.577  31.956  53.645  0.00  0.00     0.022 A 
ATOM      9  C   UNL d   1      53.714  31.138  53.690  0.00  0.00     0.022 A 
ATOM     10  C   UNL d   1      53.251  30.617  53.252  0.00  0.00     0.099 A 
ATOM     11  N   UNL d   1      52.649  30.905  52.767  0.00  0.00    -0.242 NA
ATOM     12  C   UNL d   1      52.513  31.727  52.724  0.00  0.00     0.099 A 
ATOM     13  C   UNL d   1      52.976  32.249  53.161  0.00  0.00     0.022 A 
ENDBRANCH   3   8
TORSDOF 1
ENDMDL
MODEL 2
REMARK VINA RESULT:      -8.3      1.766      3.089
REMARK  1 active torsions:
REMARK  status: ('A' for Active; 'I' for Inactive)
REMARK    1  A    between atoms: C_9  and  C_3 
ROOT
ATOM      1  N   UNL d   1      53.099  32.567  53.129  0.00  0.00    -0.145 NA
ATOM      2  N   UNL d   1      52.820  31.945  52.668  0.00  0.00    -0.106 NA
ATOM      3  C   UNL d   1      53.549  32.411  53.805  0.00  0.00     0.103 A 
ATOM      4  C   UNL d   1      52.990  31.166  52.879  0.00  0.00     0.297 A 
ATOM      5  C   UNL d   1      53.722  31.634  54.023  0.00  0.00     0.026 A 
ATOM      6  C   UNL d   1      53.439  31.010  53.554  0.00  0.00     0.066 A 
ATOM      7  O   UNL d   1      52.711  30.544  52.416  0.00  0.00    -0.264 OA
ENDROOT
BRANCH   3   8
ATOM      8  C   UNL d   1      53.828  33.034  54.268  0.00  0.00     0.022 A 
ATOM      9  C   UNL d   1      54.620  33.046  54.514  0.00  0.00     0.022 A 
ATOM     10  C   UNL d   1      54.899  33.669  54.976  0.00  0.00     0.099 A 
ATOM     11  N   UNL d   1      54.391  34.281  55.195  0.00  0.00    -0.242 NA
ATOM     12  C   UNL d   1      53.596  34.265  54.946  0.00  0.00     0.099 A 
ATOM     13  C   UNL d   1      53.316  33.644  54.484  0.00  0.00     0.022 A 
ENDBRANCH   3   8
TORSDOF 1
ENDMDL
MODEL 3
REMARK VINA RESULT:      -7.9      1.886      2.111
REMARK  1 active torsions:
REMARK  status: ('A' for Active; 'I' for Inactive)
REMARK    1  A    between atoms: C_9  and  C_3 
ROOT
ATOM      1  N   UNL d   1      53.340  33.981  54.732  0.00  0.00    -0.145 NA
ATOM      2  N   UNL d   1      53.286  34.765  54.974  0.00  0.00    -0.106 NA
ATOM      3  C   UNL d   1      53.130  33.771  53.960  0.00  0.00     0.103 A 
ATOM      4  C   UNL d   1      53.023  35.344  54.448  0.00  0.00     0.297 A 
ATOM      5  C   UNL d   1      52.866  34.344  53.428  0.00  0.00     0.026 A 
ATOM      6  C   UNL d   1      52.813  35.134  53.677  0.00  0.00     0.066 A 
ATOM      7  O   UNL d   1      52.969  36.128  54.692  0.00  0.00    -0.264 OA
ENDROOT
BRANCH   3   8
ATOM      8  C   UNL d   1      53.184  32.986  53.717  0.00  0.00     0.022 A 
ATOM      9  C   UNL d   1      52.589  32.655  53.243  0.00  0.00     0.022 A 
ATOM     10  C   UNL d   1      52.643  31.869  53.000  0.00  0.00     0.099 A 
ATOM     11  N   UNL d   1      53.289  31.410  53.228  0.00  0.00    -0.242 NA
ATOM     12  C   UNL d   1      53.886  31.745  53.704  0.00  0.00     0.099 A 
ATOM     13  C   UNL d   1      53.832  32.530  53.947  0.00  0.00     0.022 A 
ENDBRANCH   3   8
TORSDOF 1
ENDMDL
MODEL 4
REMARK VINA RESULT:      -7.7      1.837      2.162
REMARK  1 active torsions:
REMARK  status: ('A' for Active; 'I' for Inactive)
REMARK    1  A    between atoms: C_9  and  C_3 
ROOT
ATOM      1  N   UNL d   1      53.392  34.418  54.687  0.00  0.00    -0.145 NA
ATOM      2  N   UNL d   1      54.073  34.395  55.149  0.00  0.00    -0.106 NA
ATOM      3  C   UNL d   1      53.272  33.850  54.098  0.00  0.00     0.103 A 
ATOM      4  C   UNL d   1      54.636  33.805  55.025  0.00  0.00     0.297 A 
ATOM      5  C   UNL d   1      53.832  33.257  53.969  0.00  0.00     0.026 A 
ATOM      6  C   UNL d   1      54.517  33.238  54.437  0.00  0.00     0.066 A 
ATOM      7  O   UNL d   1      55.317  33.783  55.488  0.00  0.00    -0.264 OA
ENDROOT
BRANCH   3   8
ATOM      8  C   UNL d   1      52.591  33.873  53.635  0.00  0.00     0.022 A 
ATOM      9  C   UNL d   1      52.003  33.294  53.731  0.00  0.00     0.022 A 
ATOM     10  C   UNL d   1      51.322  33.318  53.269  0.00  0.00     0.099 A 
ATOM     11  N   UNL d   1      51.222  33.915  52.709  0.00  0.00    -0.242 NA
ATOM     12  C   UNL d   1      51.814  34.495  52.615  0.00  0.00     0.099 A 
ATOM     13  C   UNL d   1      52.495  34.473  53.077  0.00  0.00     0.022 A 
ENDBRANCH   3   8
TORSDOF 1
ENDMDL
MODEL 5
REMARK VINA RESULT:      -7.6      2.379      3.343
REMARK  1 active torsions:
REMARK  status: ('A' for Active; 'I' for Inactive)
REMARK    1  A    between atoms: C_9  and  C_3 
ROOT
ATOM      1  N   UNL d   1      51.891  33.118  53.645  0.00  0.00    -0.145 NA
ATOM      2  N   UNL d   1      51.164  33.325  53.319  0.00  0.00    -0.106 NA
ATOM      3  C   UNL d   1      52.540  33.625  53.563  0.00  0.00     0.103 A 
ATOM      4  C   UNL d   1      51.081  34.037  52.911  0.00  0.00     0.297 A 
ATOM      5  C   UNL d   1      52.465  34.339  53.156  0.00  0.00     0.026 A 
ATOM      6  C   UNL d   1      51.729  34.543  52.829  0.00  0.00     0.066 A 
ATOM      7  O   UNL d   1      50.353  34.243  52.585  0.00  0.00    -0.264 OA
ENDROOT
BRANCH   3   8
ATOM      8  C   UNL d   1      53.268  33.419  53.889  0.00  0.00     0.022 A 
ATOM      9  C   UNL d   1      53.464  33.663  54.658  0.00  0.00     0.022 A 
ATOM     10  C   UNL d   1      54.191  33.456  54.984  0.00  0.00     0.099 A 
ATOM     11  N   UNL d   1      54.727  33.006  54.547  0.00  0.00    -0.242 NA
ATOM     12  C   UNL d   1      54.528  32.762  53.775  0.00  0.00     0.099 A 
ATOM     13  C   UNL d   1      53.801  32.968  53.448  0.00  0.00     0.022 A 
ENDBRANCH   3   8
TORSDOF 1
ENDMDL
