MODEL 1
REMARK VINA RESULT:      15.1      0.000      0.000
REMARK  6 active torsions:
REMARK  status: ('A' for Active; 'I' for Inactive)
REMARK    1  A    between atoms: S_2  and  C_1 
REMARK    2  A    between atoms: N_3  and  S_2 
REMARK    3  A    between atoms: C_17  and  N_3 
REMARK    4  A    between atoms: C_4  and  C_12 
REMARK    5  A    between atoms: O_20  and  C_4 
REMARK    6  A    between atoms: C_23  and  O_20 
ROOT
ATOM      1  S   UNL d   1      24.223  12.754  -1.757  0.00  0.00     0.153 S 
ATOM      2  O   UNL d   1      23.451  12.806  -1.981  0.00  0.00    -0.232 OA
ENDROOT
BRANCH   1   3
ATOM      3  C   UNL d   1      24.125  13.143  -1.171  0.00  0.00     0.108 A 
ATOM      4  C   UNL d   1      24.573  13.529  -1.612  0.00  0.00     0.023 A 
ATOM      5  C   UNL d   1      24.765  14.266  -1.212  0.00  0.00     0.024 A 
ATOM      6  C   UNL d   1      24.629  14.657  -0.552  0.00  0.00     0.009 A 
ATOM      7  C   UNL d   1      24.423  13.612  -1.244  0.00  0.00    -0.027 A 
ATOM      8  C   UNL d   1      24.119  14.219  -0.047  0.00  0.00     0.024 A 
ATOM      9  C   UNL d   1      23.941  13.606  -0.345  0.00  0.00     0.023 A 
ATOM     10  C   UNL d   1      23.734  13.500  -0.067  0.00  0.00    -0.027 A 
ATOM     11  C   UNL d   1      23.867  13.116  -0.714  0.00  0.00    -0.012 A 
ATOM     12  C   UNL d   1      23.660  12.361  -1.106  0.00  0.00    -0.013 A 
ENDBRANCH   1   3
BRANCH   1  13
ATOM     13  N   UNL d   1      24.763  12.327  -2.228  0.00  0.00    -0.185 NA
BRANCH  13  14
ATOM     14  C   UNL d   1      24.757  12.424  -3.060  0.00  0.00     0.091 A 
ATOM     15  C   UNL d   1      24.760  13.209  -3.385  0.00  0.00     0.020 A 
ATOM     16  C   UNL d   1      24.754  13.301  -4.166  0.00  0.00     0.007 A 
ATOM     17  C   UNL d   1      24.745  12.646  -4.667  0.00  0.00     0.064 A 
ATOM     18  C   UNL d   1      24.742  11.877  -4.363  0.00  0.00     0.007 A 
ATOM     19  C   UNL d   1      24.748  11.782  -3.552  0.00  0.00     0.020 A 
BRANCH  17  20
ATOM     20  C   UNL d   1      24.740  12.760  -5.509  0.00  0.00     0.300 C 
ATOM     21  O   UNL d   1      24.707  12.103  -6.003  0.00  0.00    -0.259 OA
BRANCH  20  22
ATOM     22  O   UNL d   1      24.766  13.526  -5.803  0.00  0.00    -0.271 OA
BRANCH  22  23
ATOM     23  C   UNL d   1      24.141  13.774  -6.291  0.00  0.00     0.126 C 
ATOM     24  C   UNL d   1      23.926  14.577  -6.280  0.00  0.00     0.029 C 
ENDBRANCH  22  23
ENDBRANCH  20  22
ENDBRANCH  17  20
ENDBRANCH  13  14
ENDBRANCH   1  13
TORSDOF 6
ENDMDL
