MODEL 1
REMARK VINA RESULT:      60.8      0.000      0.000
REMARK  3 active torsions:
REMARK  status: ('A' for Active; 'I' for Inactive)
REMARK    1  A    between atoms: C_2  and  S_1 
REMARK    2  A    between atoms: N_3  and  S_1 
REMARK    3  A    between atoms: C_8  and  N_3 
ROOT
ATOM      1  S   UNL d   1     -54.793-100.792 -41.179  0.00  0.00     0.327 S 
ATOM      2  O   UNL d   1     -54.736 -99.967 -41.236  0.00  0.00    -0.186 OA
ATOM      3  O   UNL d   1     -54.850-101.614 -41.123  0.00  0.00    -0.186 OA
ENDROOT
BRANCH   1   4
ATOM      4  C   UNL d   1     -54.791-100.736 -40.357  0.00  0.00     0.116 A 
ATOM      5  C   UNL d   1     -54.765-101.418 -39.897  0.00  0.00     0.013 A 
ATOM      6  C   UNL d   1     -54.763-101.362 -39.066  0.00  0.00     0.001 A 
ATOM      7  C   UNL d   1     -54.740-102.165 -40.251  0.00  0.00     0.001 A 
ATOM      8  C   UNL d   1     -54.737-102.045 -38.606  0.00  0.00     0.000 A 
ATOM      9  C   UNL d   1     -54.788-100.624 -38.702  0.00  0.00     0.000 A 
ATOM     10  C   UNL d   1     -54.712-102.783 -38.969  0.00  0.00     0.000 A 
ATOM     11  C   UNL d   1     -54.714-102.848 -39.792  0.00  0.00     0.000 A 
ATOM     12  C   UNL d   1     -54.815 -99.937 -39.163  0.00  0.00     0.001 A 
ATOM     13  C   UNL d   1     -54.816 -99.994 -39.994  0.00  0.00     0.014 A 
ENDBRANCH   1   4
BRANCH   1  14
ATOM     14  N   UNL d   1     -54.795-100.848 -42.003  0.00  0.00    -0.318 NA
BRANCH  14  15
ATOM     15  C   UNL d   1     -54.796-100.904 -42.826  0.00  0.00     0.141 A 
ATOM     16  C   UNL d   1     -54.759-101.634 -43.190  0.00  0.00     0.028 A 
ATOM     17  C   UNL d   1     -54.760-101.689 -44.005  0.00  0.00     0.101 A 
ATOM     18  C   UNL d   1     -54.715-102.511 -43.944  0.00  0.00     0.029 C 
ATOM     19  C   UNL d   1     -54.729-102.315 -44.547  0.00  0.00     0.029 C 
ATOM     20  N   UNL d   1     -54.800-101.008 -44.464  0.00  0.00    -0.295 NA
ATOM     21  C   UNL d   1     -54.838-100.270 -44.102  0.00  0.00     0.101 A 
ATOM     22  C   UNL d   1     -54.837-100.214 -43.279  0.00  0.00     0.028 A 
ATOM     23  C   UNL d   1     -54.883 -99.448 -44.153  0.00  0.00     0.029 C 
ATOM     24  C   UNL d   1     -54.871 -99.725 -44.723  0.00  0.00     0.029 C 
ENDBRANCH  14  15
ENDBRANCH   1  14
TORSDOF 3
ENDMDL
