MODEL 1
REMARK VINA RESULT:      -1.6      0.000      0.000
REMARK  5 active torsions:
REMARK  status: ('A' for Active; 'I' for Inactive)
REMARK    1  A    between atoms: C_11  and  C_1 
REMARK    2  A    between atoms: C_12  and  N_3 
REMARK    3  A    between atoms: C_7  and  S_13 
REMARK    4  A    between atoms: C_14  and  C_11 
REMARK    5  A    between atoms: S_13  and  C_14 
ROOT
ATOM      1  C   UNL d   1      32.729  19.463 -23.341  0.00  0.00     0.057 A 
ATOM      2  C   UNL d   1      32.332  18.965 -23.864  0.00  0.00     0.067 A 
ATOM      3  N   UNL d   1      32.414  18.200 -23.593  0.00  0.00    -0.306 N 
ATOM      4  C   UNL d   1      32.857  18.216 -22.908  0.00  0.00     0.064 A 
ATOM      5  C   UNL d   1      33.058  18.995 -22.743  0.00  0.00     0.022 A 
ATOM      6  C   UNL d   1      31.923  19.192 -24.541  0.00  0.00     0.019 C 
ATOM      7  C   UNL d   1      33.241  17.894 -22.253  0.00  0.00     0.019 C 
ENDROOT
BRANCH   1   8
ATOM      8  C   UNL d   1      33.009  20.191 -23.044  0.00  0.00     0.204 C 
ATOM      9  O   UNL d   1      33.241  20.797 -23.566  0.00  0.00    -0.286 OA
BRANCH   8  10
ATOM     10  C   UNL d   1      33.194  20.674 -22.399  0.00  0.00     0.080 C 
BRANCH  10  11
ATOM     11  S   UNL d   1      32.960  21.465 -22.399  0.00  0.00    -0.043 SA
BRANCH  11  12
ATOM     12  C   UNL d   1      32.803  21.853 -21.684  0.00  0.00     0.233 A 
ATOM     13  N   UNL d   1      32.336  22.521 -21.599  0.00  0.00    -0.029 NA
ATOM     14  C   UNL d   1      32.332  22.717 -20.803  0.00  0.00     0.788 A 
ATOM     15  N   UNL d   1      31.932  23.352 -20.461  0.00  0.00     0.064 N 
ATOM     16  N   UNL d   1      32.798  22.169 -20.407  0.00  0.00     0.050 NA
ATOM     17  N   UNL d   1      33.096  21.626 -20.953  0.00  0.00    -0.105 NA
ENDBRANCH  11  12
ENDBRANCH  10  11
ENDBRANCH   8  10
ENDBRANCH   1   8
BRANCH   3  18
ATOM     18  C   UNL d   1      32.099  17.517 -23.955  0.00  0.00     0.064 A 
ATOM     19  C   UNL d   1      32.520  17.153 -24.516  0.00  0.00     0.020 A 
ATOM     20  C   UNL d   1      32.202  16.471 -24.876  0.00  0.00     0.031 A 
ATOM     21  C   UNL d   1      31.462  16.184 -24.649  0.00  0.00     0.140 A 
ATOM     22  C   UNL d   1      31.043  16.575 -24.067  0.00  0.00     0.031 A 
ATOM     23  F   UNL d   1      31.147  15.509 -25.005  0.00  0.00    -0.204 F 
ATOM     24  C   UNL d   1      31.356  17.245 -23.714  0.00  0.00     0.020 A 
ENDBRANCH   3  18
TORSDOF 5
ENDMDL
MODEL 2
REMARK VINA RESULT:      -1.5      1.242      1.737
REMARK  5 active torsions:
REMARK  status: ('A' for Active; 'I' for Inactive)
REMARK    1  A    between atoms: C_11  and  C_1 
REMARK    2  A    between atoms: C_12  and  N_3 
REMARK    3  A    between atoms: C_7  and  S_13 
REMARK    4  A    between atoms: C_14  and  C_11 
REMARK    5  A    between atoms: S_13  and  C_14 
ROOT
ATOM      1  C   UNL d   1      32.159  18.379 -23.969  0.00  0.00     0.057 A 
ATOM      2  C   UNL d   1      31.392  18.145 -24.162  0.00  0.00     0.067 A 
ATOM      3  N   UNL d   1      31.349  17.334 -24.080  0.00  0.00    -0.306 N 
ATOM      4  C   UNL d   1      32.079  17.061 -23.838  0.00  0.00     0.064 A 
ATOM      5  C   UNL d   1      32.589  17.701 -23.767  0.00  0.00     0.022 A 
ATOM      6  C   UNL d   1      30.775  18.636 -24.397  0.00  0.00     0.019 C 
ATOM      7  C   UNL d   1      32.633  16.493 -23.613  0.00  0.00     0.019 C 
ENDROOT
BRANCH   1   8
ATOM      8  C   UNL d   1      32.785  18.917 -23.852  0.00  0.00     0.204 C 
ATOM      9  O   UNL d   1      33.241  19.179 -24.498  0.00  0.00    -0.286 OA
BRANCH   8  10
ATOM     10  C   UNL d   1      33.240  19.382 -23.341  0.00  0.00     0.080 C 
BRANCH  10  11
ATOM     11  S   UNL d   1      33.076  20.188 -23.266  0.00  0.00    -0.043 SA
BRANCH  11  12
ATOM     12  C   UNL d   1      33.102  20.550 -22.522  0.00  0.00     0.233 A 
ATOM     13  N   UNL d   1      33.035  21.355 -22.384  0.00  0.00    -0.029 NA
ATOM     14  C   UNL d   1      33.090  21.470 -21.574  0.00  0.00     0.788 A 
ATOM     15  N   UNL d   1      33.052  22.195 -21.182  0.00  0.00     0.064 N 
ATOM     16  N   UNL d   1      33.190  20.735 -21.222  0.00  0.00     0.050 NA
ATOM     17  N   UNL d   1      33.199  20.155 -21.811  0.00  0.00    -0.105 NA
ENDBRANCH  11  12
ENDBRANCH  10  11
ENDBRANCH   8  10
ENDBRANCH   1   8
BRANCH   3  18
ATOM     18  C   UNL d   1      30.674  16.865 -24.219  0.00  0.00     0.064 A 
ATOM     19  C   UNL d   1      30.507  16.645 -24.960  0.00  0.00     0.020 A 
ATOM     20  C   UNL d   1      29.832  16.176 -25.097  0.00  0.00     0.031 A 
ATOM     21  C   UNL d   1      29.347  15.946 -24.469  0.00  0.00     0.140 A 
ATOM     22  C   UNL d   1      29.537  16.184 -23.710  0.00  0.00     0.031 A 
ATOM     23  F   UNL d   1      28.678  15.481 -24.603  0.00  0.00    -0.204 F 
ATOM     24  C   UNL d   1      30.201  16.644 -23.577  0.00  0.00     0.020 A 
ENDBRANCH   3  18
TORSDOF 5
ENDMDL
MODEL 3
REMARK VINA RESULT:      -1.3      2.413      5.317
REMARK  5 active torsions:
REMARK  status: ('A' for Active; 'I' for Inactive)
REMARK    1  A    between atoms: C_11  and  C_1 
REMARK    2  A    between atoms: C_12  and  N_3 
REMARK    3  A    between atoms: C_7  and  S_13 
REMARK    4  A    between atoms: C_14  and  C_11 
REMARK    5  A    between atoms: S_13  and  C_14 
ROOT
ATOM      1  C   UNL d   1      33.014  19.953 -22.809  0.00  0.00     0.057 A 
ATOM      2  C   UNL d   1      32.934  20.756 -22.643  0.00  0.00     0.067 A 
ATOM      3  N   UNL d   1      32.999  20.853 -21.836  0.00  0.00    -0.306 N 
ATOM      4  C   UNL d   1      33.118  20.121 -21.497  0.00  0.00     0.064 A 
ATOM      5  C   UNL d   1      33.130  19.555 -22.093  0.00  0.00     0.022 A 
ATOM      6  C   UNL d   1      32.810  21.359 -23.189  0.00  0.00     0.019 C 
ATOM      7  C   UNL d   1      33.240  19.588 -20.880  0.00  0.00     0.019 C 
ENDROOT
BRANCH   1   8
ATOM      8  C   UNL d   1      33.050  19.274 -23.292  0.00  0.00     0.204 C 
ATOM      9  O   UNL d   1      33.237  19.343 -24.101  0.00  0.00    -0.286 OA
BRANCH   8  10
ATOM     10  C   UNL d   1      32.982  18.455 -23.376  0.00  0.00     0.080 C 
BRANCH  10  11
ATOM     11  S   UNL d   1      32.758  18.134 -24.103  0.00  0.00    -0.043 SA
BRANCH  11  12
ATOM     12  C   UNL d   1      32.440  17.370 -24.141  0.00  0.00     0.233 A 
ATOM     13  N   UNL d   1      31.641  17.189 -24.145  0.00  0.00    -0.029 NA
ATOM     14  C   UNL d   1      31.575  16.372 -24.188  0.00  0.00     0.788 A 
ATOM     15  N   UNL d   1      30.873  15.941 -24.206  0.00  0.00     0.064 N 
ATOM     16  N   UNL d   1      32.335  16.060 -24.210  0.00  0.00     0.050 NA
ATOM     17  N   UNL d   1      32.880  16.680 -24.181  0.00  0.00    -0.105 NA
ENDBRANCH  11  12
ENDBRANCH  10  11
ENDBRANCH   8  10
ENDBRANCH   1   8
BRANCH   3  18
ATOM     18  C   UNL d   1      32.950  21.579 -21.425  0.00  0.00     0.064 A 
ATOM     19  C   UNL d   1      33.235  22.231 -21.769  0.00  0.00     0.020 A 
ATOM     20  C   UNL d   1      33.186  22.954 -21.357  0.00  0.00     0.031 A 
ATOM     21  C   UNL d   1      32.846  22.986 -20.605  0.00  0.00     0.140 A 
ATOM     22  C   UNL d   1      32.558  22.300 -20.268  0.00  0.00     0.031 A 
ATOM     23  F   UNL d   1      32.797  23.702 -20.196  0.00  0.00    -0.204 F 
ATOM     24  C   UNL d   1      32.607  21.590 -20.673  0.00  0.00     0.020 A 
ENDBRANCH   3  18
TORSDOF 5
ENDMDL
MODEL 4
REMARK VINA RESULT:      -0.5      2.388      3.994
REMARK  5 active torsions:
REMARK  status: ('A' for Active; 'I' for Inactive)
REMARK    1  A    between atoms: C_11  and  C_1 
REMARK    2  A    between atoms: C_12  and  N_3 
REMARK    3  A    between atoms: C_7  and  S_13 
REMARK    4  A    between atoms: C_14  and  C_11 
REMARK    5  A    between atoms: S_13  and  C_14 
ROOT
ATOM      1  C   UNL d   1      32.784  22.189 -20.686  0.00  0.00     0.057 A 
ATOM      2  C   UNL d   1      32.938  21.397 -20.857  0.00  0.00     0.067 A 
ATOM      3  N   UNL d   1      32.736  21.266 -21.637  0.00  0.00    -0.306 N 
ATOM      4  C   UNL d   1      32.459  21.965 -21.952  0.00  0.00     0.064 A 
ATOM      5  C   UNL d   1      32.484  22.544 -21.371  0.00  0.00     0.022 A 
ATOM      6  C   UNL d   1      33.241  20.834 -20.339  0.00  0.00     0.019 C 
ATOM      7  C   UNL d   1      32.153  22.457 -22.540  0.00  0.00     0.019 C 
ENDROOT
BRANCH   1   8
ATOM      8  C   UNL d   1      32.749  22.874 -20.211  0.00  0.00     0.204 C 
ATOM      9  O   UNL d   1      33.003  23.608 -20.513  0.00  0.00    -0.286 OA
BRANCH   8  10
ATOM     10  C   UNL d   1      32.562  23.233 -19.490  0.00  0.00     0.080 C 
BRANCH  10  11
ATOM     11  S   UNL d   1      33.080  23.163 -18.851  0.00  0.00    -0.043 SA
BRANCH  11  12
ATOM     12  C   UNL d   1      32.793  23.209 -18.075  0.00  0.00     0.233 A 
ATOM     13  N   UNL d   1      33.241  23.108 -17.397  0.00  0.00    -0.029 NA
ATOM     14  C   UNL d   1      32.738  23.200 -16.756  0.00  0.00     0.788 A 
ATOM     15  N   UNL d   1      32.949  23.146 -15.960  0.00  0.00     0.064 N 
ATOM     16  N   UNL d   1      31.986  23.356 -17.046  0.00  0.00     0.050 NA
ATOM     17  N   UNL d   1      32.014  23.363 -17.872  0.00  0.00    -0.105 NA
ENDBRANCH  11  12
ENDBRANCH  10  11
ENDBRANCH   8  10
ENDBRANCH   1   8
BRANCH   3  18
ATOM     18  C   UNL d   1      32.802  20.539 -22.042  0.00  0.00     0.064 A 
ATOM     19  C   UNL d   1      32.602  19.873 -21.668  0.00  0.00     0.020 A 
ATOM     20  C   UNL d   1      32.669  19.149 -22.075  0.00  0.00     0.031 A 
ATOM     21  C   UNL d   1      32.940  19.130 -22.855  0.00  0.00     0.140 A 
ATOM     22  C   UNL d   1      33.141  19.830 -23.224  0.00  0.00     0.031 A 
ATOM     23  F   UNL d   1      33.006  18.413 -23.259  0.00  0.00    -0.204 F 
ATOM     24  C   UNL d   1      33.075  20.541 -22.823  0.00  0.00     0.020 A 
ENDBRANCH   3  18
TORSDOF 5
ENDMDL
MODEL 5
REMARK VINA RESULT:       0.0      3.319      5.434
REMARK  5 active torsions:
REMARK  status: ('A' for Active; 'I' for Inactive)
REMARK    1  A    between atoms: C_11  and  C_1 
REMARK    2  A    between atoms: C_12  and  N_3 
REMARK    3  A    between atoms: C_7  and  S_13 
REMARK    4  A    between atoms: C_14  and  C_11 
REMARK    5  A    between atoms: S_13  and  C_14 
ROOT
ATOM      1  C   UNL d   1      31.526  16.968 -24.453  0.00  0.00     0.057 A 
ATOM      2  C   UNL d   1      31.598  17.785 -24.365  0.00  0.00     0.067 A 
ATOM      3  N   UNL d   1      32.211  17.929 -23.846  0.00  0.00    -0.306 N 
ATOM      4  C   UNL d   1      32.521  17.212 -23.610  0.00  0.00     0.064 A 
ATOM      5  C   UNL d   1      32.104  16.610 -23.980  0.00  0.00     0.022 A 
ATOM      6  C   UNL d   1      31.137  18.359 -24.733  0.00  0.00     0.019 C 
ATOM      7  C   UNL d   1      33.032  16.713 -23.198  0.00  0.00     0.019 C 
ENDROOT
BRANCH   1   8
ATOM      8  C   UNL d   1      31.203  16.258 -24.747  0.00  0.00     0.204 C 
ATOM      9  O   UNL d   1      31.703  15.651 -25.021  0.00  0.00    -0.286 OA
BRANCH   8  10
ATOM     10  C   UNL d   1      30.541  15.796 -24.927  0.00  0.00     0.080 C 
BRANCH  10  11
ATOM     11  S   UNL d   1      30.103  15.454 -24.316  0.00  0.00    -0.043 SA
BRANCH  11  12
ATOM     12  C   UNL d   1      29.277  15.516 -24.311  0.00  0.00     0.233 A 
ATOM     13  N   UNL d   1      28.801  15.456 -23.647  0.00  0.00    -0.029 NA
ATOM     14  C   UNL d   1      28.024  15.551 -23.893  0.00  0.00     0.788 A 
ATOM     15  N   UNL d   1      27.356  15.531 -23.411  0.00  0.00     0.064 N 
ATOM     16  N   UNL d   1      28.031  15.669 -24.706  0.00  0.00     0.050 NA
ATOM     17  N   UNL d   1      28.813  15.648 -24.974  0.00  0.00    -0.105 NA
ENDBRANCH  11  12
ENDBRANCH  10  11
ENDBRANCH   8  10
ENDBRANCH   1   8
BRANCH   3  18
ATOM     18  C   UNL d   1      32.476  18.681 -23.599  0.00  0.00     0.064 A 
ATOM     19  C   UNL d   1      32.945  19.098 -24.080  0.00  0.00     0.020 A 
ATOM     20  C   UNL d   1      33.208  19.848 -23.831  0.00  0.00     0.031 A 
ATOM     21  C   UNL d   1      32.981  20.149 -23.096  0.00  0.00     0.140 A 
ATOM     22  C   UNL d   1      32.496  19.703 -22.614  0.00  0.00     0.031 A 
ATOM     23  F   UNL d   1      33.241  20.893 -22.849  0.00  0.00    -0.204 F 
ATOM     24  C   UNL d   1      32.238  18.965 -22.860  0.00  0.00     0.020 A 
ENDBRANCH   3  18
TORSDOF 5
ENDMDL
MODEL 6
REMARK VINA RESULT:       0.1      2.538      5.606
REMARK  5 active torsions:
REMARK  status: ('A' for Active; 'I' for Inactive)
REMARK    1  A    between atoms: C_11  and  C_1 
REMARK    2  A    between atoms: C_12  and  N_3 
REMARK    3  A    between atoms: C_7  and  S_13 
REMARK    4  A    between atoms: C_14  and  C_11 
REMARK    5  A    between atoms: S_13  and  C_14 
ROOT
ATOM      1  C   UNL d   1      32.957  21.375 -21.880  0.00  0.00     0.057 A 
ATOM      2  C   UNL d   1      32.782  22.027 -21.407  0.00  0.00     0.067 A 
ATOM      3  N   UNL d   1      32.840  21.795 -20.627  0.00  0.00    -0.306 N 
ATOM      4  C   UNL d   1      33.049  21.007 -20.608  0.00  0.00     0.064 A 
ATOM      5  C   UNL d   1      33.125  20.736 -21.380  0.00  0.00     0.022 A 
ATOM      6  C   UNL d   1      32.583  22.782 -21.668  0.00  0.00     0.019 C 
ATOM      7  C   UNL d   1      33.239  20.287 -20.254  0.00  0.00     0.019 C 
ENDROOT
BRANCH   1   8
ATOM      8  C   UNL d   1      33.071  20.959 -22.594  0.00  0.00     0.204 C 
ATOM      9  O   UNL d   1      33.011  21.354 -23.325  0.00  0.00    -0.286 OA
BRANCH   8  10
ATOM     10  C   UNL d   1      33.236  20.251 -22.988  0.00  0.00     0.080 C 
BRANCH  10  11
ATOM     11  S   UNL d   1      32.816  20.055 -23.671  0.00  0.00    -0.043 SA
BRANCH  11  12
ATOM     12  C   UNL d   1      32.720  19.262 -23.888  0.00  0.00     0.233 A 
ATOM     13  N   UNL d   1      32.094  18.961 -24.322  0.00  0.00    -0.029 NA
ATOM     14  C   UNL d   1      32.220  18.156 -24.409  0.00  0.00     0.788 A 
ATOM     15  N   UNL d   1      31.729  17.627 -24.808  0.00  0.00     0.064 N 
ATOM     16  N   UNL d   1      32.922  17.969 -24.026  0.00  0.00     0.050 NA
ATOM     17  N   UNL d   1      33.240  18.657 -23.698  0.00  0.00    -0.105 NA
ENDBRANCH  11  12
ENDBRANCH  10  11
ENDBRANCH   8  10
ENDBRANCH   1   8
BRANCH   3  18
ATOM     18  C   UNL d   1      32.709  22.281 -19.962  0.00  0.00     0.064 A 
ATOM     19  C   UNL d   1      32.082  22.763 -19.959  0.00  0.00     0.020 A 
ATOM     20  C   UNL d   1      31.952  23.247 -19.293  0.00  0.00     0.031 A 
ATOM     21  C   UNL d   1      32.470  23.223 -18.649  0.00  0.00     0.140 A 
ATOM     22  C   UNL d   1      33.112  22.718 -18.673  0.00  0.00     0.031 A 
ATOM     23  F   UNL d   1      32.343  23.702 -17.990  0.00  0.00    -0.204 F 
ATOM     24  C   UNL d   1      33.238  22.242 -19.327  0.00  0.00     0.020 A 
ENDBRANCH   3  18
TORSDOF 5
ENDMDL
