MODEL 1
REMARK VINA RESULT:      79.4      0.000      0.000
REMARK  6 active torsions:
REMARK  status: ('A' for Active; 'I' for Inactive)
REMARK    1  A    between atoms: N_4  and  C_2 
REMARK    2  A    between atoms: C_9  and  N_4 
REMARK    3  A    between atoms: O_16  and  C_8 
REMARK    4  A    between atoms: O_24  and  C_10 
REMARK    5  A    between atoms: C_22  and  O_16 
REMARK    6  A    between atoms: C_26  and  C_22 
ROOT
ATOM      1  C   UNL d   1     -49.551  27.434  33.872  0.00  0.00     0.056 A 
ATOM      2  C   UNL d   1     -50.044  26.871  33.529  0.00  0.00     0.166 A 
ATOM      3  C   UNL d   1     -49.827  28.203  33.997  0.00  0.00     0.088 A 
ATOM      4  C   UNL d   1     -48.784  27.231  34.089  0.00  0.00     0.031 A 
ATOM      5  N   UNL d   1     -50.818  27.072  33.309  0.00  0.00    -0.205 NA
ATOM      6  C   UNL d   1     -49.334  28.766  34.340  0.00  0.00     0.046 A 
ATOM      7  C   UNL d   1     -48.567  28.563  34.557  0.00  0.00     0.124 A 
ATOM      8  C   UNL d   1     -48.291  27.794  34.432  0.00  0.00     0.117 A 
ATOM      9  N   UNL d   1     -50.594  28.406  33.780  0.00  0.00    -0.224 NA
ATOM     10  C   UNL d   1     -51.094  27.841  33.434  0.00  0.00     0.200 A 
ENDROOT
BRANCH   2  11
ATOM     11  N   UNL d   1     -49.766  26.096  33.402  0.00  0.00    -0.224 NA
BRANCH  11  12
ATOM     12  C   UNL d   1     -50.299  25.474  33.381  0.00  0.00     0.110 A 
ATOM     13  C   UNL d   1     -50.041  24.692  33.333  0.00  0.00     0.158 A 
ATOM     14  C   UNL d   1     -50.575  24.066  33.311  0.00  0.00     0.038 A 
ATOM     15  F   UNL d   1     -49.224  24.533  33.306  0.00  0.00    -0.203 F 
ATOM     16  C   UNL d   1     -51.393  24.225  33.338  0.00  0.00     0.037 A 
ATOM     17  C   UNL d   1     -51.658  25.014  33.386  0.00  0.00     0.008 A 
ATOM     18 BR   UNL d   1     -51.937  23.593  33.316  0.00  0.00    -0.049 Br
ATOM     19  C   UNL d   1     -51.117  25.633  33.408  0.00  0.00     0.022 A 
ENDBRANCH  11  12
ENDBRANCH   2  11
BRANCH   8  20
ATOM     20  O   UNL d   1     -47.513  27.594  34.654  0.00  0.00    -0.326 OA
ATOM     21  C   UNL d   1     -47.326  26.813  34.847  0.00  0.00     0.181 C 
ENDBRANCH   8  20
BRANCH   7  22
ATOM     22  O   UNL d   1     -48.064  29.133  34.905  0.00  0.00    -0.303 OA
BRANCH  22  23
ATOM     23  C   UNL d   1     -48.382  29.819  35.242  0.00  0.00     0.123 C 
BRANCH  23  24
ATOM     24  C   UNL d   1     -48.093  30.559  35.011  0.00  0.00     0.028 A 
ATOM     25  C   UNL d   1     -47.411  30.870  35.368  0.00  0.00     0.021 A 
ATOM     26  C   UNL d   1     -47.128  31.607  35.133  0.00  0.00     0.080 A 
ATOM     27  N   UNL d   1     -47.517  32.044  34.545  0.00  0.00    -0.301 N 
ATOM     28  C   UNL d   1     -48.195  31.734  34.191  0.00  0.00     0.080 A 
ATOM     29  C   UNL d   1     -47.224  32.796  34.309  0.00  0.00     0.100 C 
ATOM     30  C   UNL d   1     -48.484  30.991  34.423  0.00  0.00     0.021 A 
ENDBRANCH  23  24
ENDBRANCH  22  23
ENDBRANCH   7  22
TORSDOF 6
ENDMDL
