MODEL 1
REMARK VINA RESULT:      32.3      0.000      0.000
REMARK  9 active torsions:
REMARK  status: ('A' for Active; 'I' for Inactive)
REMARK    1  A    between atoms: C_3  and  C_1 
REMARK    2  A    between atoms: C_4  and  C_1 
REMARK    3  A    between atoms: C_2  and  C_4 
REMARK    4  A    between atoms: O_9  and  C_2 
REMARK       I    between atoms: N_6  and  C_3 
REMARK    5  A    between atoms: N_5  and  C_4 
REMARK    6  A    between atoms: C_10  and  N_5 
REMARK    7  A    between atoms: C_11  and  N_6 
REMARK    8  A    between atoms: C_12  and  C_10 
REMARK    9  A    between atoms: C_13  and  C_11 
ROOT
ATOM      1  C   UNK d   1     -50.596  26.523  33.895  0.00  0.00     0.124 C 
ENDROOT
BRANCH   1   2
ATOM      2  C   UNK d   1     -49.942  27.028  33.768  0.00  0.00     0.194 C 
ATOM      3  O   UNK d   1     -49.194  26.715  33.660  0.00  0.00    -0.645 OA
BRANCH   2   4
ATOM      4  O   UNK d   1     -50.050  27.855  33.750  0.00  0.00    -0.772 OA
ATOM      5  H   UNK d   1     -49.515  28.349  34.142  0.00  0.00     0.167 HD
ENDBRANCH   2   4
ENDBRANCH   1   2
BRANCH   1   6
ATOM      6  C   UNK d   1     -50.821  25.982  33.315  0.00  0.00     0.084 C 
BRANCH   6   7
ATOM      7  C   UNK d   1     -51.579  25.673  33.323  0.00  0.00     0.259 C 
ATOM      8  N   UNK d   1     -51.686  24.855  33.347  0.00  0.00    -0.320 N 
ATOM      9  H   UNK d   1     -51.023  24.345  33.364  0.00  0.00     0.169 HD
ATOM     10  O   UNK d   1     -52.239  26.179  33.306  0.00  0.00    -0.267 OA
BRANCH   8  11
ATOM     11  C   UNK d   1     -52.447  24.537  33.355  0.00  0.00     0.075 C 
BRANCH  11  12
ATOM     12  C   UNK d   1     -52.565  23.730  33.511  0.00  0.00     0.017 C 
ATOM     13  C   UNK d   1     -51.946  23.192  33.423  0.00  0.00     0.002 C 
ATOM     14  C   UNK d   1     -53.311  23.465  33.757  0.00  0.00     0.002 C 
ENDBRANCH  11  12
ENDBRANCH   8  11
ENDBRANCH   6   7
ENDBRANCH   1   6
BRANCH   1  15
ATOM     15  N   UNK d   1     -51.022  26.562  34.599  0.00  0.00    -0.347 N 
ATOM     16  H   UNK d   1     -51.854  26.594  34.566  0.00  0.00     0.166 HD
BRANCH  15  17
ATOM     17  C   UNK d   0     -50.628  26.569  35.328  0.00  0.00     0.073 C 
BRANCH  17  18
ATOM     18  C   UNK d   0     -51.056  26.604  36.024  0.00  0.00     0.017 C 
ATOM     19  C   UNK d   0     -51.802  26.256  36.068  0.00  0.00     0.002 C 
ATOM     20  C   UNK d   0     -50.740  26.987  36.682  0.00  0.00     0.002 C 
ENDBRANCH  17  18
ENDBRANCH  15  17
ENDBRANCH   1  15
TORSDOF 9
ENDMDL
MODEL 2
REMARK VINA RESULT:      32.8      5.019      7.022
REMARK  9 active torsions:
REMARK  status: ('A' for Active; 'I' for Inactive)
REMARK    1  A    between atoms: C_3  and  C_1 
REMARK    2  A    between atoms: C_4  and  C_1 
REMARK    3  A    between atoms: C_2  and  C_4 
REMARK    4  A    between atoms: O_9  and  C_2 
REMARK       I    between atoms: N_6  and  C_3 
REMARK    5  A    between atoms: N_5  and  C_4 
REMARK    6  A    between atoms: C_10  and  N_5 
REMARK    7  A    between atoms: C_11  and  N_6 
REMARK    8  A    between atoms: C_12  and  C_10 
REMARK    9  A    between atoms: C_13  and  C_11 
ROOT
ATOM      1  C   UNK d   1     -47.308  30.282  35.693  0.00  0.00     0.124 C 
ENDROOT
BRANCH   1   2
ATOM      2  C   UNK d   1     -47.039  30.288  36.485  0.00  0.00     0.194 C 
ATOM      3  O   UNK d   1     -46.237  30.262  36.648  0.00  0.00    -0.645 OA
BRANCH   2   4
ATOM      4  O   UNK d   1     -47.587  30.320  37.113  0.00  0.00    -0.772 OA
ATOM      5  H   UNK d   1     -47.339  30.161  37.885  0.00  0.00     0.167 HD
ENDBRANCH   2   4
ENDBRANCH   1   2
BRANCH   1   6
ATOM      6  C   UNK d   1     -46.949  30.763  35.129  0.00  0.00     0.084 C 
BRANCH   6   7
ATOM      7  C   UNK d   1     -47.149  31.555  35.086  0.00  0.00     0.259 C 
ATOM      8  N   UNK d   1     -47.526  31.845  34.411  0.00  0.00    -0.320 N 
ATOM      9  H   UNK d   1     -47.702  31.331  33.775  0.00  0.00     0.169 HD
ATOM     10  O   UNK d   1     -46.975  32.068  35.718  0.00  0.00    -0.267 OA
BRANCH   8  11
ATOM     11  C   UNK d   1     -47.731  32.642  34.362  0.00  0.00     0.075 C 
BRANCH  11  12
ATOM     12  C   UNK d   1     -48.043  32.954  33.658  0.00  0.00     0.017 C 
ATOM     13  C   UNK d   1     -47.702  33.619  33.307  0.00  0.00     0.002 C 
ATOM     14  C   UNK d   1     -48.702  32.594  33.307  0.00  0.00     0.002 C 
ENDBRANCH  11  12
ENDBRANCH   8  11
ENDBRANCH   6   7
ENDBRANCH   1   6
BRANCH   1  15
ATOM     15  N   UNK d   1     -47.935  29.796  35.471  0.00  0.00    -0.347 N 
ATOM     16  H   UNK d   1     -48.711  30.099  35.505  0.00  0.00     0.166 HD
BRANCH  15  17
ATOM     17  C   UNK d   0     -47.796  29.020  35.217  0.00  0.00     0.073 C 
BRANCH  17  18
ATOM     18  C   UNK d   0     -48.425  28.519  35.069  0.00  0.00     0.017 C 
ATOM     19  C   UNK d   0     -48.719  28.440  34.302  0.00  0.00     0.002 C 
ATOM     20  C   UNK d   0     -48.765  28.092  35.686  0.00  0.00     0.002 C 
ENDBRANCH  17  18
ENDBRANCH  15  17
ENDBRANCH   1  15
TORSDOF 9
ENDMDL
MODEL 3
REMARK VINA RESULT:      32.9      1.324      3.668
REMARK  9 active torsions:
REMARK  status: ('A' for Active; 'I' for Inactive)
REMARK    1  A    between atoms: C_3  and  C_1 
REMARK    2  A    between atoms: C_4  and  C_1 
REMARK    3  A    between atoms: C_2  and  C_4 
REMARK    4  A    between atoms: O_9  and  C_2 
REMARK       I    between atoms: N_6  and  C_3 
REMARK    5  A    between atoms: N_5  and  C_4 
REMARK    6  A    between atoms: C_10  and  N_5 
REMARK    7  A    between atoms: C_11  and  N_6 
REMARK    8  A    between atoms: C_12  and  C_10 
REMARK    9  A    between atoms: C_13  and  C_11 
ROOT
ATOM      1  C   UNK d   1     -50.476  25.340  33.456  0.00  0.00     0.124 C 
ENDROOT
BRANCH   1   2
ATOM      2  C   UNK d   1     -49.651  25.218  33.385  0.00  0.00     0.194 C 
ATOM      3  O   UNK d   1     -49.345  24.460  33.392  0.00  0.00    -0.645 OA
BRANCH   2   4
ATOM      4  O   UNK d   1     -49.138  25.871  33.307  0.00  0.00    -0.772 OA
ATOM      5  H   UNK d   1     -48.548  25.865  32.728  0.00  0.00     0.167 HD
ENDBRANCH   2   4
ENDBRANCH   1   2
BRANCH   1   6
ATOM      6  C   UNK d   1     -50.799  26.084  33.309  0.00  0.00     0.084 C 
BRANCH   6   7
ATOM      7  C   UNK d   1     -50.695  26.685  33.855  0.00  0.00     0.259 C 
ATOM      8  N   UNK d   1     -49.938  26.979  34.000  0.00  0.00    -0.320 N 
ATOM      9  H   UNK d   1     -49.280  26.664  33.590  0.00  0.00     0.169 HD
ATOM     10  O   UNK d   1     -51.349  26.999  34.263  0.00  0.00    -0.267 OA
BRANCH   8  11
ATOM     11  C   UNK d   1     -49.827  27.585  34.549  0.00  0.00     0.075 C 
BRANCH  11  12
ATOM     12  C   UNK d   1     -49.108  27.999  34.580  0.00  0.00     0.017 C 
ATOM     13  C   UNK d   1     -49.061  28.778  34.311  0.00  0.00     0.002 C 
ATOM     14  C   UNK d   1     -48.432  27.626  34.882  0.00  0.00     0.002 C 
ENDBRANCH  11  12
ENDBRANCH   8  11
ENDBRANCH   6   7
ENDBRANCH   1   6
BRANCH   1  15
ATOM     15  N   UNK d   1     -50.971  24.719  33.673  0.00  0.00    -0.347 N 
ATOM     16  H   UNK d   1     -50.712  24.181  34.254  0.00  0.00     0.166 HD
BRANCH  15  17
ATOM     17  C   UNK d   0     -51.715  24.632  33.318  0.00  0.00     0.073 C 
BRANCH  17  18
ATOM     18  C   UNK d   0     -52.123  23.927  33.392  0.00  0.00     0.017 C 
ATOM     19  C   UNK d   0     -51.718  23.209  33.362  0.00  0.00     0.002 C 
ATOM     20  C   UNK d   0     -52.941  23.934  33.495  0.00  0.00     0.002 C 
ENDBRANCH  17  18
ENDBRANCH  15  17
ENDBRANCH   1  15
TORSDOF 9
ENDMDL
