MODEL 1
REMARK VINA RESULT:      88.3      0.000      0.000
REMARK  5 active torsions:
REMARK  status: ('A' for Active; 'I' for Inactive)
REMARK    1  A    between atoms: N_5  and  S_1 
REMARK    2  A    between atoms: C_10  and  S_1 
REMARK    3  A    between atoms: C_2  and  N_6 
REMARK    4  A    between atoms: C_20  and  N_5 
REMARK    5  A    between atoms: C_7  and  C_14 
REMARK       I    between atoms: N_8  and  C_7 
ROOT
ATOM      1  C   UNL d   1     -50.572  26.707  34.219  0.00  0.00     0.104 A 
ATOM      2  C   UNL d   1     -49.348  27.510  34.938  0.00  0.00     0.057 A 
ATOM      3  C   UNL d   1     -50.604  26.931  35.022  0.00  0.00     0.013 A 
ATOM      4  C   UNL d   1     -49.915  26.893  33.784  0.00  0.00     0.013 A 
ATOM      5  C   UNL d   1     -49.982  27.334  35.367  0.00  0.00     0.005 A 
ATOM      6  C   UNL d   1     -49.297  27.295  34.137  0.00  0.00     0.005 A 
ENDROOT
BRANCH   2   7
ATOM      7  C   UNL d   1     -48.727  27.916  35.298  0.00  0.00     0.265 C 
ATOM      8  N   UNL d   1     -48.543  28.690  35.072  0.00  0.00    -0.269 N 
ATOM      9  C   UNL d   1     -47.914  29.149  35.411  0.00  0.00     0.102 A 
ATOM     10  C   UNL d   1     -48.980  29.058  34.486  0.00  0.00     0.102 A 
ATOM     11  C   UNL d   1     -47.732  29.899  35.195  0.00  0.00     0.101 A 
ATOM     12  N   UNL d   1     -48.186  30.248  34.604  0.00  0.00    -0.281 N 
ATOM     13  C   UNL d   1     -48.791  29.876  34.242  0.00  0.00     0.101 A 
ATOM     14  O   UNL d   1     -48.290  27.533  35.892  0.00  0.00    -0.267 OA
BRANCH  12  15
ATOM     15  C   UNL d   1     -48.023  31.006  34.366  0.00  0.00     0.179 A 
ATOM     16  N   UNL d   1     -47.329  31.464  34.549  0.00  0.00    -0.222 NA
ATOM     17  C   UNL d   1     -47.449  32.189  34.171  0.00  0.00     0.089 A 
ATOM     18  C   UNL d   1     -46.991  32.870  34.128  0.00  0.00     0.020 A 
ATOM     19  C   UNL d   1     -48.177  32.136  33.795  0.00  0.00     0.050 A 
ATOM     20  C   UNL d   1     -47.252  33.557  33.689  0.00  0.00     0.002 A 
ATOM     21  C   UNL d   1     -48.005  33.487  33.307  0.00  0.00     0.001 A 
ATOM     22  C   UNL d   1     -48.464  32.789  33.356  0.00  0.00     0.008 A 
ATOM     23  S   UNL d   1     -48.507  31.398  33.932  0.00  0.00    -0.048 SA
ENDBRANCH  12  15
ENDBRANCH   2   7
BRANCH   1  24
ATOM     24  S   UNL d   1     -51.216  26.298  33.888  0.00  0.00     0.271 S 
ATOM     25  O   UNL d   1     -50.747  25.602  33.864  0.00  0.00    -0.200 OA
ATOM     26  O   UNL d   1     -51.687  26.988  33.908  0.00  0.00    -0.200 OA
BRANCH  24  27
ATOM     27  N   UNL d   1     -51.848  25.875  33.556  0.00  0.00    -0.229 N 
ATOM     28  C   UNL d   1     -52.535  26.280  33.307  0.00  0.00     0.111 C 
BRANCH  27  29
ATOM     29  C   UNL d   1     -51.797  25.058  33.474  0.00  0.00     0.075 A 
ATOM     30  C   UNL d   1     -51.058  24.689  33.431  0.00  0.00     0.018 A 
ATOM     31  C   UNL d   1     -51.006  23.872  33.348  0.00  0.00     0.002 A 
ATOM     32  C   UNL d   1     -51.693  23.408  33.307  0.00  0.00     0.000 A 
ATOM     33  C   UNL d   1     -52.430  23.789  33.351  0.00  0.00     0.002 A 
ATOM     34  C   UNL d   1     -52.481  24.607  33.434  0.00  0.00     0.018 A 
ENDBRANCH  27  29
ENDBRANCH  24  27
ENDBRANCH   1  24
TORSDOF 5
ENDMDL
