MODEL 1
REMARK VINA RESULT:      -4.3      0.000      0.000
REMARK  5 active torsions:
REMARK  status: ('A' for Active; 'I' for Inactive)
REMARK    1  A    between atoms: C_6  and  C_1 
REMARK    2  A    between atoms: C_7  and  C_6 
REMARK    3  A    between atoms: C_11  and  C_19 
REMARK    4  A    between atoms: O_18  and  C_17 
REMARK    5  A    between atoms: C_19  and  O_18 
ROOT
ATOM      1  C   UNL d   1     -41.301-122.324 -52.905  0.00  0.00     0.139 A 
ATOM      2  C   UNL d   1     -41.511-122.070 -51.605  0.00  0.00     0.064 A 
ATOM      3  C   UNL d   1     -41.304-121.731 -52.325  0.00  0.00     0.220 A 
ATOM      4  C   UNL d   1     -41.638-122.876 -51.731  0.00  0.00     0.105 A 
ATOM      5  O   UNL d   1     -41.507-123.032 -52.539  0.00  0.00    -0.304 OA
ATOM      6  C   UNL d   1     -41.854-123.366 -51.106  0.00  0.00     0.049 A 
ATOM      7  C   UNL d   1     -41.601-121.752 -50.854  0.00  0.00     0.007 A 
ATOM      8  O   UNL d   1     -41.129-120.937 -52.454  0.00  0.00    -0.284 OA
ATOM      9  C   UNL d   1     -41.943-123.040 -50.353  0.00  0.00     0.097 A 
ATOM     10  C   UNL d   1     -41.817-122.237 -50.227  0.00  0.00     0.025 A 
ENDROOT
BRANCH   1  11
ATOM     11  C   UNL d   1     -41.123-122.227 -53.707  0.00  0.00     0.034 C 
BRANCH  11  12
ATOM     12  C   UNL d   1     -41.691-122.387 -54.281  0.00  0.00     0.032 A 
ATOM     13  S   UNL d   1     -41.900-123.129 -54.565  0.00  0.00    -0.086 SA
ATOM     14  C   UNL d   1     -42.495-123.030 -55.136  0.00  0.00     0.035 A 
ATOM     15  C   UNL d   1     -42.650-122.223 -55.201  0.00  0.00     0.007 A 
ATOM     16  C   UNL d   1     -42.155-121.818 -54.673  0.00  0.00     0.007 A 
ENDBRANCH  11  12
ENDBRANCH   1  11
BRANCH   9  17
ATOM     17  O   UNL d   1     -42.160-123.534 -49.728  0.00  0.00    -0.319 OA
BRANCH  17  18
ATOM     18  C   UNL d   1     -41.968-123.314 -48.954  0.00  0.00     0.246 C 
BRANCH  18  19
ATOM     19  C   UNL d   1     -42.394-123.632 -48.325  0.00  0.00     0.217 C 
ATOM     20  O   UNL d   1     -43.197-123.807 -48.411  0.00  0.00    -0.645 OA
ATOM     21  O   UNL d   1     -41.994-123.788 -47.558  0.00  0.00    -0.645 OA
ENDBRANCH  18  19
ENDBRANCH  17  18
ENDBRANCH   9  17
TORSDOF 5
ENDMDL
MODEL 2
REMARK VINA RESULT:      -4.2      1.889      4.668
REMARK  5 active torsions:
REMARK  status: ('A' for Active; 'I' for Inactive)
REMARK    1  A    between atoms: C_6  and  C_1 
REMARK    2  A    between atoms: C_7  and  C_6 
REMARK    3  A    between atoms: C_11  and  C_19 
REMARK    4  A    between atoms: O_18  and  C_17 
REMARK    5  A    between atoms: C_19  and  O_18 
ROOT
ATOM      1  C   UNL d   1     -41.405-123.031 -50.556  0.00  0.00     0.139 A 
ATOM      2  C   UNL d   1     -41.307-122.154 -51.566  0.00  0.00     0.064 A 
ATOM      3  C   UNL d   1     -41.270-122.236 -50.749  0.00  0.00     0.220 A 
ATOM      4  C   UNL d   1     -41.466-122.897 -51.888  0.00  0.00     0.105 A 
ATOM      5  O   UNL d   1     -41.527-123.441 -51.260  0.00  0.00    -0.304 OA
ATOM      6  C   UNL d   1     -41.536-122.992 -52.703  0.00  0.00     0.049 A 
ATOM      7  C   UNL d   1     -41.217-121.503 -52.058  0.00  0.00     0.007 A 
ATOM      8  O   UNL d   1     -41.123-121.632 -50.208  0.00  0.00    -0.284 OA
ATOM      9  C   UNL d   1     -41.444-122.333 -53.192  0.00  0.00     0.097 A 
ATOM     10  C   UNL d   1     -41.286-121.593 -52.872  0.00  0.00     0.025 A 
ENDROOT
BRANCH   1  11
ATOM     11  C   UNL d   1     -41.417-123.357 -49.796  0.00  0.00     0.034 C 
BRANCH  11  12
ATOM     12  C   UNL d   1     -42.132-123.471 -49.405  0.00  0.00     0.032 A 
ATOM     13  S   UNL d   1     -42.298-123.273 -48.625  0.00  0.00    -0.086 SA
ATOM     14  C   UNL d   1     -43.084-123.487 -48.464  0.00  0.00     0.035 A 
ATOM     15  C   UNL d   1     -43.401-123.817 -49.151  0.00  0.00     0.007 A 
ATOM     16  C   UNL d   1     -42.816-123.810 -49.738  0.00  0.00     0.007 A 
ENDBRANCH  11  12
ENDBRANCH   1  11
BRANCH   9  17
ATOM     17  O   UNL d   1     -41.515-122.431 -54.009  0.00  0.00    -0.319 OA
BRANCH  17  18
ATOM     18  C   UNL d   1     -42.008-121.921 -54.436  0.00  0.00     0.246 C 
BRANCH  18  19
ATOM     19  C   UNL d   1     -42.130-122.055 -55.239  0.00  0.00     0.217 C 
ATOM     20  O   UNL d   1     -41.505-122.299 -55.722  0.00  0.00    -0.645 OA
ATOM     21  O   UNL d   1     -42.930-121.940 -55.586  0.00  0.00    -0.645 OA
ENDBRANCH  18  19
ENDBRANCH  17  18
ENDBRANCH   9  17
TORSDOF 5
ENDMDL
MODEL 3
REMARK VINA RESULT:      -4.2      1.941      4.783
REMARK  5 active torsions:
REMARK  status: ('A' for Active; 'I' for Inactive)
REMARK    1  A    between atoms: C_6  and  C_1 
REMARK    2  A    between atoms: C_7  and  C_6 
REMARK    3  A    between atoms: C_11  and  C_19 
REMARK    4  A    between atoms: O_18  and  C_17 
REMARK    5  A    between atoms: C_19  and  O_18 
ROOT
ATOM      1  C   UNL d   1     -41.482-122.395 -50.940  0.00  0.00     0.139 A 
ATOM      2  C   UNL d   1     -41.331-122.927 -52.163  0.00  0.00     0.064 A 
ATOM      3  C   UNL d   1     -41.302-123.089 -51.357  0.00  0.00     0.220 A 
ATOM      4  C   UNL d   1     -41.530-122.130 -52.254  0.00  0.00     0.105 A 
ATOM      5  O   UNL d   1     -41.623-121.801 -51.494  0.00  0.00    -0.304 OA
ATOM      6  C   UNL d   1     -41.601-121.803 -53.005  0.00  0.00     0.049 A 
ATOM      7  C   UNL d   1     -41.203-123.397 -52.823  0.00  0.00     0.007 A 
ATOM      8  O   UNL d   1     -41.124-123.817 -51.016  0.00  0.00    -0.284 OA
ATOM      9  C   UNL d   1     -41.471-122.281 -53.665  0.00  0.00     0.097 A 
ATOM     10  C   UNL d   1     -41.273-123.074 -53.575  0.00  0.00     0.025 A 
ENDROOT
BRANCH   1  11
ATOM     11  C   UNL d   1     -41.516-122.309 -50.118  0.00  0.00     0.034 C 
BRANCH  11  12
ATOM     12  C   UNL d   1     -42.200-122.510 -49.708  0.00  0.00     0.032 A 
ATOM     13  S   UNL d   1     -42.248-123.003 -49.052  0.00  0.00    -0.086 SA
ATOM     14  C   UNL d   1     -43.044-123.049 -48.820  0.00  0.00     0.035 A 
ATOM     15  C   UNL d   1     -43.485-122.581 -49.337  0.00  0.00     0.007 A 
ATOM     16  C   UNL d   1     -42.968-122.244 -49.890  0.00  0.00     0.007 A 
ENDBRANCH  11  12
ENDBRANCH   1  11
BRANCH   9  17
ATOM     17  O   UNL d   1     -41.544-121.950 -54.418  0.00  0.00    -0.319 OA
BRANCH  17  18
ATOM     18  C   UNL d   1     -42.153-122.205 -54.915  0.00  0.00     0.246 C 
BRANCH  18  19
ATOM     19  C   UNL d   1     -42.242-121.860 -55.657  0.00  0.00     0.217 C 
ATOM     20  O   UNL d   1     -42.942-121.963 -56.085  0.00  0.00    -0.645 OA
ATOM     21  O   UNL d   1     -41.591-121.378 -55.998  0.00  0.00    -0.645 OA
ENDBRANCH  18  19
ENDBRANCH  17  18
ENDBRANCH   9  17
TORSDOF 5
ENDMDL
