MODEL 1
REMARK VINA RESULT:      -6.2      0.000      0.000
REMARK  5 active torsions:
REMARK  status: ('A' for Active; 'I' for Inactive)
REMARK    1  A    between atoms: C_7  and  N_1 
REMARK    2  A    between atoms: C_14  and  N_5 
REMARK    3  A    between atoms: C_8  and  C_7 
REMARK    4  A    between atoms: C_16  and  C_14 
REMARK    5  A    between atoms: O_15  and  C_16 
ROOT
ATOM      1  N   UNL d   1     -48.723  12.895  23.114  0.00  0.00    -0.273 N 
ATOM      2  C   UNL d   1     -48.793  12.127  23.443  0.00  0.00     0.153 A 
ATOM      3  S   UNL d   1     -48.126  11.730  23.696  0.00  0.00    -0.039 SA
ATOM      4  C   UNL d   1     -47.987  13.251  23.045  0.00  0.00     0.168 A 
ATOM      5  N   UNL d   1     -47.311  12.846  23.303  0.00  0.00    -0.280 N 
ATOM      6  C   UNL d   1     -47.382  12.078  23.631  0.00  0.00     0.120 A 
ATOM      7  S   UNL d   1     -49.547  11.772  23.509  0.00  0.00    -0.052 SA
ENDROOT
BRANCH   1   8
ATOM      8  C   UNL d   1     -49.407  13.289  22.861  0.00  0.00     0.107 C 
BRANCH   8   9
ATOM      9  C   UNL d   1     -49.463  14.113  22.901  0.00  0.00     0.118 A 
ATOM     10  O   UNL d   1     -49.582  14.557  23.590  0.00  0.00    -0.304 OA
ATOM     11  C   UNL d   1     -49.601  15.353  23.370  0.00  0.00     0.123 A 
ATOM     12  C   UNL d   1     -49.495  15.400  22.564  0.00  0.00     0.029 A 
ATOM     13  C   UNL d   1     -49.409  14.634  22.271  0.00  0.00     0.028 A 
ENDBRANCH   8   9
ENDBRANCH   1   8
BRANCH   5  14
ATOM     14  C   UNL d   1     -46.568  13.190  23.240  0.00  0.00     0.108 C 
BRANCH  14  15
ATOM     15  C   UNL d   1     -46.060  12.962  22.630  0.00  0.00     0.135 C 
BRANCH  15  16
ATOM     16  O   UNL d   1     -45.350  13.364  22.520  0.00  0.00    -0.325 OA
ATOM     17  C   UNL d   1     -44.834  13.121  21.933  0.00  0.00     0.182 C 
ENDBRANCH  15  16
ENDBRANCH  14  15
ENDBRANCH   5  14
TORSDOF 5
ENDMDL
MODEL 2
REMARK VINA RESULT:      -5.8      1.760      3.351
REMARK  5 active torsions:
REMARK  status: ('A' for Active; 'I' for Inactive)
REMARK    1  A    between atoms: C_7  and  N_1 
REMARK    2  A    between atoms: C_14  and  N_5 
REMARK    3  A    between atoms: C_8  and  C_7 
REMARK    4  A    between atoms: C_16  and  C_14 
REMARK    5  A    between atoms: O_15  and  C_16 
ROOT
ATOM      1  N   UNL d   1     -47.733  13.281  22.661  0.00  0.00    -0.273 N 
ATOM      2  C   UNL d   1     -46.943  13.540  22.764  0.00  0.00     0.153 A 
ATOM      3  S   UNL d   1     -46.773  14.338  22.770  0.00  0.00    -0.039 SA
ATOM      4  C   UNL d   1     -48.339  13.827  22.567  0.00  0.00     0.168 A 
ATOM      5  N   UNL d   1     -48.164  14.637  22.573  0.00  0.00    -0.280 N 
ATOM      6  C   UNL d   1     -47.374  14.895  22.675  0.00  0.00     0.120 A 
ATOM      7  S   UNL d   1     -46.332  12.978  22.860  0.00  0.00    -0.052 SA
ENDROOT
BRANCH   1   8
ATOM      8  C   UNL d   1     -47.893  12.468  22.657  0.00  0.00     0.107 C 
BRANCH   8   9
ATOM      9  C   UNL d   1     -48.624  12.177  22.915  0.00  0.00     0.118 A 
ATOM     10  O   UNL d   1     -49.301  12.089  22.446  0.00  0.00    -0.304 OA
ATOM     11  C   UNL d   1     -49.896  11.782  22.929  0.00  0.00     0.123 A 
ATOM     12  C   UNL d   1     -49.594  11.683  23.679  0.00  0.00     0.029 A 
ATOM     13  C   UNL d   1     -48.807  11.927  23.673  0.00  0.00     0.028 A 
ENDBRANCH   8   9
ENDBRANCH   1   8
BRANCH   5  14
ATOM     14  C   UNL d   1     -48.760  15.194  22.479  0.00  0.00     0.108 C 
BRANCH  14  15
ATOM     15  C   UNL d   1     -49.241  15.393  23.120  0.00  0.00     0.135 C 
BRANCH  15  16
ATOM     16  O   UNL d   1     -49.895  15.880  23.003  0.00  0.00    -0.325 OA
ATOM     17  C   UNL d   1     -50.517  15.857  23.534  0.00  0.00     0.182 C 
ENDBRANCH  15  16
ENDBRANCH  14  15
ENDBRANCH   5  14
TORSDOF 5
ENDMDL
MODEL 3
REMARK VINA RESULT:      -5.8      1.622      2.296
REMARK  5 active torsions:
REMARK  status: ('A' for Active; 'I' for Inactive)
REMARK    1  A    between atoms: C_7  and  N_1 
REMARK    2  A    between atoms: C_14  and  N_5 
REMARK    3  A    between atoms: C_8  and  C_7 
REMARK    4  A    between atoms: C_16  and  C_14 
REMARK    5  A    between atoms: O_15  and  C_16 
ROOT
ATOM      1  N   UNL d   1     -48.800  14.097  23.038  0.00  0.00    -0.273 N 
ATOM      2  C   UNL d   1     -48.783  14.865  22.702  0.00  0.00     0.153 A 
ATOM      3  S   UNL d   1     -48.069  15.204  22.498  0.00  0.00    -0.039 SA
ATOM      4  C   UNL d   1     -48.103  13.683  23.163  0.00  0.00     0.168 A 
ATOM      5  N   UNL d   1     -47.380  14.029  22.955  0.00  0.00    -0.280 N 
ATOM      6  C   UNL d   1     -47.362  14.797  22.620  0.00  0.00     0.120 A 
ATOM      7  S   UNL d   1     -49.498  15.280  22.578  0.00  0.00    -0.052 SA
ENDROOT
BRANCH   1   8
ATOM      8  C   UNL d   1     -49.532  13.764  23.241  0.00  0.00     0.107 C 
BRANCH   8   9
ATOM      9  C   UNL d   1     -49.680  12.959  23.119  0.00  0.00     0.118 A 
ATOM     10  O   UNL d   1     -49.798  12.596  22.383  0.00  0.00    -0.304 OA
ATOM     11  C   UNL d   1     -49.927  11.792  22.525  0.00  0.00     0.123 A 
ATOM     12  C   UNL d   1     -49.889  11.661  23.328  0.00  0.00     0.029 A 
ATOM     13  C   UNL d   1     -49.736  12.382  23.698  0.00  0.00     0.028 A 
ENDBRANCH   8   9
ENDBRANCH   1   8
BRANCH   5  14
ATOM     14  C   UNL d   1     -46.674  13.627  23.075  0.00  0.00     0.108 C 
BRANCH  14  15
ATOM     15  C   UNL d   1     -46.188  13.448  22.431  0.00  0.00     0.135 C 
BRANCH  15  16
ATOM     16  O   UNL d   1     -45.497  13.017  22.551  0.00  0.00    -0.325 OA
ATOM     17  C   UNL d   1     -44.956  12.943  21.941  0.00  0.00     0.182 C 
ENDBRANCH  15  16
ENDBRANCH  14  15
ENDBRANCH   5  14
TORSDOF 5
ENDMDL
MODEL 4
REMARK VINA RESULT:      -5.6      0.765      3.310
REMARK  5 active torsions:
REMARK  status: ('A' for Active; 'I' for Inactive)
REMARK    1  A    between atoms: C_7  and  N_1 
REMARK    2  A    between atoms: C_14  and  N_5 
REMARK    3  A    between atoms: C_8  and  C_7 
REMARK    4  A    between atoms: C_16  and  C_14 
REMARK    5  A    between atoms: O_15  and  C_16 
ROOT
ATOM      1  N   UNL d   1     -48.062  12.796  23.416  0.00  0.00    -0.273 N 
ATOM      2  C   UNL d   1     -48.560  12.124  23.462  0.00  0.00     0.153 A 
ATOM      3  S   UNL d   1     -49.359  12.198  23.309  0.00  0.00    -0.039 SA
ATOM      4  C   UNL d   1     -48.372  13.530  23.219  0.00  0.00     0.168 A 
ATOM      5  N   UNL d   1     -49.183  13.602  23.064  0.00  0.00    -0.280 N 
ATOM      6  C   UNL d   1     -49.681  12.930  23.110  0.00  0.00     0.120 A 
ATOM      7  S   UNL d   1     -48.237  11.380  23.663  0.00  0.00    -0.052 SA
ENDROOT
BRANCH   1   8
ATOM      8  C   UNL d   1     -47.253  12.708  23.573  0.00  0.00     0.107 C 
BRANCH   8   9
ATOM      9  C   UNL d   1     -46.688  13.137  23.146  0.00  0.00     0.118 A 
ATOM     10  O   UNL d   1     -46.367  13.867  23.370  0.00  0.00    -0.304 OA
ATOM     11  C   UNL d   1     -45.828  14.088  22.783  0.00  0.00     0.123 A 
ATOM     12  C   UNL d   1     -45.818  13.508  22.211  0.00  0.00     0.029 A 
ATOM     13  C   UNL d   1     -46.349  12.918  22.434  0.00  0.00     0.028 A 
ENDBRANCH   8   9
ENDBRANCH   1   8
BRANCH   5  14
ATOM     14  C   UNL d   1     -49.507  14.330  22.866  0.00  0.00     0.108 C 
BRANCH  14  15
ATOM     15  C   UNL d   1     -49.765  14.842  23.461  0.00  0.00     0.135 C 
BRANCH  15  16
ATOM     16  O   UNL d   1     -50.048  15.589  23.261  0.00  0.00    -0.325 OA
ATOM     17  C   UNL d   1     -50.654  15.922  23.698  0.00  0.00     0.182 C 
ENDBRANCH  15  16
ENDBRANCH  14  15
ENDBRANCH   5  14
TORSDOF 5
ENDMDL
MODEL 5
REMARK VINA RESULT:      -5.4      1.564      2.614
REMARK  5 active torsions:
REMARK  status: ('A' for Active; 'I' for Inactive)
REMARK    1  A    between atoms: C_7  and  N_1 
REMARK    2  A    between atoms: C_14  and  N_5 
REMARK    3  A    between atoms: C_8  and  C_7 
REMARK    4  A    between atoms: C_16  and  C_14 
REMARK    5  A    between atoms: O_15  and  C_16 
ROOT
ATOM      1  N   UNL d   1     -47.582  13.777  22.904  0.00  0.00    -0.273 N 
ATOM      2  C   UNL d   1     -46.793  13.495  22.875  0.00  0.00     0.153 A 
ATOM      3  S   UNL d   1     -46.624  12.735  23.119  0.00  0.00    -0.039 SA
ATOM      4  C   UNL d   1     -48.186  13.292  23.175  0.00  0.00     0.168 A 
ATOM      5  N   UNL d   1     -48.012  12.521  23.423  0.00  0.00    -0.280 N 
ATOM      6  C   UNL d   1     -47.223  12.240  23.394  0.00  0.00     0.120 A 
ATOM      7  S   UNL d   1     -46.184  13.995  22.597  0.00  0.00    -0.052 SA
ENDROOT
BRANCH   1   8
ATOM      8  C   UNL d   1     -47.742  14.551  22.653  0.00  0.00     0.107 C 
BRANCH   8   9
ATOM      9  C   UNL d   1     -48.504  14.868  22.712  0.00  0.00     0.118 A 
ATOM     10  O   UNL d   1     -48.849  15.171  23.402  0.00  0.00    -0.304 OA
ATOM     11  C   UNL d   1     -49.610  15.426  23.205  0.00  0.00     0.123 A 
ATOM     12  C   UNL d   1     -49.732  15.283  22.412  0.00  0.00     0.029 A 
ATOM     13  C   UNL d   1     -49.050  14.938  22.105  0.00  0.00     0.028 A 
ENDBRANCH   8   9
ENDBRANCH   1   8
BRANCH   5  14
ATOM     14  C   UNL d   1     -48.606  12.025  23.697  0.00  0.00     0.108 C 
BRANCH  14  15
ATOM     15  C   UNL d   1     -49.143  11.693  23.164  0.00  0.00     0.135 C 
BRANCH  15  16
ATOM     16  O   UNL d   1     -49.765  11.233  23.447  0.00  0.00    -0.325 OA
ATOM     17  C   UNL d   1     -50.488  11.583  23.601  0.00  0.00     0.182 C 
ENDBRANCH  15  16
ENDBRANCH  14  15
ENDBRANCH   5  14
TORSDOF 5
ENDMDL
MODEL 6
REMARK VINA RESULT:      -4.5      8.659      9.795
REMARK  5 active torsions:
REMARK  status: ('A' for Active; 'I' for Inactive)
REMARK    1  A    between atoms: C_7  and  N_1 
REMARK    2  A    between atoms: C_14  and  N_5 
REMARK    3  A    between atoms: C_8  and  C_7 
REMARK    4  A    between atoms: C_16  and  C_14 
REMARK    5  A    between atoms: O_15  and  C_16 
ROOT
ATOM      1  N   UNL d   1     -39.389  15.575  19.041  0.00  0.00    -0.273 N 
ATOM      2  C   UNL d   1     -38.649  15.608  18.651  0.00  0.00     0.153 A 
ATOM      3  S   UNL d   1     -38.604  15.456  17.849  0.00  0.00    -0.039 SA
ATOM      4  C   UNL d   1     -40.071  15.391  18.623  0.00  0.00     0.168 A 
ATOM      5  N   UNL d   1     -40.023  15.237  17.810  0.00  0.00    -0.280 N 
ATOM      6  C   UNL d   1     -39.283  15.270  17.420  0.00  0.00     0.120 A 
ATOM      7  S   UNL d   1     -37.959  15.796  19.083  0.00  0.00    -0.052 SA
ENDROOT
BRANCH   1   8
ATOM      8  C   UNL d   1     -39.422  15.731  19.855  0.00  0.00     0.107 C 
BRANCH   8   9
ATOM      9  C   UNL d   1     -40.058  15.466  20.313  0.00  0.00     0.118 A 
ATOM     10  O   UNL d   1     -40.176  14.688  20.571  0.00  0.00    -0.304 OA
ATOM     11  C   UNL d   1     -40.877  14.677  21.009  0.00  0.00     0.123 A 
ATOM     12  C   UNL d   1     -41.185  15.432  21.021  0.00  0.00     0.029 A 
ATOM     13  C   UNL d   1     -40.680  15.922  20.591  0.00  0.00     0.028 A 
ENDBRANCH   8   9
ENDBRANCH   1   8
BRANCH   5  14
ATOM     14  C   UNL d   1     -40.697  15.052  17.379  0.00  0.00     0.108 C 
BRANCH  14  15
ATOM     15  C   UNL d   1     -41.033  15.615  16.877  0.00  0.00     0.135 C 
BRANCH  15  16
ATOM     16  O   UNL d   1     -41.827  15.553  16.668  0.00  0.00    -0.325 OA
ATOM     17  C   UNL d   1     -42.096  15.922  15.989  0.00  0.00     0.182 C 
ENDBRANCH  15  16
ENDBRANCH  14  15
ENDBRANCH   5  14
TORSDOF 5
ENDMDL
MODEL 7
REMARK VINA RESULT:      -4.4      1.792      3.716
REMARK  5 active torsions:
REMARK  status: ('A' for Active; 'I' for Inactive)
REMARK    1  A    between atoms: C_7  and  N_1 
REMARK    2  A    between atoms: C_14  and  N_5 
REMARK    3  A    between atoms: C_8  and  C_7 
REMARK    4  A    between atoms: C_16  and  C_14 
REMARK    5  A    between atoms: O_15  and  C_16 
ROOT
ATOM      1  N   UNL d   1     -48.164  14.392  22.897  0.00  0.00    -0.273 N 
ATOM      2  C   UNL d   1     -48.577  14.964  22.445  0.00  0.00     0.153 A 
ATOM      3  S   UNL d   1     -49.393  14.950  22.419  0.00  0.00    -0.039 SA
ATOM      4  C   UNL d   1     -48.575  13.817  23.314  0.00  0.00     0.168 A 
ATOM      5  N   UNL d   1     -49.403  13.805  23.286  0.00  0.00    -0.280 N 
ATOM      6  C   UNL d   1     -49.816  14.377  22.834  0.00  0.00     0.120 A 
ATOM      7  S   UNL d   1     -48.151  15.547  22.024  0.00  0.00    -0.052 SA
ENDROOT
BRANCH   1   8
ATOM      8  C   UNL d   1     -47.336  14.417  22.917  0.00  0.00     0.107 C 
BRANCH   8   9
ATOM      9  C   UNL d   1     -46.891  13.720  22.967  0.00  0.00     0.118 A 
ATOM     10  O   UNL d   1     -46.707  13.314  23.666  0.00  0.00    -0.304 OA
ATOM     11  C   UNL d   1     -46.257  12.655  23.455  0.00  0.00     0.123 A 
ATOM     12  C   UNL d   1     -46.164  12.653  22.646  0.00  0.00     0.029 A 
ATOM     13  C   UNL d   1     -46.556  13.312  22.341  0.00  0.00     0.028 A 
ENDBRANCH   8   9
ENDBRANCH   1   8
BRANCH   5  14
ATOM     14  C   UNL d   1     -49.827  13.235  23.698  0.00  0.00     0.108 C 
BRANCH  14  15
ATOM     15  C   UNL d   1     -50.274  12.677  23.285  0.00  0.00     0.135 C 
BRANCH  15  16
ATOM     16  O   UNL d   1     -50.862  12.254  23.679  0.00  0.00    -0.325 OA
ATOM     17  C   UNL d   1     -50.830  11.437  23.694  0.00  0.00     0.182 C 
ENDBRANCH  15  16
ENDBRANCH  14  15
ENDBRANCH   5  14
TORSDOF 5
ENDMDL
MODEL 8
REMARK VINA RESULT:      -4.2      8.778     10.065
REMARK  5 active torsions:
REMARK  status: ('A' for Active; 'I' for Inactive)
REMARK    1  A    between atoms: C_7  and  N_1 
REMARK    2  A    between atoms: C_14  and  N_5 
REMARK    3  A    between atoms: C_8  and  C_7 
REMARK    4  A    between atoms: C_16  and  C_14 
REMARK    5  A    between atoms: O_15  and  C_16 
ROOT
ATOM      1  N   UNL d   1     -40.130  14.690  17.955  0.00  0.00    -0.273 N 
ATOM      2  C   UNL d   1     -40.433  15.460  17.820  0.00  0.00     0.153 A 
ATOM      3  S   UNL d   1     -40.700  15.907  18.448  0.00  0.00    -0.039 SA
ATOM      4  C   UNL d   1     -40.101  14.383  18.715  0.00  0.00     0.168 A 
ATOM      5  N   UNL d   1     -40.373  14.839  19.351  0.00  0.00    -0.280 N 
ATOM      6  C   UNL d   1     -40.676  15.609  19.216  0.00  0.00     0.120 A 
ATOM      7  S   UNL d   1     -40.459  15.765  17.043  0.00  0.00    -0.052 SA
ENDROOT
BRANCH   1   8
ATOM      8  C   UNL d   1     -39.861  14.245  17.309  0.00  0.00     0.107 C 
BRANCH   8   9
ATOM      9  C   UNL d   1     -39.240  13.705  17.394  0.00  0.00     0.118 A 
ATOM     10  O   UNL d   1     -39.318  12.912  17.625  0.00  0.00    -0.304 OA
ATOM     11  C   UNL d   1     -38.560  12.584  17.636  0.00  0.00     0.123 A 
ATOM     12  C   UNL d   1     -38.026  13.160  17.417  0.00  0.00     0.029 A 
ATOM     13  C   UNL d   1     -38.445  13.854  17.267  0.00  0.00     0.028 A 
ENDBRANCH   8   9
ENDBRANCH   1   8
BRANCH   5  14
ATOM     14  C   UNL d   1     -40.349  14.545  20.117  0.00  0.00     0.108 C 
BRANCH  14  15
ATOM     15  C   UNL d   1     -39.790  14.833  20.652  0.00  0.00     0.135 C 
BRANCH  15  16
ATOM     16  O   UNL d   1     -39.693  14.461  21.380  0.00  0.00    -0.325 OA
ATOM     17  C   UNL d   1     -39.225  14.809  21.953  0.00  0.00     0.182 C 
ENDBRANCH  15  16
ENDBRANCH  14  15
ENDBRANCH   5  14
TORSDOF 5
ENDMDL
MODEL 9
REMARK VINA RESULT:      -4.0      9.564     10.144
REMARK  5 active torsions:
REMARK  status: ('A' for Active; 'I' for Inactive)
REMARK    1  A    between atoms: C_7  and  N_1 
REMARK    2  A    between atoms: C_14  and  N_5 
REMARK    3  A    between atoms: C_8  and  C_7 
REMARK    4  A    between atoms: C_16  and  C_14 
REMARK    5  A    between atoms: O_15  and  C_16 
ROOT
ATOM      1  N   UNL d   1     -39.245  14.189  18.240  0.00  0.00    -0.273 N 
ATOM      2  C   UNL d   1     -38.622  13.630  18.285  0.00  0.00     0.153 A 
ATOM      3  S   UNL d   1     -38.064  13.690  18.878  0.00  0.00    -0.039 SA
ATOM      4  C   UNL d   1     -39.298  14.796  18.790  0.00  0.00     0.168 A 
ATOM      5  N   UNL d   1     -38.731  14.854  19.391  0.00  0.00    -0.280 N 
ATOM      6  C   UNL d   1     -38.108  14.296  19.436  0.00  0.00     0.120 A 
ATOM      7  S   UNL d   1     -38.574  13.016  17.721  0.00  0.00    -0.052 SA
ENDROOT
BRANCH   1   8
ATOM      8  C   UNL d   1     -39.805  14.118  17.633  0.00  0.00     0.107 C 
BRANCH   8   9
ATOM      9  C   UNL d   1     -40.184  14.787  17.325  0.00  0.00     0.118 A 
ATOM     10  O   UNL d   1     -39.837  15.353  16.830  0.00  0.00    -0.304 OA
ATOM     11  C   UNL d   1     -40.416  15.918  16.660  0.00  0.00     0.123 A 
ATOM     12  C   UNL d   1     -41.104  15.705  17.041  0.00  0.00     0.029 A 
ATOM     13  C   UNL d   1     -40.963  15.006  17.453  0.00  0.00     0.028 A 
ENDBRANCH   8   9
ENDBRANCH   1   8
BRANCH   5  14
ATOM     14  C   UNL d   1     -38.772  15.456  19.948  0.00  0.00     0.108 C 
BRANCH  14  15
ATOM     15  C   UNL d   1     -39.093  15.305  20.694  0.00  0.00     0.135 C 
BRANCH  15  16
ATOM     16  O   UNL d   1     -39.161  15.919  21.239  0.00  0.00    -0.325 OA
ATOM     17  C   UNL d   1     -39.575  15.797  21.934  0.00  0.00     0.182 C 
ENDBRANCH  15  16
ENDBRANCH  14  15
ENDBRANCH   5  14
TORSDOF 5
ENDMDL
