MODEL 1
REMARK VINA RESULT:      48.9      0.000      0.000
REMARK  5 active torsions:
REMARK  status: ('A' for Active; 'I' for Inactive)
REMARK    1  A    between atoms: C_12  and  C_3 
REMARK    2  A    between atoms: C_13  and  N_5 
REMARK    3  A    between atoms: C_11  and  C_6 
REMARK    4  A    between atoms: O_24  and  C_12 
REMARK    5  A    between atoms: C_14  and  C_13 
ROOT
ATOM      1  C   UNL d   1      14.108  13.952  -2.479  0.00  0.00     0.080 A 
ATOM      2  C   UNL d   1      13.790  13.252  -2.803  0.00  0.00     0.267 A 
ATOM      3  C   UNL d   1      14.822  14.617  -1.442  0.00  0.00     0.106 A 
ATOM      4  C   UNL d   1      14.018  14.662  -2.882  0.00  0.00     0.108 A 
ATOM      5  N   UNL d   1      13.384  13.274  -3.529  0.00  0.00    -0.271 N 
ATOM      6  C   UNL d   1      14.510  13.930  -1.759  0.00  0.00     0.015 A 
ATOM      7  C   UNL d   1      14.733  15.336  -1.845  0.00  0.00     0.208 A 
ATOM      8  O   UNL d   1      14.331  15.359  -2.565  0.00  0.00    -0.288 OA
ATOM      9  C   UNL d   1      13.617  14.694  -3.603  0.00  0.00     0.043 A 
ATOM     10  C   UNL d   1      13.300  14.005  -3.930  0.00  0.00     0.069 A 
ATOM     11  O   UNL d   1      13.878  12.528  -2.399  0.00  0.00    -0.267 OA
ATOM     12  N   UNL d   1      15.048  16.030  -1.525  0.00  0.00    -0.121 N 
ATOM     13  C   UNL d   1      12.893  14.034  -4.659  0.00  0.00     0.019 C 
ENDROOT
BRANCH   6  14
ATOM     14  C   UNL d   1      14.596  13.214  -1.361  0.00  0.00     0.001 A 
ATOM     15  C   UNL d   1      13.981  12.931  -0.887  0.00  0.00     0.011 A 
ATOM     16  C   UNL d   1      14.063  12.216  -0.487  0.00  0.00     0.058 A 
ATOM     17 CL   UNL d   1      13.443  11.938  -0.014  0.00  0.00    -0.082 Cl
ATOM     18  C   UNL d   1      14.766  11.779  -0.562  0.00  0.00     0.011 A 
ATOM     19  C   UNL d   1      15.381  12.062  -1.034  0.00  0.00     0.001 A 
ATOM     20  C   UNL d   1      15.295  12.780  -1.434  0.00  0.00     0.000 A 
ENDBRANCH   6  14
BRANCH   3  21
ATOM     21  C   UNL d   1      15.223  14.594  -0.723  0.00  0.00     0.299 C 
ATOM     22  O   UNL d   1      14.810  14.644  -0.014  0.00  0.00    -0.259 OA
BRANCH  21  23
ATOM     23  O   UNL d   1      16.047  14.521  -0.710  0.00  0.00    -0.296 OA
ATOM     24  C   UNL d   1      16.478  14.725  -0.030  0.00  0.00     0.185 C 
ENDBRANCH  21  23
ENDBRANCH   3  21
BRANCH   5  25
ATOM     25  C   UNL d   1      13.069  12.580  -3.849  0.00  0.00     0.108 C 
BRANCH  25  26
ATOM     26  C   UNL d   1      13.263  12.356  -4.619  0.00  0.00     0.118 A 
ATOM     27  O   UNL d   1      13.929  12.599  -5.046  0.00  0.00    -0.304 OA
ATOM     28  C   UNL d   1      13.905  12.244  -5.790  0.00  0.00     0.123 A 
ATOM     29  C   UNL d   1      13.224  11.779  -5.825  0.00  0.00     0.029 A 
ATOM     30  C   UNL d   1      12.823  11.846  -5.101  0.00  0.00     0.028 A 
ENDBRANCH  25  26
ENDBRANCH   5  25
TORSDOF 5
ENDMDL
