MODEL 1
REMARK VINA RESULT:      26.8      0.000      0.000
REMARK  3 active torsions:
REMARK  status: ('A' for Active; 'I' for Inactive)
REMARK    1  A    between atoms: S_6  and  C_1 
REMARK    2  A    between atoms: C_8  and  S_6 
REMARK    3  A    between atoms: C_7  and  C_8 
ROOT
ATOM      1  C   UNL d   1      59.447  49.701  51.599  0.00  0.00     0.194 A 
ATOM      2  N   UNL d   1      59.751  49.688  52.369  0.00  0.00    -0.220 NA
ATOM      3  N   UNL d   1      60.094  49.706  51.064  0.00  0.00    -0.220 NA
ATOM      4  C   UNL d   1      60.580  49.685  52.315  0.00  0.00     0.101 A 
ATOM      5  C   UNL d   1      60.791  49.696  51.508  0.00  0.00     0.101 A 
ATOM      6  C   UNL d   1      61.171  49.673  52.899  0.00  0.00     0.021 A 
ATOM      7  C   UNL d   1      61.596  49.696  51.305  0.00  0.00     0.021 A 
ATOM      8  C   UNL d   1      62.177  49.685  51.887  0.00  0.00     0.002 A 
ATOM      9  C   UNL d   1      61.965  49.673  52.684  0.00  0.00     0.002 A 
ENDROOT
BRANCH   1  10
ATOM     10  S   UNL d   1      58.650  49.708  51.387  0.00  0.00    -0.048 SA
BRANCH  10  11
ATOM     11  C   UNL d   1      58.426  49.662  50.591  0.00  0.00     0.041 C 
BRANCH  11  12
ATOM     12  C   UNL d   1      57.625  49.662  50.392  0.00  0.00     0.034 A 
ATOM     13  C   UNL d   1      57.406  49.647  49.596  0.00  0.00     0.141 A 
ATOM     14  F   UNL d   1      57.988  49.633  49.014  0.00  0.00    -0.204 F 
ATOM     15  C   UNL d   1      56.607  49.648  49.389  0.00  0.00     0.030 A 
ATOM     16  C   UNL d   1      56.035  49.663  49.981  0.00  0.00     0.002 A 
ATOM     17  C   UNL d   1      56.251  49.677  50.776  0.00  0.00     0.000 A 
ATOM     18  C   UNL d   1      57.052  49.677  50.976  0.00  0.00     0.003 A 
ENDBRANCH  11  12
ENDBRANCH  10  11
ENDBRANCH   1  10
TORSDOF 3
ENDMDL
MODEL 2
REMARK VINA RESULT:      27.8      1.297      4.396
REMARK  3 active torsions:
REMARK  status: ('A' for Active; 'I' for Inactive)
REMARK    1  A    between atoms: S_6  and  C_1 
REMARK    2  A    between atoms: C_8  and  S_6 
REMARK    3  A    between atoms: C_7  and  C_8 
ROOT
ATOM      1  C   UNL d   1      58.743  49.690  50.318  0.00  0.00     0.194 A 
ATOM      2  N   UNL d   1      58.482  49.693  49.533  0.00  0.00    -0.220 NA
ATOM      3  N   UNL d   1      58.069  49.666  50.817  0.00  0.00    -0.220 NA
ATOM      4  C   UNL d   1      57.652  49.671  49.541  0.00  0.00     0.101 A 
ATOM      5  C   UNL d   1      57.397  49.655  50.335  0.00  0.00     0.101 A 
ATOM      6  C   UNL d   1      57.094  49.665  48.926  0.00  0.00     0.021 A 
ATOM      7  C   UNL d   1      56.583  49.631  50.495  0.00  0.00     0.021 A 
ATOM      8  C   UNL d   1      56.034  49.625  49.881  0.00  0.00     0.002 A 
ATOM      9  C   UNL d   1      56.290  49.641  49.097  0.00  0.00     0.002 A 
ENDROOT
BRANCH   1  10
ATOM     10  S   UNL d   1      59.528  49.707  50.574  0.00  0.00    -0.048 SA
BRANCH  10  11
ATOM     11  C   UNL d   1      59.853  49.062  50.978  0.00  0.00     0.041 C 
BRANCH  11  12
ATOM     12  C   UNL d   1      60.460  49.185  51.523  0.00  0.00     0.034 A 
ATOM     13  C   UNL d   1      61.218  48.902  51.357  0.00  0.00     0.141 A 
ATOM     14  F   UNL d   1      61.357  48.502  50.651  0.00  0.00    -0.204 F 
ATOM     15  C   UNL d   1      61.830  49.021  51.898  0.00  0.00     0.030 A 
ATOM     16  C   UNL d   1      61.676  49.423  52.600  0.00  0.00     0.002 A 
ATOM     17  C   UNL d   1      60.921  49.707  52.769  0.00  0.00     0.000 A 
ATOM     18  C   UNL d   1      60.314  49.584  52.223  0.00  0.00     0.003 A 
ENDBRANCH  11  12
ENDBRANCH  10  11
ENDBRANCH   1  10
TORSDOF 3
ENDMDL
