MODEL 1
REMARK VINA RESULT:      41.5      0.000      0.000
REMARK  9 active torsions:
REMARK  status: ('A' for Active; 'I' for Inactive)
REMARK    1  A    between atoms: C_10  and  S_1 
REMARK    2  A    between atoms: N_11  and  S_1 
REMARK    3  A    between atoms: C_8  and  C_2 
REMARK    4  A    between atoms: C_3  and  N_6 
REMARK       I    between atoms: N_6  and  C_9 
REMARK    5  A    between atoms: C_9  and  C_14 
REMARK    6  A    between atoms: C_23  and  N_11 
REMARK    7  A    between atoms: C_24  and  N_11 
REMARK    8  A    between atoms: C_26  and  C_24 
REMARK    9  A    between atoms: C_27  and  C_26 
ROOT
ATOM      1  C   UNL d   1      13.984  12.425  -2.249  0.00  0.00     0.104 A 
ATOM      2  C   UNL d   1      13.310  12.471  -3.764  0.00  0.00     0.058 A 
ATOM      3  C   UNL d   1      14.171  13.033  -2.775  0.00  0.00     0.013 A 
ATOM      4  C   UNL d   1      13.463  11.848  -2.485  0.00  0.00     0.013 A 
ATOM      5  C   UNL d   1      13.830  13.050  -3.531  0.00  0.00     0.005 A 
ATOM      6  C   UNL d   1      13.123  11.865  -3.237  0.00  0.00     0.005 A 
ENDROOT
BRANCH   2   7
ATOM      7  C   UNL d   1      12.968  12.492  -4.527  0.00  0.00     0.282 C 
ATOM      8  N   UNL d   1      12.814  13.217  -4.896  0.00  0.00    -0.165 NA
ATOM      9  O   UNL d   1      12.786  11.798  -4.907  0.00  0.00    -0.265 OA
BRANCH   8  10
ATOM     10  C   UNL d   1      12.996  13.910  -4.518  0.00  0.00     0.297 A 
ATOM     11  O   UNL d   1      13.492  14.462  -4.880  0.00  0.00    -0.253 OA
ATOM     12  C   UNL d   1      13.573  15.099  -4.370  0.00  0.00     0.207 A 
ATOM     13  N   UNL d   1      13.129  14.938  -3.701  0.00  0.00    -0.119 NA
ATOM     14  N   UNL d   1      12.769  14.203  -3.787  0.00  0.00    -0.101 NA
BRANCH  12  15
ATOM     15  C   UNL d   1      14.036  15.755  -4.563  0.00  0.00     0.054 A 
ATOM     16  C   UNL d   1      14.534  16.078  -3.992  0.00  0.00     0.061 A 
ATOM     17 CL   UNL d   1      14.567  15.749  -3.237  0.00  0.00    -0.082 Cl
ATOM     18  C   UNL d   1      14.996  16.731  -4.182  0.00  0.00     0.011 A 
ATOM     19  C   UNL d   1      14.973  17.073  -4.943  0.00  0.00     0.001 A 
ATOM     20  C   UNL d   1      14.481  16.755  -5.510  0.00  0.00     0.000 A 
ATOM     21  C   UNL d   1      14.011  16.093  -5.318  0.00  0.00     0.004 A 
ENDBRANCH  12  15
ENDBRANCH   8  10
ENDBRANCH   2   7
BRANCH   1  22
ATOM     22  S   UNL d   1      14.322  12.399  -1.485  0.00  0.00     0.271 S 
ATOM     23  O   UNL d   1      13.593  12.175  -1.160  0.00  0.00    -0.200 OA
ATOM     24  O   UNL d   1      15.047  12.622  -1.811  0.00  0.00    -0.200 OA
BRANCH  22  25
ATOM     25  N   UNL d   1      14.664  12.372  -0.710  0.00  0.00    -0.229 N 
BRANCH  25  26
ATOM     26  C   UNL d   1      15.227  11.802  -0.514  0.00  0.00     0.092 C 
ATOM     27  C   UNL d   1      16.021  12.013  -0.432  0.00  0.00     0.021 C 
ENDBRANCH  25  26
BRANCH  25  28
ATOM     28  C   UNL d   1      14.427  12.925  -0.149  0.00  0.00     0.092 C 
BRANCH  28  29
ATOM     29  C   UNL d   1      14.894  13.591  -0.016  0.00  0.00     0.020 C 
BRANCH  29  30
ATOM     30  C   UNL d   1      14.560  14.339  -0.089  0.00  0.00     0.002 C 
ATOM     31  C   UNL d   1      15.048  14.995  -0.194  0.00  0.00     0.000 C 
ENDBRANCH  29  30
ENDBRANCH  28  29
ENDBRANCH  25  28
ENDBRANCH  22  25
ENDBRANCH   1  22
TORSDOF 9
ENDMDL
MODEL 2
REMARK VINA RESULT:      42.9      1.731      4.538
REMARK  9 active torsions:
REMARK  status: ('A' for Active; 'I' for Inactive)
REMARK    1  A    between atoms: C_10  and  S_1 
REMARK    2  A    between atoms: N_11  and  S_1 
REMARK    3  A    between atoms: C_8  and  C_2 
REMARK    4  A    between atoms: C_3  and  N_6 
REMARK       I    between atoms: N_6  and  C_9 
REMARK    5  A    between atoms: C_9  and  C_14 
REMARK    6  A    between atoms: C_23  and  N_11 
REMARK    7  A    between atoms: C_24  and  N_11 
REMARK    8  A    between atoms: C_26  and  C_24 
REMARK    9  A    between atoms: C_27  and  C_26 
ROOT
ATOM      1  C   UNL d   1      13.811  14.610  -4.499  0.00  0.00     0.104 A 
ATOM      2  C   UNL d   1      13.313  13.030  -4.587  0.00  0.00     0.058 A 
ATOM      3  C   UNL d   1      13.033  14.402  -4.315  0.00  0.00     0.013 A 
ATOM      4  C   UNL d   1      14.330  14.027  -4.725  0.00  0.00     0.013 A 
ATOM      5  C   UNL d   1      12.791  13.610  -4.361  0.00  0.00     0.005 A 
ATOM      6  C   UNL d   1      14.089  13.238  -4.771  0.00  0.00     0.005 A 
ENDROOT
BRANCH   2   7
ATOM      7  C   UNL d   1      13.065  12.232  -4.632  0.00  0.00     0.282 C 
ATOM      8  N   UNL d   1      12.976  11.783  -3.941  0.00  0.00    -0.165 NA
ATOM      9  O   UNL d   1      12.912  11.897  -5.354  0.00  0.00    -0.265 OA
BRANCH   8  10
ATOM     10  C   UNL d   1      13.129  12.117  -3.219  0.00  0.00     0.297 A 
ATOM     11  O   UNL d   1      13.735  11.819  -2.745  0.00  0.00    -0.253 OA
ATOM     12  C   UNL d   1      13.757  12.264  -2.056  0.00  0.00     0.207 A 
ATOM     13  N   UNL d   1      13.168  12.830  -2.109  0.00  0.00    -0.119 NA
ATOM     14  N   UNL d   1      12.775  12.745  -2.827  0.00  0.00    -0.101 NA
BRANCH  12  15
ATOM     15  C   UNL d   1      14.305  12.111  -1.457  0.00  0.00     0.054 A 
ATOM     16  C   UNL d   1      14.033  11.937  -0.699  0.00  0.00     0.061 A 
ATOM     17 CL   UNL d   1      13.224  11.915  -0.543  0.00  0.00    -0.082 Cl
ATOM     18  C   UNL d   1      14.576  11.784  -0.101  0.00  0.00     0.011 A 
ATOM     19  C   UNL d   1      15.398  11.803  -0.245  0.00  0.00     0.001 A 
ATOM     20  C   UNL d   1      15.669  11.976  -0.995  0.00  0.00     0.000 A 
ATOM     21  C   UNL d   1      15.119  12.131  -1.603  0.00  0.00     0.004 A 
ENDBRANCH  12  15
ENDBRANCH   8  10
ENDBRANCH   2   7
BRANCH   1  22
ATOM     22  S   UNL d   1      14.065  15.404  -4.457  0.00  0.00     0.271 S 
ATOM     23  O   UNL d   1      13.833  15.447  -3.662  0.00  0.00    -0.200 OA
ATOM     24  O   UNL d   1      14.295  15.360  -5.248  0.00  0.00    -0.200 OA
BRANCH  22  25
ATOM     25  N   UNL d   1      14.323  16.210  -4.413  0.00  0.00    -0.229 N 
BRANCH  25  26
ATOM     26  C   UNL d   1      14.429  16.584  -3.686  0.00  0.00     0.092 C 
ATOM     27  C   UNL d   1      15.153  16.529  -3.292  0.00  0.00     0.021 C 
ENDBRANCH  25  26
BRANCH  25  28
ATOM     28  C   UNL d   1      14.469  16.622  -5.111  0.00  0.00     0.092 C 
BRANCH  28  29
ATOM     29  C   UNL d   1      14.021  17.291  -5.287  0.00  0.00     0.020 C 
BRANCH  29  30
ATOM     30  C   UNL d   1      14.392  17.954  -5.602  0.00  0.00     0.002 C 
ATOM     31  C   UNL d   1      14.124  18.272  -6.313  0.00  0.00     0.000 C 
ENDBRANCH  29  30
ENDBRANCH  28  29
ENDBRANCH  25  28
ENDBRANCH  22  25
ENDBRANCH   1  22
TORSDOF 9
ENDMDL
