MODEL 1
REMARK VINA RESULT:       0.6      0.000      0.000
REMARK  6 active torsions:
REMARK  status: ('A' for Active; 'I' for Inactive)
REMARK    1  A    between atoms: N_5  and  C_1 
REMARK    2  A    between atoms: N_7  and  C_2 
REMARK    3  A    between atoms: C_8  and  N_3 
REMARK    4  A    between atoms: C_18  and  C_8 
REMARK    5  A    between atoms: C_14  and  N_9 
REMARK    6  A    between atoms: C_19  and  C_14 
ROOT
ATOM      1  C   UNL d   1      56.609  -1.315  31.898  0.00  0.00     0.242 A 
ATOM      2  C   UNL d   1      56.835  -0.544  32.087  0.00  0.00     0.175 A 
ATOM      3  N   UNL d   1      56.345  -0.282  32.711  0.00  0.00    -0.274 N 
ATOM      4  N   UNL d   1      55.981  -1.535  32.402  0.00  0.00    -0.203 NA
ATOM      5  C   UNL d   1      55.828  -0.890  32.897  0.00  0.00     0.151 A 
ATOM      6  C   UNL d   1      55.248  -0.863  33.484  0.00  0.00     0.041 C 
ENDROOT
BRANCH   2   7
ATOM      7  N   UNL d   1      57.453  -0.240  31.638  0.00  0.00    -0.285 N 
ATOM      8  C   UNL d   1      58.225  -0.238  31.935  0.00  0.00     0.101 A 
ATOM      9  C   UNL d   1      58.840   0.071  31.473  0.00  0.00     0.100 A 
ATOM     10  N   UNL d   1      58.687   0.373  30.728  0.00  0.00    -0.300 N 
ATOM     11  C   UNL d   1      57.914   0.370  30.432  0.00  0.00     0.100 A 
ATOM     12  C   UNL d   1      57.304   0.067  30.883  0.00  0.00     0.101 A 
BRANCH  10  13
ATOM     13  C   UNL d   1      59.306   0.682  30.268  0.00  0.00     0.080 C 
BRANCH  13  14
ATOM     14  C   UNL d   1      59.737   0.189  29.777  0.00  0.00     0.018 A 
ATOM     15  C   UNL d   1      59.458   0.013  29.018  0.00  0.00     0.002 A 
ATOM     16  C   UNL d   1      59.887  -0.482  28.520  0.00  0.00     0.000 A 
ATOM     17  C   UNL d   1      60.605  -0.807  28.783  0.00  0.00     0.000 A 
ATOM     18  C   UNL d   1      60.884  -0.632  29.543  0.00  0.00     0.000 A 
ATOM     19  C   UNL d   1      60.443  -0.130  30.039  0.00  0.00     0.002 A 
ENDBRANCH  13  14
ENDBRANCH  10  13
ENDBRANCH   2   7
BRANCH   1  20
ATOM     20  N   UNL d   1      56.942  -1.798  31.310  0.00  0.00    -0.092 N 
ATOM     21  O   UNL d   1      57.442  -2.414  31.515  0.00  0.00    -0.530 OA
ATOM     22  O   UNL d   1      56.764  -1.651  30.516  0.00  0.00    -0.530 OA
ENDBRANCH   1  20
BRANCH   3  23
ATOM     23  C   UNL d   1      56.385   0.462  33.068  0.00  0.00     0.083 C 
BRANCH  23  24
ATOM     24  C   UNL d   1      56.404   0.535  33.889  0.00  0.00     0.018 A 
ATOM     25  C   UNL d   1      55.692   0.547  34.313  0.00  0.00     0.002 A 
ATOM     26  C   UNL d   1      55.705   0.621  35.139  0.00  0.00     0.000 A 
ATOM     27  C   UNL d   1      56.424   0.682  35.530  0.00  0.00     0.000 A 
ATOM     28  C   UNL d   1      57.130   0.670  35.111  0.00  0.00     0.000 A 
ATOM     29  C   UNL d   1      57.117   0.596  34.285  0.00  0.00     0.002 A 
ENDBRANCH  23  24
ENDBRANCH   3  23
TORSDOF 6
ENDMDL
