MODEL 1
REMARK VINA RESULT:      54.0      0.000      0.000
REMARK  6 active torsions:
REMARK  status: ('A' for Active; 'I' for Inactive)
REMARK    1  A    between atoms: C_10  and  C_3 
REMARK    2  A    between atoms: N_12  and  C_4 
REMARK    3  A    between atoms: N_11  and  C_14 
REMARK    4  A    between atoms: C_19  and  N_12 
REMARK    5  A    between atoms: C_14  and  C_15 
REMARK    6  A    between atoms: C_15  and  C_19 
ROOT
ATOM      1  C   UNL d   1      58.991  49.691  50.581  0.00  0.00     0.167 A 
ATOM      2  N   UNL d   1      59.762  49.696  50.288  0.00  0.00    -0.195 N 
ATOM      3  C   UNL d   1      58.479  49.698  49.941  0.00  0.00     0.057 A 
ATOM      4  C   UNL d   1      60.401  49.691  50.808  0.00  0.00     0.167 A 
ATOM      5  N   UNL d   1      59.719  49.707  49.469  0.00  0.00    -0.161 NA
ATOM      6  N   UNL d   1      58.859  49.679  51.395  0.00  0.00    -0.227 NA
ATOM      7  C   UNL d   1      60.266  49.680  51.626  0.00  0.00     0.058 A 
ATOM      8  C   UNL d   1      58.936  49.708  49.254  0.00  0.00     0.124 A 
ATOM      9  C   UNL d   1      59.504  49.674  51.916  0.00  0.00     0.086 A 
ATOM     10  C   UNL d   1      59.394  49.663  52.735  0.00  0.00     0.021 C 
ENDROOT
BRANCH   4  11
ATOM     11  N   UNL d   1      61.172  49.697  50.514  0.00  0.00    -0.225 NA
BRANCH  11  12
ATOM     12  C   UNL d   1      61.497  49.011  50.194  0.00  0.00     0.102 C 
BRANCH  12  13
ATOM     13  C   UNL d   1      61.326  48.269  50.534  0.00  0.00     0.040 C 
BRANCH  13  14
ATOM     14  C   UNL d   1      61.834  47.636  50.409  0.00  0.00     0.082 C 
BRANCH  14  15
ATOM     15  N   UNL d   1      61.559  46.861  50.510  0.00  0.00    -0.299 N 
ATOM     16  C   UNL d   1      61.098  46.665  51.171  0.00  0.00     0.107 A 
ATOM     17  C   UNL d   1      60.823  45.893  51.272  0.00  0.00     0.142 A 
ATOM     18  O   UNL d   1      61.009  45.314  50.712  0.00  0.00    -0.300 OA
ATOM     19  C   UNL d   1      61.467  45.506  50.055  0.00  0.00     0.142 A 
ATOM     20  C   UNL d   1      61.741  46.277  49.954  0.00  0.00     0.107 A 
ENDBRANCH  14  15
ENDBRANCH  13  14
ENDBRANCH  12  13
ENDBRANCH  11  12
ENDBRANCH   4  11
BRANCH   3  21
ATOM     21  C   UNL d   1      57.659  49.694  50.057  0.00  0.00     0.004 A 
ATOM     22  C   UNL d   1      57.156  49.699  49.414  0.00  0.00     0.000 A 
ATOM     23  C   UNL d   1      56.342  49.696  49.522  0.00  0.00     0.000 A 
ATOM     24  C   UNL d   1      56.033  49.687  50.296  0.00  0.00     0.000 A 
ATOM     25  C   UNL d   1      56.551  49.682  50.939  0.00  0.00     0.000 A 
ATOM     26  C   UNL d   1      57.355  49.685  50.820  0.00  0.00     0.000 A 
ENDBRANCH   3  21
TORSDOF 6
ENDMDL
