MODEL 1
REMARK VINA RESULT:      19.2      0.000      0.000
REMARK  0 active torsions:
REMARK  status: ('A' for Active; 'I' for Inactive)
ROOT
ATOM      1  C   UNL d   1      59.185  49.704  50.774  0.00  0.00     0.062 A 
ATOM      2  C   UNL d   1      59.464  49.706  49.995  0.00  0.00     0.116 A 
ATOM      3  C   UNL d   1      59.739  49.702  51.410  0.00  0.00     0.192 A 
ATOM      4  N   UNL d   1      60.555  49.702  51.233  0.00  0.00    -0.171 N 
ATOM      5  N   UNL d   1      60.276  49.706  49.843  0.00  0.00    -0.217 NA
ATOM      6  S   UNL d   1      58.778  49.708  49.530  0.00  0.00    -0.068 SA
ATOM      7  C   UNL d   1      58.376  49.705  50.788  0.00  0.00     0.011 A 
ATOM      8  N   UNL d   1      60.430  49.699  52.541  0.00  0.00    -0.022 NA
ATOM      9  N   UNL d   1      60.993  49.700  51.956  0.00  0.00    -0.037 NA
ATOM     10  N   UNL d   1      59.657  49.700  52.213  0.00  0.00    -0.108 NA
ATOM     11  C   UNL d   1      58.129  49.707  49.994  0.00  0.00     0.031 A 
ATOM     12  C   UNL d   1      60.810  49.704  50.449  0.00  0.00     0.204 A 
ATOM     13  C   UNL d   1      57.672  49.704  51.220  0.00  0.00     0.001 A 
ATOM     14  C   UNL d   1      57.320  49.708  49.953  0.00  0.00     0.006 A 
ATOM     15  C   UNL d   1      57.042  49.706  50.706  0.00  0.00     0.001 A 
ENDROOT
TORSDOF 0
ENDMDL
MODEL 2
REMARK VINA RESULT:      21.2      1.826      3.159
REMARK  0 active torsions:
REMARK  status: ('A' for Active; 'I' for Inactive)
ROOT
ATOM      1  C   UNL d   1      58.614  49.700  50.453  0.00  0.00     0.062 A 
ATOM      2  C   UNL d   1      58.438  49.702  51.261  0.00  0.00     0.116 A 
ATOM      3  C   UNL d   1      57.984  49.702  49.893  0.00  0.00     0.192 A 
ATOM      4  N   UNL d   1      57.197  49.705  50.173  0.00  0.00    -0.171 N 
ATOM      5  N   UNL d   1      57.652  49.704  51.517  0.00  0.00    -0.217 NA
ATOM      6  S   UNL d   1      59.178  49.699  51.635  0.00  0.00    -0.068 SA
ATOM      7  C   UNL d   1      59.415  49.697  50.336  0.00  0.00     0.011 A 
ATOM      8  N   UNL d   1      57.153  49.704  48.860  0.00  0.00    -0.022 NA
ATOM      9  N   UNL d   1      56.670  49.706  49.512  0.00  0.00    -0.037 NA
ATOM     10  N   UNL d   1      57.962  49.701  49.087  0.00  0.00    -0.108 NA
ATOM     11  C   UNL d   1      59.762  49.697  51.092  0.00  0.00     0.031 A 
ATOM     12  C   UNL d   1      57.045  49.706  50.983  0.00  0.00     0.204 A 
ATOM     13  C   UNL d   1      60.058  49.695  49.817  0.00  0.00     0.001 A 
ATOM     14  C   UNL d   1      60.569  49.694  51.029  0.00  0.00     0.006 A 
ATOM     15  C   UNL d   1      60.748  49.693  50.246  0.00  0.00     0.001 A 
ENDROOT
TORSDOF 0
ENDMDL
