MODEL 1
REMARK VINA RESULT:      -3.7      0.000      0.000
REMARK  6 active torsions:
REMARK  status: ('A' for Active; 'I' for Inactive)
REMARK    1  A    between atoms: C_14  and  N_1 
REMARK    2  A    between atoms: S_12  and  C_3 
REMARK    3  A    between atoms: C_5  and  N_11 
REMARK    4  A    between atoms: C_15  and  C_8 
REMARK       I    between atoms: N_11  and  C_13 
REMARK    5  A    between atoms: C_17  and  S_12 
REMARK    6  A    between atoms: C_13  and  C_17 
ROOT
ATOM      1  N   UNL d   1     -42.121-122.759 -51.239  0.00  0.00    -0.181 NA
ATOM      2  C   UNL d   1     -41.732-123.455 -50.992  0.00  0.00     0.288 C 
ATOM      3  O   UNL d   1     -41.139-123.771 -51.452  0.00  0.00    -0.265 OA
ENDROOT
BRANCH   2   4
ATOM      4  C   UNL d   1     -41.956-123.811 -50.284  0.00  0.00     0.101 C 
BRANCH   4   5
ATOM      5  S   UNL d   1     -42.184-123.337 -49.651  0.00  0.00    -0.041 SA
BRANCH   5   6
ATOM      6  C   UNL d   1     -42.882-123.503 -49.256  0.00  0.00     0.219 A 
ATOM      7  N   UNL d   1     -42.921-123.458 -48.433  0.00  0.00    -0.186 N 
ATOM      8  N   UNL d   1     -43.682-123.651 -48.199  0.00  0.00    -0.038 NA
ATOM      9  N   UNL d   1     -44.119-123.817 -48.864  0.00  0.00    -0.022 NA
ATOM     10  N   UNL d   1     -43.631-123.728 -49.529  0.00  0.00    -0.101 NA
BRANCH   7  11
ATOM     11  C   UNL d   1     -42.325-123.257 -47.905  0.00  0.00     0.087 A 
ATOM     12  C   UNL d   1     -42.059-123.816 -47.346  0.00  0.00     0.019 A 
ATOM     13  C   UNL d   1     -41.463-123.615 -46.820  0.00  0.00     0.002 A 
ATOM     14  C   UNL d   1     -41.123-122.867 -46.836  0.00  0.00     0.000 A 
ATOM     15  C   UNL d   1     -41.386-122.310 -47.392  0.00  0.00     0.002 A 
ATOM     16  C   UNL d   1     -41.988-122.504 -47.928  0.00  0.00     0.019 A 
ENDBRANCH   7  11
ENDBRANCH   5   6
ENDBRANCH   4   5
ENDBRANCH   2   4
BRANCH   1  17
ATOM     17  C   UNL d   1     -41.902-122.391 -51.954  0.00  0.00     0.216 A 
ATOM     18  N   UNL d   1     -42.090-122.639 -52.720  0.00  0.00    -0.200 NA
ATOM     19  C   UNL d   1     -41.756-122.106 -53.244  0.00  0.00     0.172 A 
ATOM     20  N   UNL d   1     -41.365-121.532 -52.813  0.00  0.00    -0.187 NA
ATOM     21  S   UNL d   1     -41.459-121.715 -52.006  0.00  0.00     0.054 SA
BRANCH  19  22
ATOM     22  C   UNL d   1     -41.758-122.067 -54.072  0.00  0.00     0.036 A 
ATOM     23  C   UNL d   1     -41.234-122.529 -54.502  0.00  0.00     0.003 A 
ATOM     24  C   UNL d   1     -41.234-122.493 -55.333  0.00  0.00     0.000 A 
ATOM     25  C   UNL d   1     -41.755-121.997 -55.720  0.00  0.00     0.000 A 
ATOM     26  C   UNL d   1     -42.287-121.529 -55.280  0.00  0.00     0.000 A 
ATOM     27  C   UNL d   1     -42.291-121.561 -54.460  0.00  0.00     0.003 A 
ENDBRANCH  19  22
ENDBRANCH   1  17
TORSDOF 6
ENDMDL
MODEL 2
REMARK VINA RESULT:      -2.6      1.128      6.004
REMARK  6 active torsions:
REMARK  status: ('A' for Active; 'I' for Inactive)
REMARK    1  A    between atoms: C_14  and  N_1 
REMARK    2  A    between atoms: S_12  and  C_3 
REMARK    3  A    between atoms: C_5  and  N_11 
REMARK    4  A    between atoms: C_15  and  C_8 
REMARK       I    between atoms: N_11  and  C_13 
REMARK    5  A    between atoms: C_17  and  S_12 
REMARK    6  A    between atoms: C_13  and  C_17 
ROOT
ATOM      1  N   UNL d   1     -42.123-122.022 -50.948  0.00  0.00    -0.181 NA
ATOM      2  C   UNL d   1     -41.580-122.168 -51.566  0.00  0.00     0.288 C 
ATOM      3  O   UNL d   1     -41.125-122.842 -51.552  0.00  0.00    -0.265 OA
ENDROOT
BRANCH   2   4
ATOM      4  C   UNL d   1     -41.515-121.624 -52.181  0.00  0.00     0.101 C 
BRANCH   4   5
ATOM      5  S   UNL d   1     -41.651-121.874 -52.953  0.00  0.00    -0.041 SA
BRANCH   5   6
ATOM      6  C   UNL d   1     -41.914-121.334 -53.510  0.00  0.00     0.219 A 
ATOM      7  N   UNL d   1     -42.032-121.563 -54.295  0.00  0.00    -0.186 N 
ATOM      8  N   UNL d   1     -42.293-120.911 -54.717  0.00  0.00    -0.038 NA
ATOM      9  N   UNL d   1     -42.339-120.278 -54.207  0.00  0.00    -0.022 NA
ATOM     10  N   UNL d   1     -42.105-120.531 -53.452  0.00  0.00    -0.101 NA
BRANCH   7  11
ATOM     11  C   UNL d   1     -41.920-122.302 -54.632  0.00  0.00     0.087 A 
ATOM     12  C   UNL d   1     -41.341-122.406 -55.222  0.00  0.00     0.019 A 
ATOM     13  C   UNL d   1     -41.229-123.146 -55.559  0.00  0.00     0.002 A 
ATOM     14  C   UNL d   1     -41.683-123.789 -55.321  0.00  0.00     0.000 A 
ATOM     15  C   UNL d   1     -42.260-123.687 -54.733  0.00  0.00     0.002 A 
ATOM     16  C   UNL d   1     -42.380-122.943 -54.387  0.00  0.00     0.019 A 
ENDBRANCH   7  11
ENDBRANCH   5   6
ENDBRANCH   4   5
ENDBRANCH   2   4
BRANCH   1  17
ATOM     17  C   UNL d   1     -42.196-122.565 -50.321  0.00  0.00     0.216 A 
ATOM     18  N   UNL d   1     -42.003-122.438 -49.527  0.00  0.00    -0.200 NA
ATOM     19  C   UNL d   1     -42.168-123.128 -49.116  0.00  0.00     0.172 A 
ATOM     20  N   UNL d   1     -42.460-123.678 -49.645  0.00  0.00    -0.187 NA
ATOM     21  S   UNL d   1     -42.475-123.321 -50.397  0.00  0.00     0.054 SA
BRANCH  19  22
ATOM     22  C   UNL d   1     -42.089-123.328 -48.316  0.00  0.00     0.036 A 
ATOM     23  C   UNL d   1     -41.367-123.595 -48.033  0.00  0.00     0.003 A 
ATOM     24  C   UNL d   1     -41.285-123.797 -47.230  0.00  0.00     0.000 A 
ATOM     25  C   UNL d   1     -41.924-123.730 -46.725  0.00  0.00     0.000 A 
ATOM     26  C   UNL d   1     -42.656-123.459 -47.017  0.00  0.00     0.000 A 
ATOM     27  C   UNL d   1     -42.743-123.258 -47.807  0.00  0.00     0.003 A 
ENDBRANCH  19  22
ENDBRANCH   1  17
TORSDOF 6
ENDMDL
