MODEL 1
REMARK VINA RESULT:       0.8      0.000      0.000
REMARK  5 active torsions:
REMARK  status: ('A' for Active; 'I' for Inactive)
REMARK    1  A    between atoms: C_6  and  C_1 
REMARK    2  A    between atoms: C_11  and  N_3 
REMARK    3  A    between atoms: C_16  and  C_11 
REMARK    4  A    between atoms: C_13  and  O_15 
REMARK    5  A    between atoms: O_15  and  C_16 
ROOT
ATOM      1  C   UNL d   1     -41.451-121.458 -52.656  0.00  0.00     0.171 A 
ATOM      2  N   UNL d   1     -41.662-121.386 -53.454  0.00  0.00    -0.225 NA
ATOM      3  N   UNL d   1     -41.388-122.267 -52.477  0.00  0.00    -0.286 N 
ATOM      4  C   UNL d   1     -41.560-122.697 -53.163  0.00  0.00     0.083 A 
ATOM      5  C   UNL d   1     -41.730-122.153 -53.768  0.00  0.00     0.099 A 
ATOM      6  C   UNL d   1     -41.587-123.515 -53.328  0.00  0.00     0.019 A 
ATOM      7  C   UNL d   1     -41.924-122.425 -54.530  0.00  0.00     0.021 A 
ATOM      8  C   UNL d   1     -41.781-123.781 -54.084  0.00  0.00     0.002 A 
ATOM      9  C   UNL d   1     -41.950-123.235 -54.687  0.00  0.00     0.002 A 
ENDROOT
BRANCH   3  10
ATOM     10  C   UNL d   1     -41.180-122.425 -51.694  0.00  0.00     0.108 C 
BRANCH  10  11
ATOM     11  C   UNL d   1     -41.710-122.821 -51.200  0.00  0.00     0.142 C 
BRANCH  11  12
ATOM     12  O   UNL d   1     -41.449-123.125 -50.478  0.00  0.00    -0.304 OA
BRANCH  12  13
ATOM     13  C   UNL d   1     -41.997-123.311 -49.890  0.00  0.00     0.100 A 
ATOM     14  C   UNL d   1     -41.802-123.169 -49.100  0.00  0.00     0.025 A 
ATOM     15  C   UNL d   1     -42.347-123.352 -48.506  0.00  0.00     0.002 A 
ATOM     16  C   UNL d   1     -42.161-123.214 -47.714  0.00  0.00     0.000 C 
ATOM     17  C   UNL d   1     -43.084-123.678 -48.710  0.00  0.00     0.000 A 
ATOM     18  C   UNL d   1     -43.269-123.817 -49.502  0.00  0.00     0.002 A 
ATOM     19  C   UNL d   1     -42.722-123.632 -50.091  0.00  0.00     0.025 A 
ENDBRANCH  12  13
ENDBRANCH  11  12
ENDBRANCH  10  11
ENDBRANCH   3  10
BRANCH   1  20
ATOM     20  C   UNL d   1     -41.325-120.833 -52.131  0.00  0.00     0.134 A 
ATOM     21  O   UNL d   1     -41.223-120.775 -51.420  0.00  0.00    -0.302 OA
ATOM     22  C   UNL d   1     -41.126-120.131 -51.118  0.00  0.00     0.123 A 
ATOM     23  C   UNL d   1     -41.131-119.532 -51.528  0.00  0.00     0.029 A 
ATOM     24  C   UNL d   1     -41.233-119.591 -52.237  0.00  0.00     0.030 A 
ENDBRANCH   1  20
TORSDOF 5
ENDMDL
MODEL 2
REMARK VINA RESULT:       1.2      0.812      2.682
REMARK  5 active torsions:
REMARK  status: ('A' for Active; 'I' for Inactive)
REMARK    1  A    between atoms: C_6  and  C_1 
REMARK    2  A    between atoms: C_11  and  N_3 
REMARK    3  A    between atoms: C_16  and  C_11 
REMARK    4  A    between atoms: C_13  and  O_15 
REMARK    5  A    between atoms: O_15  and  C_16 
ROOT
ATOM      1  C   UNL d   1     -41.259-122.028 -53.108  0.00  0.00     0.171 A 
ATOM      2  N   UNL d   1     -41.243-121.231 -53.334  0.00  0.00    -0.225 NA
ATOM      3  N   UNL d   1     -41.228-122.062 -52.277  0.00  0.00    -0.286 N 
ATOM      4  C   UNL d   1     -41.193-121.286 -51.989  0.00  0.00     0.083 A 
ATOM      5  C   UNL d   1     -41.202-120.772 -52.642  0.00  0.00     0.099 A 
ATOM      6  C   UNL d   1     -41.153-120.969 -51.218  0.00  0.00     0.019 A 
ATOM      7  C   UNL d   1     -41.172-119.949 -52.524  0.00  0.00     0.021 A 
ATOM      8  C   UNL d   1     -41.124-120.152 -51.105  0.00  0.00     0.002 A 
ATOM      9  C   UNL d   1     -41.133-119.641 -51.760  0.00  0.00     0.002 A 
ENDROOT
BRANCH   3  10
ATOM     10  C   UNL d   1     -41.239-122.827 -51.969  0.00  0.00     0.108 C 
BRANCH  10  11
ATOM     11  C   UNL d   1     -41.147-122.944 -51.157  0.00  0.00     0.142 C 
BRANCH  11  12
ATOM     12  O   UNL d   1     -41.480-123.608 -50.798  0.00  0.00    -0.304 OA
BRANCH  12  13
ATOM     13  C   UNL d   1     -41.726-123.568 -50.011  0.00  0.00     0.100 A 
ATOM     14  C   UNL d   1     -42.522-123.696 -49.831  0.00  0.00     0.025 A 
ATOM     15  C   UNL d   1     -42.775-123.657 -49.046  0.00  0.00     0.002 A 
ATOM     16  C   UNL d   1     -43.568-123.783 -48.857  0.00  0.00     0.000 C 
ATOM     17  C   UNL d   1     -42.225-123.491 -48.445  0.00  0.00     0.000 A 
ATOM     18  C   UNL d   1     -41.432-123.366 -48.633  0.00  0.00     0.002 A 
ATOM     19  C   UNL d   1     -41.185-123.405 -49.419  0.00  0.00     0.025 A 
ENDBRANCH  12  13
ENDBRANCH  11  12
ENDBRANCH  10  11
ENDBRANCH   3  10
BRANCH   1  20
ATOM     20  C   UNL d   1     -41.299-122.676 -53.618  0.00  0.00     0.134 A 
ATOM     21  O   UNL d   1     -41.160-123.380 -53.562  0.00  0.00    -0.302 OA
ATOM     22  C   UNL d   1     -41.253-123.814 -54.127  0.00  0.00     0.123 A 
ATOM     23  C   UNL d   1     -41.487-123.546 -54.759  0.00  0.00     0.029 A 
ATOM     24  C   UNL d   1     -41.625-122.843 -54.813  0.00  0.00     0.030 A 
ENDBRANCH   1  20
TORSDOF 5
ENDMDL
