MODEL 1
REMARK VINA RESULT:      -6.5      0.000      0.000
REMARK  6 active torsions:
REMARK  status: ('A' for Active; 'I' for Inactive)
REMARK    1  A    between atoms: N_4  and  C_1 
REMARK    2  A    between atoms: N_8  and  C_1 
REMARK       I    between atoms: C_2  and  N_3 
REMARK    3  A    between atoms: C_6  and  C_2 
REMARK    4  A    between atoms: N_3  and  N_4 
REMARK    5  A    between atoms: C_17  and  N_8 
REMARK    6  A    between atoms: C_11  and  C_17 
ROOT
ATOM      1  C   UNL d   1     -49.660  11.615  23.397  0.00  0.00     0.297 C 
ATOM      2  N   UNL d   1     -48.838  11.556  23.560  0.00  0.00    -0.103 NA
ATOM      3  O   UNL d   1     -50.169  11.050  23.698  0.00  0.00    -0.264 OA
ENDROOT
BRANCH   1   4
ATOM      4  C   UNL d   1     -49.952  12.248  22.931  0.00  0.00     0.059 A 
ATOM      5  C   UNL d   1     -49.953  12.173  22.118  0.00  0.00     0.005 A 
ATOM      6  C   UNL d   1     -50.238  12.790  21.650  0.00  0.00     0.007 A 
ATOM      7  C   UNL d   1     -50.518  13.475  22.002  0.00  0.00     0.035 A 
ATOM      8  C   UNL d   1     -50.520  13.558  22.831  0.00  0.00     0.007 A 
ATOM      9 BR   UNL d   1     -50.812  14.112  21.524  0.00  0.00    -0.049 Br
ATOM     10  C   UNL d   1     -50.232  12.932  23.283  0.00  0.00     0.005 A 
ENDBRANCH   1   4
BRANCH   2  11
ATOM     11  N   UNL d   1     -48.318  12.135  23.252  0.00  0.00    -0.114 NA
BRANCH  11  12
ATOM     12  C   UNL d   1     -47.533  12.129  23.455  0.00  0.00     0.241 C 
ATOM     13  S   UNL d   1     -47.171  11.424  23.698  0.00  0.00    -0.035 SA
BRANCH  12  14
ATOM     14  N   UNL d   1     -47.083  12.834  23.421  0.00  0.00    -0.215 NA
BRANCH  14  15
ATOM     15  C   UNL d   1     -46.404  12.865  22.946  0.00  0.00     0.102 C 
BRANCH  15  16
ATOM     16  C   UNL d   1     -46.068  13.594  22.763  0.00  0.00     0.021 C 
ATOM     17  C   UNL d   1     -45.477  13.647  22.201  0.00  0.00     0.002 C 
ENDBRANCH  15  16
ENDBRANCH  14  15
ENDBRANCH  12  14
ENDBRANCH  11  12
ENDBRANCH   2  11
TORSDOF 6
ENDMDL
MODEL 2
REMARK VINA RESULT:      -6.1      1.931      2.476
REMARK  6 active torsions:
REMARK  status: ('A' for Active; 'I' for Inactive)
REMARK    1  A    between atoms: N_4  and  C_1 
REMARK    2  A    between atoms: N_8  and  C_1 
REMARK       I    between atoms: C_2  and  N_3 
REMARK    3  A    between atoms: C_6  and  C_2 
REMARK    4  A    between atoms: N_3  and  N_4 
REMARK    5  A    between atoms: C_17  and  N_8 
REMARK    6  A    between atoms: C_11  and  C_17 
ROOT
ATOM      1  C   UNL d   1     -48.452  14.831  22.549  0.00  0.00     0.297 C 
ATOM      2  N   UNL d   1     -47.656  14.611  22.703  0.00  0.00    -0.103 NA
ATOM      3  O   UNL d   1     -48.617  15.602  22.329  0.00  0.00    -0.264 OA
ENDROOT
BRANCH   1   4
ATOM      4  C   UNL d   1     -49.066  14.265  22.620  0.00  0.00     0.059 A 
ATOM      5  C   UNL d   1     -49.459  14.195  23.332  0.00  0.00     0.005 A 
ATOM      6  C   UNL d   1     -50.066  13.641  23.412  0.00  0.00     0.007 A 
ATOM      7  C   UNL d   1     -50.270  13.164  22.778  0.00  0.00     0.035 A 
ATOM      8  C   UNL d   1     -49.873  13.229  22.049  0.00  0.00     0.007 A 
ATOM      9 BR   UNL d   1     -50.893  12.592  22.857  0.00  0.00    -0.049 Br
ATOM     10  C   UNL d   1     -49.270  13.788  21.986  0.00  0.00     0.005 A 
ENDBRANCH   1   4
BRANCH   2  11
ATOM     11  N   UNL d   1     -47.487  13.822  22.928  0.00  0.00    -0.114 NA
BRANCH  11  12
ATOM     12  C   UNL d   1     -46.723  13.596  23.081  0.00  0.00     0.241 C 
ATOM     13  S   UNL d   1     -46.092  13.984  22.711  0.00  0.00    -0.035 SA
BRANCH  12  14
ATOM     14  N   UNL d   1     -46.568  12.969  23.613  0.00  0.00    -0.215 NA
BRANCH  14  15
ATOM     15  C   UNL d   1     -46.268  12.251  23.325  0.00  0.00     0.102 C 
BRANCH  15  16
ATOM     16  C   UNL d   1     -46.472  11.545  23.698  0.00  0.00     0.021 C 
ATOM     17  C   UNL d   1     -45.982  10.894  23.645  0.00  0.00     0.002 C 
ENDBRANCH  15  16
ENDBRANCH  14  15
ENDBRANCH  12  14
ENDBRANCH  11  12
ENDBRANCH   2  11
TORSDOF 6
ENDMDL
MODEL 3
REMARK VINA RESULT:      -5.9      2.118      3.445
REMARK  6 active torsions:
REMARK  status: ('A' for Active; 'I' for Inactive)
REMARK    1  A    between atoms: N_4  and  C_1 
REMARK    2  A    between atoms: N_8  and  C_1 
REMARK       I    between atoms: C_2  and  N_3 
REMARK    3  A    between atoms: C_6  and  C_2 
REMARK    4  A    between atoms: N_3  and  N_4 
REMARK    5  A    between atoms: C_17  and  N_8 
REMARK    6  A    between atoms: C_11  and  C_17 
ROOT
ATOM      1  C   UNL d   1     -48.780  11.838  22.670  0.00  0.00     0.297 C 
ATOM      2  N   UNL d   1     -49.537  12.151  22.856  0.00  0.00    -0.103 NA
ATOM      3  O   UNL d   1     -48.716  11.053  22.451  0.00  0.00    -0.264 OA
ENDROOT
BRANCH   1   4
ATOM      4  C   UNL d   1     -48.101  12.328  22.711  0.00  0.00     0.059 A 
ATOM      5  C   UNL d   1     -47.658  12.334  23.397  0.00  0.00     0.005 A 
ATOM      6  C   UNL d   1     -46.988  12.813  23.447  0.00  0.00     0.007 A 
ATOM      7  C   UNL d   1     -46.771  13.280  22.810  0.00  0.00     0.035 A 
ATOM      8  C   UNL d   1     -47.218  13.279  22.108  0.00  0.00     0.007 A 
ATOM      9 BR   UNL d   1     -46.082  13.774  22.859  0.00  0.00    -0.049 Br
ATOM     10  C   UNL d   1     -47.884  12.795  22.074  0.00  0.00     0.005 A 
ENDBRANCH   1   4
BRANCH   2  11
ATOM     11  N   UNL d   1     -49.604  12.954  23.080  0.00  0.00    -0.114 NA
BRANCH  11  12
ATOM     12  C   UNL d   1     -50.326  13.266  23.277  0.00  0.00     0.241 C 
ATOM     13  S   UNL d   1     -51.022  12.868  23.066  0.00  0.00    -0.035 SA
BRANCH  12  14
ATOM     14  N   UNL d   1     -50.374  13.990  23.695  0.00  0.00    -0.215 NA
BRANCH  14  15
ATOM     15  C   UNL d   1     -50.589  14.682  23.291  0.00  0.00     0.102 C 
BRANCH  15  16
ATOM     16  C   UNL d   1     -50.590  15.402  23.691  0.00  0.00     0.021 C 
ATOM     17  C   UNL d   1     -49.956  15.913  23.623  0.00  0.00     0.002 C 
ENDBRANCH  15  16
ENDBRANCH  14  15
ENDBRANCH  12  14
ENDBRANCH  11  12
ENDBRANCH   2  11
TORSDOF 6
ENDMDL
MODEL 4
REMARK VINA RESULT:      -4.8      2.384      2.872
REMARK  6 active torsions:
REMARK  status: ('A' for Active; 'I' for Inactive)
REMARK    1  A    between atoms: N_4  and  C_1 
REMARK    2  A    between atoms: N_8  and  C_1 
REMARK       I    between atoms: C_2  and  N_3 
REMARK    3  A    between atoms: C_6  and  C_2 
REMARK    4  A    between atoms: N_3  and  N_4 
REMARK    5  A    between atoms: C_17  and  N_8 
REMARK    6  A    between atoms: C_11  and  C_17 
ROOT
ATOM      1  C   UNL d   1     -50.407  12.313  22.980  0.00  0.00     0.297 C 
ATOM      2  N   UNL d   1     -50.573  13.135  22.939  0.00  0.00    -0.103 NA
ATOM      3  O   UNL d   1     -51.029  11.782  23.018  0.00  0.00    -0.264 OA
ENDROOT
BRANCH   1   4
ATOM      4  C   UNL d   1     -49.613  12.044  22.983  0.00  0.00     0.059 A 
ATOM      5  C   UNL d   1     -49.249  11.878  22.271  0.00  0.00     0.005 A 
ATOM      6  C   UNL d   1     -48.468  11.613  22.263  0.00  0.00     0.007 A 
ATOM      7  C   UNL d   1     -48.061  11.516  22.968  0.00  0.00     0.035 A 
ATOM      8  C   UNL d   1     -48.426  11.683  23.697  0.00  0.00     0.007 A 
ATOM      9 BR   UNL d   1     -47.257  11.243  22.963  0.00  0.00    -0.049 Br
ATOM     10  C   UNL d   1     -49.207  11.947  23.687  0.00  0.00     0.005 A 
ENDBRANCH   1   4
BRANCH   2  11
ATOM     11  N   UNL d   1     -49.937  13.679  22.900  0.00  0.00    -0.114 NA
BRANCH  11  12
ATOM     12  C   UNL d   1     -50.082  14.475  22.850  0.00  0.00     0.241 C 
ATOM     13  S   UNL d   1     -50.716  14.810  23.266  0.00  0.00    -0.035 SA
BRANCH  12  14
ATOM     14  N   UNL d   1     -49.594  14.964  22.378  0.00  0.00    -0.215 NA
BRANCH  14  15
ATOM     15  C   UNL d   1     -48.883  15.255  22.690  0.00  0.00     0.102 C 
BRANCH  15  16
ATOM     16  C   UNL d   1     -48.252  15.417  22.184  0.00  0.00     0.021 C 
ATOM     17  C   UNL d   1     -47.485  15.403  22.464  0.00  0.00     0.002 C 
ENDBRANCH  15  16
ENDBRANCH  14  15
ENDBRANCH  12  14
ENDBRANCH  11  12
ENDBRANCH   2  11
TORSDOF 6
ENDMDL
MODEL 5
REMARK VINA RESULT:      -4.8      9.162     10.051
REMARK  6 active torsions:
REMARK  status: ('A' for Active; 'I' for Inactive)
REMARK    1  A    between atoms: N_4  and  C_1 
REMARK    2  A    between atoms: N_8  and  C_1 
REMARK       I    between atoms: C_2  and  N_3 
REMARK    3  A    between atoms: C_6  and  C_2 
REMARK    4  A    between atoms: N_3  and  N_4 
REMARK    5  A    between atoms: C_17  and  N_8 
REMARK    6  A    between atoms: C_11  and  C_17 
ROOT
ATOM      1  C   UNL d   1     -40.904  15.441  20.388  0.00  0.00     0.297 C 
ATOM      2  N   UNL d   1     -40.897  15.332  19.555  0.00  0.00    -0.103 NA
ATOM      3  O   UNL d   1     -41.474  15.921  20.723  0.00  0.00    -0.264 OA
ENDROOT
BRANCH   1   4
ATOM      4  C   UNL d   1     -40.330  15.059  20.866  0.00  0.00     0.059 A 
ATOM      5  C   UNL d   1     -40.497  14.320  21.170  0.00  0.00     0.005 A 
ATOM      6  C   UNL d   1     -39.939  13.936  21.641  0.00  0.00     0.007 A 
ATOM      7  C   UNL d   1     -39.222  14.297  21.803  0.00  0.00     0.035 A 
ATOM      8  C   UNL d   1     -39.045  15.052  21.497  0.00  0.00     0.007 A 
ATOM      9 BR   UNL d   1     -38.646  13.905  22.288  0.00  0.00    -0.049 Br
ATOM     10  C   UNL d   1     -39.613  15.421  21.028  0.00  0.00     0.005 A 
ENDBRANCH   1   4
BRANCH   2  11
ATOM     11  N   UNL d   1     -40.313  14.840  19.212  0.00  0.00    -0.114 NA
BRANCH  11  12
ATOM     12  C   UNL d   1     -40.323  14.689  18.415  0.00  0.00     0.241 C 
ATOM     13  S   UNL d   1     -40.557  15.279  17.882  0.00  0.00    -0.035 SA
BRANCH  12  14
ATOM     14  N   UNL d   1     -40.096  13.937  18.126  0.00  0.00    -0.215 NA
BRANCH  14  15
ATOM     15  C   UNL d   1     -39.376  13.853  17.723  0.00  0.00     0.102 C 
BRANCH  15  16
ATOM     16  C   UNL d   1     -39.026  13.109  17.666  0.00  0.00     0.021 C 
ATOM     17  C   UNL d   1     -38.361  13.000  17.203  0.00  0.00     0.002 C 
ENDBRANCH  15  16
ENDBRANCH  14  15
ENDBRANCH  12  14
ENDBRANCH  11  12
ENDBRANCH   2  11
TORSDOF 6
ENDMDL
MODEL 6
REMARK VINA RESULT:      -4.6      9.578     10.424
REMARK  6 active torsions:
REMARK  status: ('A' for Active; 'I' for Inactive)
REMARK    1  A    between atoms: N_4  and  C_1 
REMARK    2  A    between atoms: N_8  and  C_1 
REMARK       I    between atoms: C_2  and  N_3 
REMARK    3  A    between atoms: C_6  and  C_2 
REMARK    4  A    between atoms: N_3  and  N_4 
REMARK    5  A    between atoms: C_17  and  N_8 
REMARK    6  A    between atoms: C_11  and  C_17 
ROOT
ATOM      1  C   UNL d   1     -40.553  15.354  18.190  0.00  0.00     0.297 C 
ATOM      2  N   UNL d   1     -40.702  15.482  19.006  0.00  0.00    -0.103 NA
ATOM      3  O   UNL d   1     -41.029  15.720  17.635  0.00  0.00    -0.264 OA
ENDROOT
BRANCH   1   4
ATOM      4  C   UNL d   1     -39.921  14.857  17.950  0.00  0.00     0.059 A 
ATOM      5  C   UNL d   1     -40.068  14.063  17.826  0.00  0.00     0.005 A 
ATOM      6  C   UNL d   1     -39.453  13.565  17.590  0.00  0.00     0.007 A 
ATOM      7  C   UNL d   1     -38.700  13.868  17.482  0.00  0.00     0.035 A 
ATOM      8  C   UNL d   1     -38.543  14.677  17.608  0.00  0.00     0.007 A 
ATOM      9 BR   UNL d   1     -38.066  13.359  17.240  0.00  0.00    -0.049 Br
ATOM     10  C   UNL d   1     -39.168  15.160  17.843  0.00  0.00     0.005 A 
ENDBRANCH   1   4
BRANCH   2  11
ATOM     11  N   UNL d   1     -40.214  15.107  19.574  0.00  0.00    -0.114 NA
BRANCH  11  12
ATOM     12  C   UNL d   1     -40.374  15.185  20.365  0.00  0.00     0.241 C 
ATOM     13  S   UNL d   1     -40.598  15.920  20.675  0.00  0.00    -0.035 SA
BRANCH  12  14
ATOM     14  N   UNL d   1     -40.314  14.523  20.875  0.00  0.00    -0.215 NA
BRANCH  14  15
ATOM     15  C   UNL d   1     -39.693  14.483  21.423  0.00  0.00     0.102 C 
BRANCH  15  16
ATOM     16  C   UNL d   1     -39.569  13.787  21.847  0.00  0.00     0.021 C 
ATOM     17  C   UNL d   1     -38.853  13.651  22.217  0.00  0.00     0.002 C 
ENDBRANCH  15  16
ENDBRANCH  14  15
ENDBRANCH  12  14
ENDBRANCH  11  12
ENDBRANCH   2  11
TORSDOF 6
ENDMDL
MODEL 7
REMARK VINA RESULT:      -4.4      9.689     10.630
REMARK  6 active torsions:
REMARK  status: ('A' for Active; 'I' for Inactive)
REMARK    1  A    between atoms: N_4  and  C_1 
REMARK    2  A    between atoms: N_8  and  C_1 
REMARK       I    between atoms: C_2  and  N_3 
REMARK    3  A    between atoms: C_6  and  C_2 
REMARK    4  A    between atoms: N_3  and  N_4 
REMARK    5  A    between atoms: C_17  and  N_8 
REMARK    6  A    between atoms: C_11  and  C_17 
ROOT
ATOM      1  C   UNL d   1     -40.617  14.810  17.599  0.00  0.00     0.297 C 
ATOM      2  N   UNL d   1     -40.039  14.357  17.192  0.00  0.00    -0.103 NA
ATOM      3  O   UNL d   1     -41.263  15.097  17.187  0.00  0.00    -0.264 OA
ENDROOT
BRANCH   1   4
ATOM      4  C   UNL d   1     -40.529  14.965  18.419  0.00  0.00     0.059 A 
ATOM      5  C   UNL d   1     -40.137  15.641  18.654  0.00  0.00     0.005 A 
ATOM      6  C   UNL d   1     -40.045  15.802  19.458  0.00  0.00     0.007 A 
ATOM      7  C   UNL d   1     -40.348  15.284  20.016  0.00  0.00     0.035 A 
ATOM      8  C   UNL d   1     -40.750  14.593  19.783  0.00  0.00     0.007 A 
ATOM      9 BR   UNL d   1     -40.255  15.447  20.844  0.00  0.00    -0.049 Br
ATOM     10  C   UNL d   1     -40.832  14.447  18.976  0.00  0.00     0.005 A 
ENDBRANCH   1   4
BRANCH   2  11
ATOM     11  N   UNL d   1     -39.379  14.063  17.614  0.00  0.00    -0.114 NA
BRANCH  11  12
ATOM     12  C   UNL d   1     -38.847  13.570  17.250  0.00  0.00     0.241 C 
ATOM     13  S   UNL d   1     -38.398  13.843  16.610  0.00  0.00    -0.035 SA
BRANCH  12  14
ATOM     14  N   UNL d   1     -38.749  12.784  17.519  0.00  0.00    -0.215 NA
BRANCH  14  15
ATOM     15  C   UNL d   1     -38.005  12.531  17.784  0.00  0.00     0.102 C 
BRANCH  15  16
ATOM     16  C   UNL d   1     -37.942  11.832  18.215  0.00  0.00     0.021 C 
ATOM     17  C   UNL d   1     -37.989  11.108  17.838  0.00  0.00     0.002 C 
ENDBRANCH  15  16
ENDBRANCH  14  15
ENDBRANCH  12  14
ENDBRANCH  11  12
ENDBRANCH   2  11
TORSDOF 6
ENDMDL
MODEL 8
REMARK VINA RESULT:      -4.4     10.131     10.621
REMARK  6 active torsions:
REMARK  status: ('A' for Active; 'I' for Inactive)
REMARK    1  A    between atoms: N_4  and  C_1 
REMARK    2  A    between atoms: N_8  and  C_1 
REMARK       I    between atoms: C_2  and  N_3 
REMARK    3  A    between atoms: C_6  and  C_2 
REMARK    4  A    between atoms: N_3  and  N_4 
REMARK    5  A    between atoms: C_17  and  N_8 
REMARK    6  A    between atoms: C_11  and  C_17 
ROOT
ATOM      1  C   UNL d   1     -39.091  13.547  17.925  0.00  0.00     0.297 C 
ATOM      2  N   UNL d   1     -38.690  13.605  18.661  0.00  0.00    -0.103 NA
ATOM      3  O   UNL d   1     -38.953  12.899  17.445  0.00  0.00    -0.264 OA
ENDROOT
BRANCH   1   4
ATOM      4  C   UNL d   1     -39.624  14.149  17.688  0.00  0.00     0.059 A 
ATOM      5  C   UNL d   1     -40.403  14.105  17.929  0.00  0.00     0.005 A 
ATOM      6  C   UNL d   1     -40.936  14.692  17.701  0.00  0.00     0.007 A 
ATOM      7  C   UNL d   1     -40.683  15.316  17.235  0.00  0.00     0.035 A 
ATOM      8  C   UNL d   1     -39.890  15.368  16.986  0.00  0.00     0.007 A 
ATOM      9 BR   UNL d   1     -41.228  15.922  16.999  0.00  0.00    -0.049 Br
ATOM     10  C   UNL d   1     -39.371  14.773  17.222  0.00  0.00     0.005 A 
ENDBRANCH   1   4
BRANCH   2  11
ATOM     11  N   UNL d   1     -38.831  14.268  19.152  0.00  0.00    -0.114 NA
BRANCH  11  12
ATOM     12  C   UNL d   1     -38.425  14.356  19.847  0.00  0.00     0.241 C 
ATOM     13  S   UNL d   1     -37.977  13.727  20.150  0.00  0.00    -0.035 SA
BRANCH  12  14
ATOM     14  N   UNL d   1     -38.453  15.081  20.265  0.00  0.00    -0.215 NA
BRANCH  14  15
ATOM     15  C   UNL d   1     -38.891  15.133  20.967  0.00  0.00     0.102 C 
BRANCH  15  16
ATOM     16  C   UNL d   1     -38.932  15.851  21.370  0.00  0.00     0.021 C 
ATOM     17  C   UNL d   1     -39.392  15.922  22.041  0.00  0.00     0.002 C 
ENDBRANCH  15  16
ENDBRANCH  14  15
ENDBRANCH  12  14
ENDBRANCH  11  12
ENDBRANCH   2  11
TORSDOF 6
ENDMDL
MODEL 9
REMARK VINA RESULT:      -4.1      9.527     10.413
REMARK  6 active torsions:
REMARK  status: ('A' for Active; 'I' for Inactive)
REMARK    1  A    between atoms: N_4  and  C_1 
REMARK    2  A    between atoms: N_8  and  C_1 
REMARK       I    between atoms: C_2  and  N_3 
REMARK    3  A    between atoms: C_6  and  C_2 
REMARK    4  A    between atoms: N_3  and  N_4 
REMARK    5  A    between atoms: C_17  and  N_8 
REMARK    6  A    between atoms: C_11  and  C_17 
ROOT
ATOM      1  C   UNL d   1     -38.826  14.007  19.761  0.00  0.00     0.297 C 
ATOM      2  N   UNL d   1     -38.771  13.991  18.923  0.00  0.00    -0.103 NA
ATOM      3  O   UNL d   1     -38.318  13.542  20.202  0.00  0.00    -0.264 OA
ENDROOT
BRANCH   1   4
ATOM      4  C   UNL d   1     -39.395  14.495  20.136  0.00  0.00     0.059 A 
ATOM      5  C   UNL d   1     -40.121  14.177  20.333  0.00  0.00     0.005 A 
ATOM      6  C   UNL d   1     -40.688  14.649  20.702  0.00  0.00     0.007 A 
ATOM      7  C   UNL d   1     -40.521  15.433  20.870  0.00  0.00     0.035 A 
ATOM      8  C   UNL d   1     -39.783  15.764  20.672  0.00  0.00     0.007 A 
ATOM      9 BR   UNL d   1     -41.103  15.921  21.250  0.00  0.00    -0.049 Br
ATOM     10  C   UNL d   1     -39.228  15.279  20.304  0.00  0.00     0.005 A 
ENDBRANCH   1   4
BRANCH   2  11
ATOM     11  N   UNL d   1     -39.291  14.467  18.470  0.00  0.00    -0.114 NA
BRANCH  11  12
ATOM     12  C   UNL d   1     -39.256  14.455  17.661  0.00  0.00     0.241 C 
ATOM     13  S   UNL d   1     -38.916  13.809  17.268  0.00  0.00    -0.035 SA
BRANCH  12  14
ATOM     14  N   UNL d   1     -39.563  15.094  17.215  0.00  0.00    -0.215 NA
BRANCH  14  15
ATOM     15  C   UNL d   1     -40.357  15.082  16.975  0.00  0.00     0.102 C 
BRANCH  15  16
ATOM     16  C   UNL d   1     -40.717  15.780  16.725  0.00  0.00     0.021 C 
ATOM     17  C   UNL d   1     -41.496  15.778  16.480  0.00  0.00     0.002 C 
ENDBRANCH  15  16
ENDBRANCH  14  15
ENDBRANCH  12  14
ENDBRANCH  11  12
ENDBRANCH   2  11
TORSDOF 6
ENDMDL
