MODEL 1
REMARK VINA RESULT:      37.2      0.000      0.000
REMARK  8 active torsions:
REMARK  status: ('A' for Active; 'I' for Inactive)
REMARK    1  A    between atoms: C_11  and  C_1 
REMARK    2  A    between atoms: C_10  and  C_2 
REMARK    3  A    between atoms: C_4  and  C_3 
REMARK    4  A    between atoms: C_14  and  C_9 
REMARK    5  A    between atoms: O_17  and  C_10 
REMARK    6  A    between atoms: O_18  and  C_11 
REMARK    7  A    between atoms: C_24  and  O_17 
REMARK    8  A    between atoms: C_23  and  O_18 
ROOT
ATOM      1  C   UNL d   1      46.383 -18.940  43.329  0.00  0.00     0.083 A 
ATOM      2  C   UNL d   1      46.085 -17.969  42.289  0.00  0.00     0.083 A 
ATOM      3  C   UNL d   1      46.198 -18.176  43.079  0.00  0.00     0.036 A 
ATOM      4  C   UNL d   1      46.162 -18.556  41.722  0.00  0.00     0.087 A 
ATOM      5  C   UNL d   1      46.461 -19.552  42.718  0.00  0.00     0.087 A 
ATOM      6  N   UNL d   1      46.346 -19.338  41.915  0.00  0.00    -0.245 NA
ATOM      7  C   UNL d   1      46.048 -18.362  40.879  0.00  0.00     0.021 C 
ATOM      8  C   UNL d   1      46.644 -20.330  42.914  0.00  0.00     0.021 C 
ENDROOT
BRANCH   3   9
ATOM      9  C   UNL d   1      46.125 -17.597  43.671  0.00  0.00     0.100 A 
ATOM     10  O   UNL d   1      45.888 -16.800  43.567  0.00  0.00    -0.307 OA
ATOM     11  C   UNL d   1      45.905 -16.455  44.321  0.00  0.00     0.100 A 
ATOM     12  C   UNL d   1      46.145 -17.033  44.857  0.00  0.00     0.027 A 
ATOM     13  C   UNL d   1      46.279 -17.723  44.466  0.00  0.00     0.027 A 
BRANCH  11  14
ATOM     14  C   UNL d   1      45.683 -15.655  44.328  0.00  0.00     0.023 A 
ATOM     15  C   UNL d   1      46.273 -15.090  44.260  0.00  0.00     0.002 A 
ATOM     16  C   UNL d   1      46.088 -14.301  44.264  0.00  0.00     0.000 A 
ATOM     17  C   UNL d   1      45.254 -14.073  44.341  0.00  0.00     0.000 A 
ATOM     18  C   UNL d   1      44.679 -14.654  44.408  0.00  0.00     0.000 A 
ATOM     19  C   UNL d   1      44.917 -15.445  44.399  0.00  0.00     0.002 A 
ENDBRANCH  11  14
ENDBRANCH   3   9
BRANCH   2  20
ATOM     20  C   UNL d   1      45.900 -17.199  42.043  0.00  0.00     0.302 C 
ATOM     21  O   UNL d   1      46.449 -16.606  42.097  0.00  0.00    -0.259 OA
BRANCH  20  22
ATOM     22  O   UNL d   1      45.156 -17.018  41.738  0.00  0.00    -0.271 OA
BRANCH  22  23
ATOM     23  C   UNL d   1      44.546 -17.598  41.253  0.00  0.00     0.126 C 
ATOM     24  C   UNL d   1      44.251 -17.265  40.563  0.00  0.00     0.029 C 
ENDBRANCH  22  23
ENDBRANCH  20  22
ENDBRANCH   2  20
BRANCH   1  25
ATOM     25  C   UNL d   1      46.501 -19.162  44.147  0.00  0.00     0.302 C 
ATOM     26  O   UNL d   1      46.557 -18.602  44.719  0.00  0.00    -0.259 OA
BRANCH  25  27
ATOM     27  O   UNL d   1      46.555 -19.975  44.325  0.00  0.00    -0.271 OA
BRANCH  27  28
ATOM     28  C   UNL d   1      46.142 -20.330  44.953  0.00  0.00     0.126 C 
ATOM     29  C   UNL d   1      45.329 -20.298  44.670  0.00  0.00     0.029 C 
ENDBRANCH  27  28
ENDBRANCH  25  27
ENDBRANCH   1  25
TORSDOF 8
ENDMDL
