MODEL 1
REMARK VINA RESULT:      99.6      0.000      0.000
REMARK  5 active torsions:
REMARK  status: ('A' for Active; 'I' for Inactive)
REMARK    1  A    between atoms: C_7  and  S_1 
REMARK    2  A    between atoms: N_8  and  S_1 
REMARK    3  A    between atoms: S_2  and  N_4 
REMARK    4  A    between atoms: C_12  and  S_2 
REMARK    5  A    between atoms: N_4  and  C_3 
ROOT
ATOM      1  C   UNL d   1      60.396  48.193  50.738  0.00  0.00     0.206 A 
ATOM      2  N   UNL d   1      60.988  48.286  50.167  0.00  0.00    -0.220 NA
ATOM      3  S   UNL d   1      60.355  47.387  50.928  0.00  0.00    -0.046 SA
ATOM      4  C   UNL d   1      61.729  45.946  49.913  0.00  0.00     0.105 A 
ATOM      5  C   UNL d   1      60.922  46.989  50.472  0.00  0.00     0.051 A 
ATOM      6  C   UNL d   1      61.312  47.544  50.004  0.00  0.00     0.090 A 
ATOM      7  C   UNL d   1      61.131  46.188  50.427  0.00  0.00     0.021 A 
ATOM      8  C   UNL d   1      62.118  46.513  49.443  0.00  0.00     0.015 A 
ATOM      9  C   UNL d   1      61.910  47.304  49.489  0.00  0.00     0.020 A 
ENDROOT
BRANCH   1  10
ATOM     10  N   UNL d   1      59.930  48.792  51.061  0.00  0.00    -0.132 NA
BRANCH  10  11
ATOM     11  S   UNL d   1      59.226  49.218  51.079  0.00  0.00     0.287 S 
ATOM     12  O   UNL d   1      59.536  49.708  51.663  0.00  0.00    -0.198 OA
ATOM     13  O   UNL d   1      59.111  48.631  50.507  0.00  0.00    -0.198 OA
BRANCH  11  14
ATOM     14  C   UNL d   1      58.460  49.342  50.801  0.00  0.00     0.105 A 
ATOM     15  C   UNL d   1      57.823  49.311  51.333  0.00  0.00     0.015 A 
ATOM     16  C   UNL d   1      57.052  49.433  51.066  0.00  0.00     0.030 A 
ATOM     17  C   UNL d   1      56.908  49.586  50.271  0.00  0.00     0.140 A 
ATOM     18  C   UNL d   1      57.538  49.618  49.735  0.00  0.00     0.030 A 
ATOM     19  F   UNL d   1      56.138  49.708  50.004  0.00  0.00    -0.204 F 
ATOM     20  C   UNL d   1      58.315  49.494  50.009  0.00  0.00     0.015 A 
ENDBRANCH  11  14
ENDBRANCH  10  11
ENDBRANCH   1  10
BRANCH   4  21
ATOM     21  S   UNL d   1      61.939  45.159  49.864  0.00  0.00     0.271 S 
ATOM     22  O   UNL d   1      62.278  45.107  48.935  0.00  0.00    -0.200 OA
ATOM     23  O   UNL d   1      61.610  45.124  50.824  0.00  0.00    -0.200 OA
BRANCH  21  24
ATOM     24  N   UNL d   1      62.081  44.349  50.024  0.00  0.00    -0.229 N 
ATOM     25  C   UNL d   1      62.577  43.844  49.597  0.00  0.00     0.092 A 
ATOM     26  C   UNL d   1      62.543  43.103  49.955  0.00  0.00     0.021 A 
ATOM     27  C   UNL d   1      62.031  43.143  50.601  0.00  0.00     0.021 A 
ATOM     28  C   UNL d   1      61.743  43.916  50.646  0.00  0.00     0.092 A 
ENDBRANCH  21  24
ENDBRANCH   4  21
TORSDOF 5
ENDMDL
