MODEL 1
REMARK VINA RESULT:      57.1      0.000      0.000
REMARK  5 active torsions:
REMARK  status: ('A' for Active; 'I' for Inactive)
REMARK       I    between atoms: C_7  and  N_1 
REMARK    1  A    between atoms: C_11  and  C_3 
REMARK    2  A    between atoms: C_14  and  C_5 
REMARK    3  A    between atoms: C_18  and  C_7 
REMARK    4  A    between atoms: C_17  and  O_19 
REMARK    5  A    between atoms: O_19  and  C_18 
ROOT
ATOM      1  N   UNL d   1      46.195 -17.559  42.920  0.00  0.00    -0.193 N 
ATOM      2  N   UNL d   1      46.210 -17.981  43.629  0.00  0.00    -0.162 NA
ATOM      3  C   UNL d   1      46.062 -18.775  43.447  0.00  0.00     0.109 A 
ATOM      4  C   UNL d   1      46.039 -18.090  42.308  0.00  0.00     0.088 A 
ATOM      5  C   UNL d   1      45.958 -18.840  42.640  0.00  0.00     0.041 A 
ATOM      6  C   UNL d   1      46.303 -16.758  42.753  0.00  0.00     0.305 C 
ATOM      7  O   UNL d   1      46.256 -16.488  41.974  0.00  0.00    -0.263 OA
ENDROOT
BRANCH   4   8
ATOM      8  C   UNL d   1      45.970 -17.937  41.501  0.00  0.00     0.018 A 
ATOM      9  C   UNL d   1      45.228 -17.922  41.151  0.00  0.00     0.004 A 
ATOM     10  C   UNL d   1      45.155 -17.768  40.340  0.00  0.00     0.030 A 
ATOM     11  C   UNL d   1      45.824 -17.632  39.896  0.00  0.00     0.140 A 
ATOM     12  C   UNL d   1      46.574 -17.648  40.251  0.00  0.00     0.030 A 
ATOM     13  F   UNL d   1      45.747 -17.478  39.083  0.00  0.00    -0.204 F 
ATOM     14  C   UNL d   1      46.644 -17.799  41.048  0.00  0.00     0.004 A 
ENDBRANCH   4   8
BRANCH   6  15
ATOM     15  C   UNL d   1      46.459 -16.226  43.365  0.00  0.00     0.185 C 
BRANCH  15  16
ATOM     16  O   UNL d   1      45.835 -15.865  43.766  0.00  0.00    -0.300 OA
BRANCH  16  17
ATOM     17  C   UNL d   1      45.930 -15.108  44.079  0.00  0.00     0.100 A 
ATOM     18  C   UNL d   1      45.432 -14.495  43.836  0.00  0.00     0.029 A 
ATOM     19  C   UNL d   1      45.527 -13.738  44.149  0.00  0.00     0.059 A 
ATOM     20  C   UNL d   1      44.843 -14.642  43.283  0.00  0.00     0.021 A 
ATOM     21  C   UNL d   1      45.033 -13.128  43.909  0.00  0.00     0.265 A 
ATOM     22  C   UNL d   1      46.120 -13.593  44.705  0.00  0.00     0.005 A 
ATOM     23  O   UNL d   1      45.128 -12.370  44.222  0.00  0.00    -0.267 OA
ATOM     24  N   UNL d   1      44.441 -13.272  43.353  0.00  0.00    -0.270 N 
ATOM     25  C   UNL d   1      44.346 -14.030  43.040  0.00  0.00     0.083 A 
ATOM     26  C   UNL d   1      43.940 -12.651  43.111  0.00  0.00     0.102 C 
ATOM     27  C   UNL d   1      46.618 -14.205  44.948  0.00  0.00     0.002 A 
ATOM     28  C   UNL d   1      46.523 -14.962  44.635  0.00  0.00     0.025 A 
ENDBRANCH  16  17
ENDBRANCH  15  16
ENDBRANCH   6  15
BRANCH   3  29
ATOM     29  C   UNL d   1      46.033 -19.365  44.011  0.00  0.00     0.049 A 
ATOM     30  S   UNL d   1      45.337 -19.774  44.217  0.00  0.00    -0.085 SA
ATOM     31  C   UNL d   1      45.528 -20.318  44.795  0.00  0.00     0.035 A 
ATOM     32  C   UNL d   1      46.333 -20.256  44.954  0.00  0.00     0.007 A 
ATOM     33  C   UNL d   1      46.646 -19.670  44.472  0.00  0.00     0.009 A 
ENDBRANCH   3  29
TORSDOF 5
ENDMDL
