MODEL 1
REMARK VINA RESULT:      52.3      0.000      0.000
REMARK  5 active torsions:
REMARK  status: ('A' for Active; 'I' for Inactive)
REMARK    1  A    between atoms: C_7  and  C_1 
REMARK    2  A    between atoms: C_13  and  C_2 
REMARK    3  A    between atoms: C_12  and  N_3 
REMARK    4  A    between atoms: C_4  and  C_7 
REMARK    5  A    between atoms: O_17  and  C_13 
ROOT
ATOM      1  N   UNL d   1     -57.866 -99.110 -44.169  0.00  0.00    -0.305 N 
ATOM      2  C   UNL d   1     -56.587 -99.255 -43.818  0.00  0.00     0.018 A 
ATOM      3  C   UNL d   1     -57.841 -99.245 -43.361  0.00  0.00     0.064 A 
ATOM      4  C   UNL d   1     -57.093 -99.115 -44.460  0.00  0.00     0.064 A 
ATOM      5  C   UNL d   1     -57.040 -99.335 -43.142  0.00  0.00     0.019 A 
ATOM      6  C   UNL d   1     -58.485 -99.285 -42.853  0.00  0.00     0.019 C 
ATOM      7  C   UNL d   1     -56.864 -99.001 -45.245  0.00  0.00     0.019 C 
ENDROOT
BRANCH   2   8
ATOM      8  C   UNL d   1     -55.761 -99.305 -43.852  0.00  0.00     0.006 C 
BRANCH   8   9
ATOM      9  C   UNL d   1     -55.400 -99.790 -44.405  0.00  0.00     0.065 A 
ATOM     10  C   UNL d   1     -55.309-100.607 -44.342  0.00  0.00     0.086 A 
ATOM     11  C   UNL d   1     -54.914-100.875 -45.022  0.00  0.00     0.090 A 
ATOM     12  C   UNL d   1     -54.713-101.651 -45.183  0.00  0.00     0.021 C 
ATOM     13  N   UNL d   1     -54.762-100.223 -45.503  0.00  0.00    -0.208 NA
ATOM     14  C   UNL d   1     -55.062 -99.548 -45.123  0.00  0.00     0.279 A 
ATOM     15  O   UNL d   1     -55.033 -98.779 -45.401  0.00  0.00    -0.265 OA
BRANCH  10  16
ATOM     16  C   UNL d   1     -55.564-101.080 -43.717  0.00  0.00     0.297 C 
ATOM     17  O   UNL d   1     -56.327-100.989 -43.404  0.00  0.00    -0.259 OA
BRANCH  16  18
ATOM     18  O   UNL d   1     -55.063-101.653 -43.388  0.00  0.00    -0.296 OA
ATOM     19  C   UNL d   1     -54.724-101.540 -42.645  0.00  0.00     0.185 C 
ENDBRANCH  16  18
ENDBRANCH  10  16
ENDBRANCH   8   9
ENDBRANCH   2   8
BRANCH   1  20
ATOM     20  C   UNL d   1     -58.554 -98.991 -44.610  0.00  0.00     0.092 A 
ATOM     21  C   UNL d   1     -59.264 -98.879 -44.235  0.00  0.00     0.156 A 
ATOM     22  F   UNL d   1     -59.304 -98.884 -43.412  0.00  0.00    -0.203 F 
ATOM     23  C   UNL d   1     -59.961 -98.759 -44.677  0.00  0.00     0.031 A 
ATOM     24  C   UNL d   1     -59.912 -98.756 -45.508  0.00  0.00     0.002 A 
ATOM     25  C   UNL d   1     -59.184 -98.871 -45.882  0.00  0.00     0.002 A 
ATOM     26  C   UNL d   1     -58.506 -98.988 -45.433  0.00  0.00     0.020 A 
ENDBRANCH   1  20
TORSDOF 5
ENDMDL
