MODEL 1
REMARK VINA RESULT:      13.7      0.000      0.000
REMARK  5 active torsions:
REMARK  status: ('A' for Active; 'I' for Inactive)
REMARK    1  A    between atoms: N_2  and  C_1 
REMARK    2  A    between atoms: N_3  and  C_1 
REMARK       I    between atoms: C_4  and  N_2 
REMARK    3  A    between atoms: C_7  and  N_3 
REMARK    4  A    between atoms: C_8  and  C_4 
REMARK    5  A    between atoms: C_9  and  C_8 
ROOT
ATOM      1  C   UNL d   1      46.123 -17.392  44.018  0.00  0.00     0.209 C 
ATOM      2  S   UNL d   1      46.529 -16.885  43.484  0.00  0.00    -0.038 SA
ENDROOT
BRANCH   1   3
ATOM      3  N   UNL d   1      45.500 -17.114  44.419  0.00  0.00    -0.180 NA
ATOM      4  C   UNL d   1      45.392 -16.321  44.530  0.00  0.00     0.281 C 
ATOM      5  O   UNL d   1      44.733 -16.032  44.954  0.00  0.00    -0.265 OA
BRANCH   4   6
ATOM      6  C   UNL d   1      45.928 -15.785  44.227  0.00  0.00     0.063 C 
BRANCH   6   7
ATOM      7  C   UNL d   1      45.829 -14.977  44.358  0.00  0.00     0.005 A 
ATOM      8  C   UNL d   1      45.186 -14.592  44.024  0.00  0.00     0.000 A 
ATOM      9  C   UNL d   1      45.072 -13.773  44.148  0.00  0.00     0.000 A 
ATOM     10  C   UNL d   1      45.618 -13.360  44.612  0.00  0.00     0.000 A 
ATOM     11  C   UNL d   1      46.264 -13.739  44.949  0.00  0.00     0.000 A 
ATOM     12  C   UNL d   1      46.384 -14.564  44.828  0.00  0.00     0.000 A 
ENDBRANCH   6   7
ENDBRANCH   4   6
ENDBRANCH   1   3
BRANCH   1  13
ATOM     13  N   UNL d   1      46.376 -18.154  44.111  0.00  0.00    -0.281 N 
ATOM     14  C   UNL d   1      46.623 -18.506  44.886  0.00  0.00     0.101 C 
BRANCH  13  15
ATOM     15  C   UNL d   1      46.421 -18.652  43.485  0.00  0.00     0.066 A 
ATOM     16  C   UNL d   1      46.564 -18.383  42.718  0.00  0.00     0.018 A 
ATOM     17  C   UNL d   1      46.608 -18.904  42.084  0.00  0.00     0.002 A 
ATOM     18  C   UNL d   1      46.505 -19.732  42.207  0.00  0.00     0.000 A 
ATOM     19  C   UNL d   1      46.362 -20.002  42.974  0.00  0.00     0.002 A 
ATOM     20  C   UNL d   1      46.320 -19.458  43.610  0.00  0.00     0.018 A 
ENDBRANCH  13  15
ENDBRANCH   1  13
TORSDOF 5
ENDMDL
MODEL 2
REMARK VINA RESULT:      15.0      1.132      4.547
REMARK  5 active torsions:
REMARK  status: ('A' for Active; 'I' for Inactive)
REMARK    1  A    between atoms: N_2  and  C_1 
REMARK    2  A    between atoms: N_3  and  C_1 
REMARK       I    between atoms: C_4  and  N_2 
REMARK    3  A    between atoms: C_7  and  N_3 
REMARK    4  A    between atoms: C_8  and  C_4 
REMARK    5  A    between atoms: C_9  and  C_8 
ROOT
ATOM      1  C   UNL d   1      45.630 -16.078  44.240  0.00  0.00     0.209 C 
ATOM      2  S   UNL d   1      45.127 -16.532  44.736  0.00  0.00    -0.038 SA
ENDROOT
BRANCH   1   3
ATOM      3  N   UNL d   1      45.834 -16.363  43.530  0.00  0.00    -0.180 NA
ATOM      4  C   UNL d   1      46.048 -17.136  43.432  0.00  0.00     0.281 C 
ATOM      5  O   UNL d   1      46.262 -17.431  42.681  0.00  0.00    -0.265 OA
BRANCH   4   6
ATOM      6  C   UNL d   1      46.058 -17.644  44.071  0.00  0.00     0.063 C 
BRANCH   6   7
ATOM      7  C   UNL d   1      46.253 -18.439  43.968  0.00  0.00     0.005 A 
ATOM      8  C   UNL d   1      46.399 -18.905  44.628  0.00  0.00     0.000 A 
ATOM      9  C   UNL d   1      46.599 -19.712  44.540  0.00  0.00     0.000 A 
ATOM     10  C   UNL d   1      46.646 -20.030  43.778  0.00  0.00     0.000 A 
ATOM     11  C   UNL d   1      46.501 -19.570  43.113  0.00  0.00     0.000 A 
ATOM     12  C   UNL d   1      46.299 -18.756  43.196  0.00  0.00     0.000 A 
ENDBRANCH   6   7
ENDBRANCH   4   6
ENDBRANCH   1   3
BRANCH   1  13
ATOM     13  N   UNL d   1      45.897 -15.359  44.497  0.00  0.00    -0.281 N 
ATOM     14  C   UNL d   1      46.647 -15.241  44.953  0.00  0.00     0.101 C 
BRANCH  13  15
ATOM     15  C   UNL d   1      45.483 -14.690  44.348  0.00  0.00     0.066 A 
ATOM     16  C   UNL d   1      44.684 -14.616  44.540  0.00  0.00     0.018 A 
ATOM     17  C   UNL d   1      44.270 -13.923  44.383  0.00  0.00     0.002 A 
ATOM     18  C   UNL d   1      44.659 -13.269  44.018  0.00  0.00     0.000 A 
ATOM     19  C   UNL d   1      45.458 -13.343  43.827  0.00  0.00     0.002 A 
ATOM     20  C   UNL d   1      45.867 -14.055  43.993  0.00  0.00     0.018 A 
ENDBRANCH  13  15
ENDBRANCH   1  13
TORSDOF 5
ENDMDL
