MODEL 1
REMARK VINA RESULT:      -8.3      0.000      0.000
REMARK  5 active torsions:
REMARK  status: ('A' for Active; 'I' for Inactive)
REMARK    1  A    between atoms: N_6  and  C_1 
REMARK    2  A    between atoms: C_8  and  C_4 
REMARK       I    between atoms: C_7  and  N_6 
REMARK    3  A    between atoms: C_13  and  C_7 
REMARK    4  A    between atoms: O_14  and  C_8 
REMARK    5  A    between atoms: C_18  and  O_14 
ROOT
ATOM      1  C   UNL d   1      53.330  33.754  54.364  0.00  0.00     0.124 A 
ATOM      2  C   UNL d   1      54.096  33.435  54.439  0.00  0.00     0.093 A 
ATOM      3  S   UNL d   1      52.886  33.228  53.913  0.00  0.00    -0.062 SA
ATOM      4  C   UNL d   1      53.371  32.592  53.712  0.00  0.00     0.095 A 
ATOM      5  C   UNL d   1      54.114  32.717  54.033  0.00  0.00     0.023 A 
ATOM      6  C   UNL d   1      54.731  33.792  54.857  0.00  0.00     0.103 C 
ATOM      7  N   UNL d   1      55.355  34.131  55.262  0.00  0.00    -0.191 NA
ATOM      8  C   UNL d   1      54.770  32.213  53.965  0.00  0.00     0.001 C 
ENDROOT
BRANCH   1   9
ATOM      9  N   UNL d   1      53.072  34.466  54.686  0.00  0.00    -0.201 NA
ATOM     10  C   UNL d   1      52.624  34.984  54.223  0.00  0.00     0.280 C 
ATOM     11  O   UNL d   1      52.371  35.691  54.551  0.00  0.00    -0.265 OA
BRANCH  10  12
ATOM     12  C   UNL d   1      52.436  34.794  53.449  0.00  0.00     0.058 C 
ATOM     13  C   UNL d   1      51.721  34.422  53.280  0.00  0.00     0.005 C 
ATOM     14  C   UNL d   1      52.960  34.973  52.827  0.00  0.00     0.005 C 
ENDBRANCH  10  12
ENDBRANCH   1   9
BRANCH   4  15
ATOM     15  C   UNL d   1      53.146  31.942  53.263  0.00  0.00     0.306 C 
ATOM     16  O   UNL d   1      53.227  31.953  52.431  0.00  0.00    -0.258 OA
BRANCH  15  17
ATOM     17  O   UNL d   1      52.833  31.259  53.621  0.00  0.00    -0.271 OA
BRANCH  17  18
ATOM     18  C   UNL d   1      52.675  30.759  52.980  0.00  0.00     0.126 C 
ATOM     19  C   UNL d   1      52.460  29.974  53.112  0.00  0.00     0.029 C 
ENDBRANCH  17  18
ENDBRANCH  15  17
ENDBRANCH   4  15
TORSDOF 5
ENDMDL
MODEL 2
REMARK VINA RESULT:      -8.2      1.238      2.205
REMARK  5 active torsions:
REMARK  status: ('A' for Active; 'I' for Inactive)
REMARK    1  A    between atoms: N_6  and  C_1 
REMARK    2  A    between atoms: C_8  and  C_4 
REMARK       I    between atoms: C_7  and  N_6 
REMARK    3  A    between atoms: C_13  and  C_7 
REMARK    4  A    between atoms: O_14  and  C_8 
REMARK    5  A    between atoms: C_18  and  O_14 
ROOT
ATOM      1  C   UNL d   1      53.040  33.193  54.064  0.00  0.00     0.124 A 
ATOM      2  C   UNL d   1      52.629  33.084  53.347  0.00  0.00     0.093 A 
ATOM      3  S   UNL d   1      53.394  32.476  54.258  0.00  0.00    -0.062 SA
ATOM      4  C   UNL d   1      53.205  31.931  53.669  0.00  0.00     0.095 A 
ATOM      5  C   UNL d   1      52.736  32.301  53.109  0.00  0.00     0.023 A 
ATOM      6  C   UNL d   1      52.187  33.675  52.947  0.00  0.00     0.103 C 
ATOM      7  N   UNL d   1      51.753  34.244  52.550  0.00  0.00    -0.191 NA
ATOM      8  C   UNL d   1      52.422  31.954  52.423  0.00  0.00     0.001 C 
ENDROOT
BRANCH   1   9
ATOM      9  N   UNL d   1      53.079  33.894  54.494  0.00  0.00    -0.201 NA
ATOM     10  C   UNL d   1      53.775  34.087  54.895  0.00  0.00     0.280 C 
ATOM     11  O   UNL d   1      53.806  34.786  55.321  0.00  0.00    -0.265 OA
BRANCH  10  12
ATOM     12  C   UNL d   1      54.424  33.588  54.868  0.00  0.00     0.058 C 
ATOM     13  C   UNL d   1      54.535  33.028  55.460  0.00  0.00     0.005 C 
ATOM     14  C   UNL d   1      54.976  33.640  54.247  0.00  0.00     0.005 C 
ENDBRANCH  10  12
ENDBRANCH   1   9
BRANCH   4  15
ATOM     15  C   UNL d   1      53.448  31.146  53.647  0.00  0.00     0.306 C 
ATOM     16  O   UNL d   1      54.044  30.902  53.115  0.00  0.00    -0.258 OA
BRANCH  15  17
ATOM     17  O   UNL d   1      53.109  30.576  54.151  0.00  0.00    -0.271 OA
BRANCH  17  18
ATOM     18  C   UNL d   1      53.508  29.879  53.950  0.00  0.00     0.126 C 
ATOM     19  C   UNL d   1      53.351  29.181  54.361  0.00  0.00     0.029 C 
ENDBRANCH  17  18
ENDBRANCH  15  17
ENDBRANCH   4  15
TORSDOF 5
ENDMDL
MODEL 3
REMARK VINA RESULT:      -8.0      1.791      2.954
REMARK  5 active torsions:
REMARK  status: ('A' for Active; 'I' for Inactive)
REMARK    1  A    between atoms: N_6  and  C_1 
REMARK    2  A    between atoms: C_8  and  C_4 
REMARK       I    between atoms: C_7  and  N_6 
REMARK    3  A    between atoms: C_13  and  C_7 
REMARK    4  A    between atoms: O_14  and  C_8 
REMARK    5  A    between atoms: C_18  and  O_14 
ROOT
ATOM      1  C   UNL d   1      52.908  32.638  52.971  0.00  0.00     0.124 A 
ATOM      2  C   UNL d   1      53.065  31.850  53.189  0.00  0.00     0.093 A 
ATOM      3  S   UNL d   1      53.307  33.127  53.500  0.00  0.00    -0.062 SA
ATOM      4  C   UNL d   1      53.706  32.646  54.038  0.00  0.00     0.095 A 
ATOM      5  C   UNL d   1      53.559  31.862  53.850  0.00  0.00     0.023 A 
ATOM      6  C   UNL d   1      52.767  31.169  52.797  0.00  0.00     0.103 C 
ATOM      7  N   UNL d   1      52.482  30.501  52.423  0.00  0.00    -0.191 NA
ATOM      8  C   UNL d   1      53.853  31.197  54.250  0.00  0.00     0.001 C 
ENDROOT
BRANCH   1   9
ATOM      9  N   UNL d   1      52.437  32.877  52.339  0.00  0.00    -0.201 NA
ATOM     10  C   UNL d   1      51.915  33.511  52.436  0.00  0.00     0.280 C 
ATOM     11  O   UNL d   1      51.451  33.742  51.803  0.00  0.00    -0.265 OA
BRANCH  10  12
ATOM     12  C   UNL d   1      51.863  33.900  53.154  0.00  0.00     0.058 C 
ATOM     13  C   UNL d   1      52.315  34.575  53.289  0.00  0.00     0.005 C 
ATOM     14  C   UNL d   1      51.355  33.623  53.754  0.00  0.00     0.005 C 
ENDBRANCH  10  12
ENDBRANCH   1   9
BRANCH   4  15
ATOM     15  C   UNL d   1      54.173  32.910  54.661  0.00  0.00     0.306 C 
ATOM     16  O   UNL d   1      53.943  32.769  55.451  0.00  0.00    -0.258 OA
BRANCH  15  17
ATOM     17  O   UNL d   1      54.883  33.322  54.522  0.00  0.00    -0.271 OA
BRANCH  17  18
ATOM     18  C   UNL d   1      55.054  33.665  55.256  0.00  0.00     0.126 C 
ATOM     19  C   UNL d   1      55.691  34.184  55.330  0.00  0.00     0.029 C 
ENDBRANCH  17  18
ENDBRANCH  15  17
ENDBRANCH   4  15
TORSDOF 5
ENDMDL
MODEL 4
REMARK VINA RESULT:      -7.9      1.789      2.938
REMARK  5 active torsions:
REMARK  status: ('A' for Active; 'I' for Inactive)
REMARK    1  A    between atoms: N_6  and  C_1 
REMARK    2  A    between atoms: C_8  and  C_4 
REMARK       I    between atoms: C_7  and  N_6 
REMARK    3  A    between atoms: C_13  and  C_7 
REMARK    4  A    between atoms: O_14  and  C_8 
REMARK    5  A    between atoms: C_18  and  O_14 
ROOT
ATOM      1  C   UNL d   1      53.671  32.631  53.433  0.00  0.00     0.124 A 
ATOM      2  C   UNL d   1      53.301  31.895  53.309  0.00  0.00     0.093 A 
ATOM      3  S   UNL d   1      53.089  33.212  53.391  0.00  0.00    -0.062 SA
ATOM      4  C   UNL d   1      52.369  32.839  53.242  0.00  0.00     0.095 A 
ATOM      5  C   UNL d   1      52.496  32.032  53.191  0.00  0.00     0.023 A 
ATOM      6  C   UNL d   1      53.691  31.152  53.306  0.00  0.00     0.103 C 
ATOM      7  N   UNL d   1      54.061  30.422  53.301  0.00  0.00    -0.191 NA
ATOM      8  C   UNL d   1      51.921  31.451  53.048  0.00  0.00     0.001 C 
ENDROOT
BRANCH   1   9
ATOM      9  N   UNL d   1      54.474  32.749  53.573  0.00  0.00    -0.201 NA
ATOM     10  C   UNL d   1      54.714  33.185  54.233  0.00  0.00     0.280 C 
ATOM     11  O   UNL d   1      55.514  33.297  54.364  0.00  0.00    -0.265 OA
BRANCH  10  12
ATOM     12  C   UNL d   1      54.160  33.500  54.747  0.00  0.00     0.058 C 
ATOM     13  C   UNL d   1      53.892  33.054  55.385  0.00  0.00     0.005 C 
ATOM     14  C   UNL d   1      53.862  34.270  54.634  0.00  0.00     0.005 C 
ENDBRANCH  10  12
ENDBRANCH   1   9
BRANCH   4  15
ATOM     15  C   UNL d   1      51.643  33.216  53.159  0.00  0.00     0.306 C 
ATOM     16  O   UNL d   1      51.026  33.070  53.703  0.00  0.00    -0.258 OA
BRANCH  15  17
ATOM     17  O   UNL d   1      51.504  33.750  52.535  0.00  0.00    -0.271 OA
BRANCH  17  18
ATOM     18  C   UNL d   1      50.769  34.080  52.724  0.00  0.00     0.126 C 
ATOM     19  C   UNL d   1      50.354  34.515  52.159  0.00  0.00     0.029 C 
ENDBRANCH  17  18
ENDBRANCH  15  17
ENDBRANCH   4  15
TORSDOF 5
ENDMDL
MODEL 5
REMARK VINA RESULT:      -7.7      1.211      2.945
REMARK  5 active torsions:
REMARK  status: ('A' for Active; 'I' for Inactive)
REMARK    1  A    between atoms: N_6  and  C_1 
REMARK    2  A    between atoms: C_8  and  C_4 
REMARK       I    between atoms: C_7  and  N_6 
REMARK    3  A    between atoms: C_13  and  C_7 
REMARK    4  A    between atoms: O_14  and  C_8 
REMARK    5  A    between atoms: C_18  and  O_14 
ROOT
ATOM      1  C   UNL d   1      53.219  33.096  54.327  0.00  0.00     0.124 A 
ATOM      2  C   UNL d   1      53.529  33.858  54.457  0.00  0.00     0.093 A 
ATOM      3  S   UNL d   1      52.575  33.173  53.820  0.00  0.00    -0.062 SA
ATOM      4  C   UNL d   1      52.488  33.973  53.639  0.00  0.00     0.095 A 
ATOM      5  C   UNL d   1      53.072  34.396  54.028  0.00  0.00     0.023 A 
ATOM      6  C   UNL d   1      54.191  34.036  54.941  0.00  0.00     0.103 C 
ATOM      7  N   UNL d   1      54.836  34.220  55.411  0.00  0.00    -0.191 NA
ATOM      8  C   UNL d   1      53.187  35.217  53.999  0.00  0.00     0.001 C 
ENDROOT
BRANCH   1   9
ATOM      9  N   UNL d   1      53.509  32.397  54.650  0.00  0.00    -0.201 NA
ATOM     10  C   UNL d   1      53.623  31.739  54.164  0.00  0.00     0.280 C 
ATOM     11  O   UNL d   1      53.912  31.047  54.494  0.00  0.00    -0.265 OA
BRANCH  10  12
ATOM     12  C   UNL d   1      53.450  31.777  53.364  0.00  0.00     0.058 C 
ATOM     13  C   UNL d   1      54.005  32.080  52.838  0.00  0.00     0.005 C 
ATOM     14  C   UNL d   1      52.715  31.512  53.074  0.00  0.00     0.005 C 
ENDBRANCH  10  12
ENDBRANCH   1   9
BRANCH   4  15
ATOM     15  C   UNL d   1      51.911  34.293  53.149  0.00  0.00     0.306 C 
ATOM     16  O   UNL d   1      52.126  34.686  52.443  0.00  0.00    -0.258 OA
BRANCH  15  17
ATOM     17  O   UNL d   1      51.103  34.236  53.341  0.00  0.00    -0.271 OA
BRANCH  17  18
ATOM     18  C   UNL d   1      50.722  34.429  52.631  0.00  0.00     0.126 C 
ATOM     19  C   UNL d   1      49.898  34.444  52.596  0.00  0.00     0.029 C 
ENDBRANCH  17  18
ENDBRANCH  15  17
ENDBRANCH   4  15
TORSDOF 5
ENDMDL
MODEL 6
REMARK VINA RESULT:      -7.3      1.825      3.762
REMARK  5 active torsions:
REMARK  status: ('A' for Active; 'I' for Inactive)
REMARK    1  A    between atoms: N_6  and  C_1 
REMARK    2  A    between atoms: C_8  and  C_4 
REMARK       I    between atoms: C_7  and  N_6 
REMARK    3  A    between atoms: C_13  and  C_7 
REMARK    4  A    between atoms: O_14  and  C_8 
REMARK    5  A    between atoms: C_18  and  O_14 
ROOT
ATOM      1  C   UNL d   1      52.906  32.121  53.134  0.00  0.00     0.124 A 
ATOM      2  C   UNL d   1      52.414  32.758  53.352  0.00  0.00     0.093 A 
ATOM      3  S   UNL d   1      53.592  32.173  53.586  0.00  0.00    -0.062 SA
ATOM      4  C   UNL d   1      53.526  32.833  54.076  0.00  0.00     0.095 A 
ATOM      5  C   UNL d   1      52.804  33.194  53.934  0.00  0.00     0.023 A 
ATOM      6  C   UNL d   1      51.656  32.918  53.028  0.00  0.00     0.103 C 
ATOM      7  N   UNL d   1      50.917  33.082  52.718  0.00  0.00    -0.191 NA
ATOM      8  C   UNL d   1      52.513  33.875  54.308  0.00  0.00     0.001 C 
ENDROOT
BRANCH   1   9
ATOM      9  N   UNL d   1      52.730  31.549  52.570  0.00  0.00    -0.201 NA
ATOM     10  C   UNL d   1      52.927  30.759  52.715  0.00  0.00     0.280 C 
ATOM     11  O   UNL d   1      52.748  30.196  52.147  0.00  0.00    -0.265 OA
BRANCH  10  12
ATOM     12  C   UNL d   1      53.295  30.543  53.414  0.00  0.00     0.058 C 
ATOM     13  C   UNL d   1      54.116  30.524  53.456  0.00  0.00     0.005 C 
ATOM     14  C   UNL d   1      52.847  30.342  54.086  0.00  0.00     0.005 C 
ENDBRANCH  10  12
ENDBRANCH   1   9
BRANCH   4  15
ATOM     15  C   UNL d   1      54.091  33.086  54.616  0.00  0.00     0.306 C 
ATOM     16  O   UNL d   1      53.989  32.942  55.433  0.00  0.00    -0.258 OA
BRANCH  15  17
ATOM     17  O   UNL d   1      54.774  33.491  54.367  0.00  0.00    -0.271 OA
BRANCH  17  18
ATOM     18  C   UNL d   1      55.178  33.641  55.074  0.00  0.00     0.126 C 
ATOM     19  C   UNL d   1      55.882  34.071  55.064  0.00  0.00     0.029 C 
ENDBRANCH  17  18
ENDBRANCH  15  17
ENDBRANCH   4  15
TORSDOF 5
ENDMDL
