MODEL 1
REMARK VINA RESULT:      52.4      0.000      0.000
REMARK  5 active torsions:
REMARK  status: ('A' for Active; 'I' for Inactive)
REMARK    1  A    between atoms: N_9  and  C_1 
REMARK    2  A    between atoms: C_12  and  C_2 
REMARK       I    between atoms: C_13  and  N_9 
REMARK    3  A    between atoms: C_11  and  C_14 
REMARK    4  A    between atoms: O_19  and  C_12 
REMARK    5  A    between atoms: C_14  and  C_13 
ROOT
ATOM      1  C   UNL d   1     -50.989  25.736  33.370  0.00  0.00     0.119 A 
ATOM      2  C   UNL d   1     -51.264  24.941  33.343  0.00  0.00     0.087 A 
ATOM      3  S   UNL d   1     -51.633  26.252  33.377  0.00  0.00    -0.068 SA
ATOM      4  C   UNL d   1     -52.076  24.980  33.334  0.00  0.00     0.013 A 
ATOM      5  C   UNL d   1     -52.317  25.784  33.355  0.00  0.00     0.031 A 
ATOM      6  C   UNL d   1     -52.563  24.323  33.309  0.00  0.00     0.001 C 
ATOM      7  C   UNL d   1     -53.093  26.063  33.353  0.00  0.00     0.007 C 
ENDROOT
BRANCH   1   8
ATOM      8  N   UNL d   1     -50.217  26.042  33.389  0.00  0.00    -0.201 NA
ATOM      9  C   UNL d   1     -49.983  26.541  34.001  0.00  0.00     0.280 C 
ATOM     10  O   UNL d   1     -50.519  26.749  34.614  0.00  0.00    -0.265 OA
BRANCH   9  11
ATOM     11  C   UNL d   1     -49.197  26.853  34.020  0.00  0.00     0.074 C 
BRANCH  11  12
ATOM     12  C   UNL d   1     -49.032  27.587  34.378  0.00  0.00     0.095 A 
ATOM     13  C   UNL d   1     -49.173  28.311  34.056  0.00  0.00     0.287 A 
ATOM     14  N   UNL d   1     -48.926  28.885  34.598  0.00  0.00    -0.181 NA
ATOM     15  O   UNL d   1     -49.509  28.470  33.309  0.00  0.00    -0.265 OA
ATOM     16  C   UNL d   1     -48.630  28.477  35.259  0.00  0.00     0.217 A 
ATOM     17  S   UNL d   1     -48.700  27.665  35.113  0.00  0.00    -0.042 SA
ATOM     18  N   UNL d   1     -48.318  28.841  35.948  0.00  0.00    -0.119 N 
ENDBRANCH  11  12
ENDBRANCH   9  11
ENDBRANCH   1   8
BRANCH   2  19
ATOM     19  C   UNL d   1     -50.830  24.259  33.328  0.00  0.00     0.298 C 
ATOM     20  O   UNL d   1     -51.214  23.548  33.333  0.00  0.00    -0.259 OA
BRANCH  19  21
ATOM     21  O   UNL d   1     -50.018  24.296  33.309  0.00  0.00    -0.296 OA
ATOM     22  C   UNL d   1     -49.573  23.617  33.371  0.00  0.00     0.185 C 
ENDBRANCH  19  21
ENDBRANCH   2  19
TORSDOF 5
ENDMDL
