MODEL 1
REMARK VINA RESULT:      -2.8      0.000      0.000
REMARK  1 active torsions:
REMARK  status: ('A' for Active; 'I' for Inactive)
REMARK    1  A    between atoms: C_6  and  N_1 
ROOT
ATOM      1  N   UNL d   1      30.996  16.459 -23.749  0.00  0.00    -0.210 N 
ATOM      2  C   UNL d   1      30.199  16.555 -23.927  0.00  0.00     0.196 A 
ATOM      3  N   UNL d   1      31.075  15.773 -23.286  0.00  0.00    -0.161 NA
ATOM      4  C   UNL d   1      29.784  15.936 -23.579  0.00  0.00     0.127 A 
ATOM      5  C   UNL d   1      30.317  15.453 -23.184  0.00  0.00     0.134 A 
ATOM      6  C   UNL d   1      28.964  15.818 -23.620  0.00  0.00     0.106 C 
ATOM      7  N   UNL d   1      28.143  15.697 -23.658  0.00  0.00    -0.191 NA
ATOM      8  N   UNL d   1      29.872  17.183 -24.387  0.00  0.00    -0.126 N 
ENDROOT
BRANCH   1   9
ATOM      9  C   UNL d   1      31.642  16.932 -23.967  0.00  0.00     0.085 A 
ATOM     10  C   UNL d   1      31.932  17.486 -23.429  0.00  0.00     0.019 A 
ATOM     11  C   UNL d   1      32.581  17.963 -23.646  0.00  0.00     0.002 A 
ATOM     12  C   UNL d   1      32.886  18.530 -23.109  0.00  0.00     0.000 C 
ATOM     13  C   UNL d   1      32.924  17.877 -24.389  0.00  0.00     0.000 A 
ATOM     14  C   UNL d   1      32.632  17.322 -24.923  0.00  0.00     0.002 A 
ATOM     15  C   UNL d   1      31.985  16.846 -24.710  0.00  0.00     0.019 A 
ENDBRANCH   1   9
TORSDOF 1
ENDMDL
MODEL 2
REMARK VINA RESULT:      -2.8      0.842      1.115
REMARK  1 active torsions:
REMARK  status: ('A' for Active; 'I' for Inactive)
REMARK    1  A    between atoms: C_6  and  N_1 
ROOT
ATOM      1  N   UNL d   1      31.801  17.057 -23.792  0.00  0.00    -0.210 N 
ATOM      2  C   UNL d   1      31.020  16.958 -24.030  0.00  0.00     0.196 A 
ATOM      3  N   UNL d   1      32.063  16.340 -23.465  0.00  0.00    -0.161 NA
ATOM      4  C   UNL d   1      30.797  16.186 -23.854  0.00  0.00     0.127 A 
ATOM      5  C   UNL d   1      31.434  15.802 -23.507  0.00  0.00     0.134 A 
ATOM      6  C   UNL d   1      30.053  15.850 -24.002  0.00  0.00     0.106 C 
ATOM      7  N   UNL d   1      29.309  15.510 -24.149  0.00  0.00    -0.191 NA
ATOM      8  N   UNL d   1      30.538  17.550 -24.392  0.00  0.00    -0.126 N 
ENDROOT
BRANCH   1   9
ATOM      9  C   UNL d   1      32.282  17.731 -23.846  0.00  0.00     0.085 A 
ATOM     10  C   UNL d   1      32.422  18.179 -23.167  0.00  0.00     0.019 A 
ATOM     11  C   UNL d   1      32.906  18.856 -23.219  0.00  0.00     0.002 A 
ATOM     12  C   UNL d   1      33.056  19.320 -22.536  0.00  0.00     0.000 C 
ATOM     13  C   UNL d   1      33.237  19.071 -23.940  0.00  0.00     0.000 A 
ATOM     14  C   UNL d   1      33.095  18.621 -24.615  0.00  0.00     0.002 A 
ATOM     15  C   UNL d   1      32.614  17.946 -24.567  0.00  0.00     0.019 A 
ENDBRANCH   1   9
TORSDOF 1
ENDMDL
MODEL 3
REMARK VINA RESULT:      -2.7      1.134      3.331
REMARK  1 active torsions:
REMARK  status: ('A' for Active; 'I' for Inactive)
REMARK    1  A    between atoms: C_6  and  N_1 
ROOT
ATOM      1  N   UNL d   1      30.807  16.634 -24.077  0.00  0.00    -0.210 N 
ATOM      2  C   UNL d   1      31.126  17.336 -24.363  0.00  0.00     0.196 A 
ATOM      3  N   UNL d   1      31.356  16.297 -23.552  0.00  0.00    -0.161 NA
ATOM      4  C   UNL d   1      31.867  17.437 -24.020  0.00  0.00     0.127 A 
ATOM      5  C   UNL d   1      32.013  16.802 -23.522  0.00  0.00     0.134 A 
ATOM      6  C   UNL d   1      32.382  18.074 -24.155  0.00  0.00     0.106 C 
ATOM      7  N   UNL d   1      32.900  18.710 -24.288  0.00  0.00    -0.191 NA
ATOM      8  N   UNL d   1      30.751  17.857 -24.913  0.00  0.00    -0.126 N 
ENDROOT
BRANCH   1   9
ATOM      9  C   UNL d   1      30.075  16.284 -24.250  0.00  0.00     0.085 A 
ATOM     10  C   UNL d   1      29.435  16.425 -23.750  0.00  0.00     0.019 A 
ATOM     11  C   UNL d   1      28.698  16.074 -23.921  0.00  0.00     0.002 A 
ATOM     12  C   UNL d   1      28.040  16.210 -23.420  0.00  0.00     0.000 C 
ATOM     13  C   UNL d   1      28.617  15.592 -24.583  0.00  0.00     0.000 A 
ATOM     14  C   UNL d   1      29.258  15.453 -25.080  0.00  0.00     0.002 A 
ATOM     15  C   UNL d   1      29.993  15.802 -24.912  0.00  0.00     0.019 A 
ENDBRANCH   1   9
TORSDOF 1
ENDMDL
MODEL 4
REMARK VINA RESULT:      -2.4      1.815      3.488
REMARK  1 active torsions:
REMARK  status: ('A' for Active; 'I' for Inactive)
REMARK    1  A    between atoms: C_6  and  N_1 
ROOT
ATOM      1  N   UNL d   1      32.478  17.735 -23.651  0.00  0.00    -0.210 N 
ATOM      2  C   UNL d   1      32.540  18.275 -24.268  0.00  0.00     0.196 A 
ATOM      3  N   UNL d   1      32.800  18.084 -22.969  0.00  0.00    -0.161 NA
ATOM      4  C   UNL d   1      32.899  18.955 -23.975  0.00  0.00     0.127 A 
ATOM      5  C   UNL d   1      33.060  18.843 -23.178  0.00  0.00     0.134 A 
ATOM      6  C   UNL d   1      33.069  19.640 -24.411  0.00  0.00     0.106 C 
ATOM      7  N   UNL d   1      33.241  20.328 -24.845  0.00  0.00    -0.191 NA
ATOM      8  N   UNL d   1      32.280  18.146 -25.061  0.00  0.00    -0.126 N 
ENDROOT
BRANCH   1   9
ATOM      9  C   UNL d   1      32.159  16.969 -23.656  0.00  0.00     0.085 A 
ATOM     10  C   UNL d   1      31.341  16.875 -23.594  0.00  0.00     0.019 A 
ATOM     11  C   UNL d   1      31.019  16.106 -23.600  0.00  0.00     0.002 A 
ATOM     12  C   UNL d   1      30.189  15.997 -23.537  0.00  0.00     0.000 C 
ATOM     13  C   UNL d   1      31.513  15.453 -23.666  0.00  0.00     0.000 A 
ATOM     14  C   UNL d   1      32.329  15.551 -23.727  0.00  0.00     0.002 A 
ATOM     15  C   UNL d   1      32.654  16.315 -23.722  0.00  0.00     0.019 A 
ENDBRANCH   1   9
TORSDOF 1
ENDMDL
MODEL 5
REMARK VINA RESULT:      -1.9      4.140      5.770
REMARK  1 active torsions:
REMARK  status: ('A' for Active; 'I' for Inactive)
REMARK    1  A    between atoms: C_6  and  N_1 
ROOT
ATOM      1  N   UNL d   1      33.004  21.029 -21.756  0.00  0.00    -0.210 N 
ATOM      2  C   UNL d   1      33.037  20.227 -21.578  0.00  0.00     0.196 A 
ATOM      3  N   UNL d   1      33.074  21.113 -22.580  0.00  0.00    -0.161 NA
ATOM      4  C   UNL d   1      33.126  19.813 -22.284  0.00  0.00     0.127 A 
ATOM      5  C   UNL d   1      33.149  20.353 -22.902  0.00  0.00     0.134 A 
ATOM      6  C   UNL d   1      33.183  18.989 -22.360  0.00  0.00     0.106 C 
ATOM      7  N   UNL d   1      33.241  18.164 -22.440  0.00  0.00    -0.191 NA
ATOM      8  N   UNL d   1      32.987  19.894 -20.804  0.00  0.00    -0.126 N 
ENDROOT
BRANCH   1   9
ATOM      9  C   UNL d   1      32.918  21.676 -21.244  0.00  0.00     0.085 A 
ATOM     10  C   UNL d   1      32.517  22.346 -21.508  0.00  0.00     0.019 A 
ATOM     11  C   UNL d   1      32.429  22.997 -20.994  0.00  0.00     0.002 A 
ATOM     12  C   UNL d   1      32.023  23.684 -21.251  0.00  0.00     0.000 C 
ATOM     13  C   UNL d   1      32.741  22.966 -20.234  0.00  0.00     0.000 A 
ATOM     14  C   UNL d   1      33.142  22.295 -19.974  0.00  0.00     0.002 A 
ATOM     15  C   UNL d   1      33.231  21.645 -20.483  0.00  0.00     0.019 A 
ENDBRANCH   1   9
TORSDOF 1
ENDMDL
MODEL 6
REMARK VINA RESULT:      -1.7      4.231      5.694
REMARK  1 active torsions:
REMARK  status: ('A' for Active; 'I' for Inactive)
REMARK    1  A    between atoms: C_6  and  N_1 
ROOT
ATOM      1  N   UNL d   1      32.983  21.279 -22.102  0.00  0.00    -0.210 N 
ATOM      2  C   UNL d   1      32.658  21.609 -21.422  0.00  0.00     0.196 A 
ATOM      3  N   UNL d   1      33.233  21.899 -22.596  0.00  0.00    -0.161 NA
ATOM      4  C   UNL d   1      32.705  22.428 -21.491  0.00  0.00     0.127 A 
ATOM      5  C   UNL d   1      33.057  22.611 -22.209  0.00  0.00     0.134 A 
ATOM      6  C   UNL d   1      32.441  22.977 -20.928  0.00  0.00     0.106 C 
ATOM      7  N   UNL d   1      32.179  23.531 -20.366  0.00  0.00    -0.191 NA
ATOM      8  N   UNL d   1      32.335  21.176 -20.773  0.00  0.00    -0.126 N 
ENDROOT
BRANCH   1   9
ATOM      9  C   UNL d   1      33.068  20.479 -22.306  0.00  0.00     0.085 A 
ATOM     10  C   UNL d   1      33.108  20.270 -23.103  0.00  0.00     0.019 A 
ATOM     11  C   UNL d   1      33.193  19.467 -23.310  0.00  0.00     0.002 A 
ATOM     12  C   UNL d   1      33.235  19.242 -24.117  0.00  0.00     0.000 C 
ATOM     13  C   UNL d   1      33.237  18.893 -22.723  0.00  0.00     0.000 A 
ATOM     14  C   UNL d   1      33.197  19.106 -21.928  0.00  0.00     0.002 A 
ATOM     15  C   UNL d   1      33.111  19.905 -21.718  0.00  0.00     0.019 A 
ENDBRANCH   1   9
TORSDOF 1
ENDMDL
MODEL 7
REMARK VINA RESULT:      -1.3      2.956      4.243
REMARK  1 active torsions:
REMARK  status: ('A' for Active; 'I' for Inactive)
REMARK    1  A    between atoms: C_6  and  N_1 
ROOT
ATOM      1  N   UNL d   1      33.143  19.433 -22.696  0.00  0.00    -0.210 N 
ATOM      2  C   UNL d   1      33.137  19.160 -23.471  0.00  0.00     0.196 A 
ATOM      3  N   UNL d   1      33.202  18.776 -22.191  0.00  0.00    -0.161 NA
ATOM      4  C   UNL d   1      33.192  18.339 -23.451  0.00  0.00     0.127 A 
ATOM      5  C   UNL d   1      33.232  18.098 -22.668  0.00  0.00     0.134 A 
ATOM      6  C   UNL d   1      33.205  17.837 -24.112  0.00  0.00     0.106 C 
ATOM      7  N   UNL d   1      33.218  17.332 -24.772  0.00  0.00    -0.191 NA
ATOM      8  N   UNL d   1      33.083  19.643 -24.162  0.00  0.00    -0.126 N 
ENDROOT
BRANCH   1   9
ATOM      9  C   UNL d   1      33.099  20.213 -22.416  0.00  0.00     0.085 A 
ATOM     10  C   UNL d   1      32.914  20.345 -21.623  0.00  0.00     0.019 A 
ATOM     11  C   UNL d   1      32.870  21.127 -21.339  0.00  0.00     0.002 A 
ATOM     12  C   UNL d   1      32.681  21.274 -20.535  0.00  0.00     0.000 C 
ATOM     13  C   UNL d   1      33.010  21.758 -21.848  0.00  0.00     0.000 A 
ATOM     14  C   UNL d   1      33.196  21.622 -22.639  0.00  0.00     0.002 A 
ATOM     15  C   UNL d   1      33.240  20.844 -22.925  0.00  0.00     0.019 A 
ENDBRANCH   1   9
TORSDOF 1
ENDMDL
