MODEL 1
REMARK VINA RESULT:      -9.9      0.000      0.000
REMARK  2 active torsions:
REMARK  status: ('A' for Active; 'I' for Inactive)
REMARK    1  A    between atoms: C_10  and  C_3 
REMARK    2  A    between atoms: O_20  and  C_16 
ROOT
ATOM      1  C   UNL d   1      52.635  33.569  53.650  0.00  0.00     0.203 A 
ATOM      2  C   UNL d   1      53.305  33.583  54.139  0.00  0.00     0.101 A 
ATOM      3  C   UNL d   1      52.238  34.275  53.453  0.00  0.00     0.064 A 
ATOM      4  C   UNL d   1      53.580  34.317  54.435  0.00  0.00     0.109 A 
ATOM      5  C   UNL d   1      52.519  35.005  53.753  0.00  0.00     0.126 A 
ATOM      6  C   UNL d   1      53.694  32.886  54.332  0.00  0.00     0.204 A 
ATOM      7  O   UNL d   1      53.190  35.024  54.244  0.00  0.00    -0.305 OA
ATOM      8  C   UNL d   1      54.250  34.330  54.925  0.00  0.00     0.067 A 
ATOM      9  C   UNL d   1      54.358  32.903  54.817  0.00  0.00     0.084 A 
ATOM     10  O   UNL d   1      52.358  32.850  53.354  0.00  0.00    -0.286 OA
ATOM     11  C   UNL d   1      54.635  33.623  55.113  0.00  0.00     0.201 A 
ATOM     12  O   UNL d   1      53.417  32.167  54.036  0.00  0.00    -0.286 OA
ATOM     13  O   UNL d   1      55.299  33.641  55.599  0.00  0.00    -0.286 OA
ENDROOT
BRANCH   3  14
ATOM     14  C   UNL d   1      51.573  34.258  52.967  0.00  0.00     0.005 A 
ATOM     15  C   UNL d   1      50.822  34.226  53.307  0.00  0.00     0.002 A 
ATOM     16  C   UNL d   1      50.157  34.208  52.823  0.00  0.00     0.024 A 
ATOM     17  C   UNL d   1      50.239  34.223  52.007  0.00  0.00     0.094 A 
ATOM     18  C   UNL d   1      51.001  34.255  51.671  0.00  0.00     0.024 A 
ATOM     19  C   UNL d   1      51.666  34.273  52.157  0.00  0.00     0.002 A 
BRANCH  17  20
ATOM     20  O   UNL d   1      49.575  34.205  51.522  0.00  0.00    -0.328 OA
ATOM     21  C   UNL d   1      48.993  34.795  51.588  0.00  0.00     0.181 C 
ENDBRANCH  17  20
ENDBRANCH   3  14
TORSDOF 2
ENDMDL
MODEL 2
REMARK VINA RESULT:      -9.2      1.842      3.462
REMARK  2 active torsions:
REMARK  status: ('A' for Active; 'I' for Inactive)
REMARK    1  A    between atoms: C_10  and  C_3 
REMARK    2  A    between atoms: O_20  and  C_16 
ROOT
ATOM      1  C   UNL d   1      53.228  32.970  54.140  0.00  0.00     0.203 A 
ATOM      2  C   UNL d   1      53.192  33.797  54.200  0.00  0.00     0.101 A 
ATOM      3  C   UNL d   1      52.912  32.579  53.475  0.00  0.00     0.064 A 
ATOM      4  C   UNL d   1      52.834  34.237  53.583  0.00  0.00     0.109 A 
ATOM      5  C   UNL d   1      52.555  33.025  52.862  0.00  0.00     0.126 A 
ATOM      6  C   UNL d   1      53.504  34.181  54.856  0.00  0.00     0.204 A 
ATOM      7  O   UNL d   1      52.517  33.855  52.918  0.00  0.00    -0.305 OA
ATOM      8  C   UNL d   1      52.798  35.064  53.643  0.00  0.00     0.067 A 
ATOM      9  C   UNL d   1      53.467  35.000  54.911  0.00  0.00     0.084 A 
ATOM     10  O   UNL d   1      53.579  32.531  54.743  0.00  0.00    -0.286 OA
ATOM     11  C   UNL d   1      53.115  35.441  54.307  0.00  0.00     0.201 A 
ATOM     12  O   UNL d   1      53.855  33.741  55.459  0.00  0.00    -0.286 OA
ATOM     13  O   UNL d   1      53.078  36.261  54.364  0.00  0.00    -0.286 OA
ENDROOT
BRANCH   3  14
ATOM     14  C   UNL d   1      52.949  31.758  53.419  0.00  0.00     0.005 A 
ATOM     15  C   UNL d   1      52.250  31.318  53.433  0.00  0.00     0.002 A 
ATOM     16  C   UNL d   1      52.286  30.498  53.376  0.00  0.00     0.024 A 
ATOM     17  C   UNL d   1      53.009  30.119  53.307  0.00  0.00     0.094 A 
ATOM     18  C   UNL d   1      53.711  30.570  53.294  0.00  0.00     0.024 A 
ATOM     19  C   UNL d   1      53.674  31.391  53.350  0.00  0.00     0.002 A 
BRANCH  17  20
ATOM     20  O   UNL d   1      53.046  29.299  53.251  0.00  0.00    -0.328 OA
ATOM     21  C   UNL d   1      53.175  28.839  53.930  0.00  0.00     0.181 C 
ENDBRANCH  17  20
ENDBRANCH   3  14
TORSDOF 2
ENDMDL
MODEL 3
REMARK VINA RESULT:      -8.2      2.055      3.468
REMARK  2 active torsions:
REMARK  status: ('A' for Active; 'I' for Inactive)
REMARK    1  A    between atoms: C_10  and  C_3 
REMARK    2  A    between atoms: O_20  and  C_16 
ROOT
ATOM      1  C   UNL d   1      53.094  32.187  53.478  0.00  0.00     0.203 A 
ATOM      2  C   UNL d   1      53.118  31.358  53.482  0.00  0.00     0.101 A 
ATOM      3  C   UNL d   1      53.357  32.622  54.139  0.00  0.00     0.064 A 
ATOM      4  C   UNL d   1      53.410  30.960  54.160  0.00  0.00     0.109 A 
ATOM      5  C   UNL d   1      53.647  32.218  54.813  0.00  0.00     0.126 A 
ATOM      6  C   UNL d   1      52.859  30.931  52.830  0.00  0.00     0.204 A 
ATOM      7  O   UNL d   1      53.673  31.386  54.821  0.00  0.00    -0.305 OA
ATOM      8  C   UNL d   1      53.434  30.130  54.163  0.00  0.00     0.067 A 
ATOM      9  C   UNL d   1      52.884  30.108  52.838  0.00  0.00     0.084 A 
ATOM     10  O   UNL d   1      52.808  32.585  52.815  0.00  0.00    -0.286 OA
ATOM     11  C   UNL d   1      53.170  29.710  53.502  0.00  0.00     0.201 A 
ATOM     12  O   UNL d   1      52.573  31.329  52.167  0.00  0.00    -0.286 OA
ATOM     13  O   UNL d   1      53.196  28.886  53.509  0.00  0.00    -0.286 OA
ENDROOT
BRANCH   3  14
ATOM     14  C   UNL d   1      53.332  33.446  54.132  0.00  0.00     0.005 A 
ATOM     15  C   UNL d   1      52.602  33.830  54.153  0.00  0.00     0.002 A 
ATOM     16  C   UNL d   1      52.575  34.652  54.146  0.00  0.00     0.024 A 
ATOM     17  C   UNL d   1      53.268  35.088  54.118  0.00  0.00     0.094 A 
ATOM     18  C   UNL d   1      54.002  34.693  54.096  0.00  0.00     0.024 A 
ATOM     19  C   UNL d   1      54.028  33.870  54.104  0.00  0.00     0.002 A 
BRANCH  17  20
ATOM     20  O   UNL d   1      53.243  35.911  54.111  0.00  0.00    -0.328 OA
ATOM     21  C   UNL d   1      53.115  36.331  54.816  0.00  0.00     0.181 C 
ENDBRANCH  17  20
ENDBRANCH   3  14
TORSDOF 2
ENDMDL
MODEL 4
REMARK VINA RESULT:      -7.4      1.573      5.114
REMARK  2 active torsions:
REMARK  status: ('A' for Active; 'I' for Inactive)
REMARK    1  A    between atoms: C_10  and  C_3 
REMARK    2  A    between atoms: O_20  and  C_16 
ROOT
ATOM      1  C   UNL d   1      49.441  35.054  52.799  0.00  0.00     0.203 A 
ATOM      2  C   UNL d   1      48.727  35.360  52.508  0.00  0.00     0.101 A 
ATOM      3  C   UNL d   1      49.875  34.495  52.358  0.00  0.00     0.064 A 
ATOM      4  C   UNL d   1      48.444  35.101  51.763  0.00  0.00     0.109 A 
ATOM      5  C   UNL d   1      49.586  34.241  51.614  0.00  0.00     0.126 A 
ATOM      6  C   UNL d   1      48.302  35.911  52.944  0.00  0.00     0.204 A 
ATOM      7  O   UNL d   1      48.870  34.545  51.318  0.00  0.00    -0.305 OA
ATOM      8  C   UNL d   1      47.730  35.407  51.472  0.00  0.00     0.067 A 
ATOM      9  C   UNL d   1      47.594  36.212  52.652  0.00  0.00     0.084 A 
ATOM     10  O   UNL d   1      49.726  35.305  53.532  0.00  0.00    -0.286 OA
ATOM     11  C   UNL d   1      47.309  35.961  51.918  0.00  0.00     0.201 A 
ATOM     12  O   UNL d   1      48.586  36.161  53.677  0.00  0.00    -0.286 OA
ATOM     13  O   UNL d   1      46.601  36.263  51.627  0.00  0.00    -0.286 OA
ENDROOT
BRANCH   3  14
ATOM     14  C   UNL d   1      50.583  34.193  52.650  0.00  0.00     0.005 A 
ATOM     15  C   UNL d   1      50.570  33.531  53.142  0.00  0.00     0.002 A 
ATOM     16  C   UNL d   1      51.278  33.228  53.434  0.00  0.00     0.024 A 
ATOM     17  C   UNL d   1      51.991  33.581  53.239  0.00  0.00     0.094 A 
ATOM     18  C   UNL d   1      51.996  34.250  52.741  0.00  0.00     0.024 A 
ATOM     19  C   UNL d   1      51.288  34.552  52.449  0.00  0.00     0.002 A 
BRANCH  17  20
ATOM     20  O   UNL d   1      52.698  33.279  53.531  0.00  0.00    -0.328 OA
ATOM     21  C   UNL d   1      53.092  32.671  53.125  0.00  0.00     0.181 C 
ENDBRANCH  17  20
ENDBRANCH   3  14
TORSDOF 2
ENDMDL
MODEL 5
REMARK VINA RESULT:      -7.3      1.719      2.389
REMARK  2 active torsions:
REMARK  status: ('A' for Active; 'I' for Inactive)
REMARK    1  A    between atoms: C_10  and  C_3 
REMARK    2  A    between atoms: O_20  and  C_16 
ROOT
ATOM      1  C   UNL d   1      52.191  31.952  53.088  0.00  0.00     0.203 A 
ATOM      2  C   UNL d   1      52.790  31.395  53.225  0.00  0.00     0.101 A 
ATOM      3  C   UNL d   1      52.356  32.769  53.118  0.00  0.00     0.064 A 
ATOM      4  C   UNL d   1      53.566  31.661  53.394  0.00  0.00     0.109 A 
ATOM      5  C   UNL d   1      53.135  33.028  53.287  0.00  0.00     0.126 A 
ATOM      6  C   UNL d   1      52.624  30.591  53.195  0.00  0.00     0.204 A 
ATOM      7  O   UNL d   1      53.739  32.472  53.425  0.00  0.00    -0.305 OA
ATOM      8  C   UNL d   1      54.165  31.103  53.530  0.00  0.00     0.067 A 
ATOM      9  C   UNL d   1      53.221  30.041  53.331  0.00  0.00     0.084 A 
ATOM     10  O   UNL d   1      51.424  31.698  52.921  0.00  0.00    -0.286 OA
ATOM     11  C   UNL d   1      53.989  30.296  53.498  0.00  0.00     0.201 A 
ATOM     12  O   UNL d   1      51.858  30.336  53.028  0.00  0.00    -0.286 OA
ATOM     13  O   UNL d   1      54.585  29.745  53.634  0.00  0.00    -0.286 OA
ENDROOT
BRANCH   3  14
ATOM     14  C   UNL d   1      51.760  33.320  52.982  0.00  0.00     0.005 A 
ATOM     15  C   UNL d   1      51.720  33.704  52.252  0.00  0.00     0.002 A 
ATOM     16  C   UNL d   1      51.124  34.255  52.115  0.00  0.00     0.024 A 
ATOM     17  C   UNL d   1      50.573  34.422  52.698  0.00  0.00     0.094 A 
ATOM     18  C   UNL d   1      50.619  34.030  53.433  0.00  0.00     0.024 A 
ATOM     19  C   UNL d   1      51.216  33.479  53.569  0.00  0.00     0.002 A 
BRANCH  17  20
ATOM     20  O   UNL d   1      49.977  34.973  52.561  0.00  0.00    -0.328 OA
ATOM     21  C   UNL d   1      49.222  34.721  52.325  0.00  0.00     0.181 C 
ENDBRANCH  17  20
ENDBRANCH   3  14
TORSDOF 2
ENDMDL
MODEL 6
REMARK VINA RESULT:      -7.3      1.016      4.485
REMARK  2 active torsions:
REMARK  status: ('A' for Active; 'I' for Inactive)
REMARK    1  A    between atoms: C_10  and  C_3 
REMARK    2  A    between atoms: O_20  and  C_16 
ROOT
ATOM      1  C   UNL d   1      50.940  34.505  53.020  0.00  0.00     0.203 A 
ATOM      2  C   UNL d   1      50.342  34.515  52.445  0.00  0.00     0.101 A 
ATOM      3  C   UNL d   1      51.712  34.255  52.825  0.00  0.00     0.064 A 
ATOM      4  C   UNL d   1      50.521  34.271  51.663  0.00  0.00     0.109 A 
ATOM      5  C   UNL d   1      51.884  34.013  52.041  0.00  0.00     0.126 A 
ATOM      6  C   UNL d   1      49.583  34.761  52.639  0.00  0.00     0.204 A 
ATOM      7  O   UNL d   1      51.286  34.022  51.462  0.00  0.00    -0.305 OA
ATOM      8  C   UNL d   1      49.922  34.282  51.089  0.00  0.00     0.067 A 
ATOM      9  C   UNL d   1      48.992  34.770  52.067  0.00  0.00     0.084 A 
ATOM     10  O   UNL d   1      50.772  34.743  53.791  0.00  0.00    -0.286 OA
ATOM     11  C   UNL d   1      49.161  34.531  51.294  0.00  0.00     0.201 A 
ATOM     12  O   UNL d   1      49.414  34.999  53.411  0.00  0.00    -0.286 OA
ATOM     13  O   UNL d   1      48.570  34.540  50.721  0.00  0.00    -0.286 OA
ENDROOT
BRANCH   3  14
ATOM     14  C   UNL d   1      52.304  34.246  53.398  0.00  0.00     0.005 A 
ATOM     15  C   UNL d   1      52.712  34.942  53.570  0.00  0.00     0.002 A 
ATOM     16  C   UNL d   1      53.304  34.934  54.143  0.00  0.00     0.024 A 
ATOM     17  C   UNL d   1      53.487  34.241  54.540  0.00  0.00     0.094 A 
ATOM     18  C   UNL d   1      53.069  33.542  54.360  0.00  0.00     0.024 A 
ATOM     19  C   UNL d   1      52.478  33.551  53.787  0.00  0.00     0.002 A 
BRANCH  17  20
ATOM     20  O   UNL d   1      54.078  34.232  55.112  0.00  0.00    -0.328 OA
ATOM     21  C   UNL d   1      54.664  33.645  55.098  0.00  0.00     0.181 C 
ENDBRANCH  17  20
ENDBRANCH   3  14
TORSDOF 2
ENDMDL
