MODEL 1
REMARK VINA RESULT:      -6.2      0.000      0.000
REMARK  5 active torsions:
REMARK  status: ('A' for Active; 'I' for Inactive)
REMARK    1  A    between atoms: N_2  and  S_1 
REMARK    2  A    between atoms: C_6  and  S_1 
REMARK       I    between atoms: C_3  and  N_4 
REMARK    3  A    between atoms: C_5  and  C_3 
REMARK    4  A    between atoms: C_11  and  O_13 
REMARK    5  A    between atoms: O_13  and  C_23 
ROOT
ATOM      1  S   UNL d   1     -46.474  13.002  23.007  0.00  0.00     0.271 S 
ATOM      2  O   UNL d   1     -46.112  12.907  22.266  0.00  0.00    -0.200 OA
ATOM      3  O   UNL d   1     -46.040  12.870  23.696  0.00  0.00    -0.200 OA
ENDROOT
BRANCH   1   4
ATOM      4  N   UNL d   1     -45.713  12.788  22.750  0.00  0.00    -0.226 N 
ATOM      5  C   UNL d   1     -45.289  13.289  22.250  0.00  0.00     0.111 A 
ATOM      6  C   UNL d   1     -44.534  13.071  21.998  0.00  0.00     0.103 A 
ATOM      7  N   UNL d   1     -44.208  12.363  22.243  0.00  0.00    -0.267 N 
ATOM      8  C   UNL d   1     -43.450  12.147  21.989  0.00  0.00     0.288 C 
ATOM      9  C   UNL d   1     -44.627  11.855  22.745  0.00  0.00     0.103 A 
ATOM     10  O   UNL d   1     -43.114  11.426  22.236  0.00  0.00    -0.264 OA
ATOM     11  C   UNL d   1     -45.385  12.072  22.999  0.00  0.00     0.111 A 
BRANCH   8  12
ATOM     12  C   UNL d   1     -43.020  12.648  21.486  0.00  0.00     0.156 A 
ATOM     13  O   UNL d   1     -43.192  12.809  20.688  0.00  0.00    -0.300 OA
ATOM     14  C   UNL d   1     -42.619  13.336  20.405  0.00  0.00     0.123 A 
ATOM     15  C   UNL d   1     -42.089  13.505  21.025  0.00  0.00     0.029 A 
ATOM     16  C   UNL d   1     -42.344  13.074  21.694  0.00  0.00     0.032 A 
ENDBRANCH   8  12
ENDBRANCH   1   4
BRANCH   1  17
ATOM     17  C   UNL d   1     -47.269  13.228  23.051  0.00  0.00     0.104 A 
ATOM     18  C   UNL d   1     -47.844  12.676  23.246  0.00  0.00     0.015 A 
ATOM     19  C   UNL d   1     -48.635  12.903  23.289  0.00  0.00     0.025 A 
ATOM     20  C   UNL d   1     -48.846  13.683  23.137  0.00  0.00     0.100 A 
ATOM     21  C   UNL d   1     -48.268  14.236  22.941  0.00  0.00     0.025 A 
ATOM     22  C   UNL d   1     -47.480  14.007  22.899  0.00  0.00     0.015 A 
BRANCH  20  23
ATOM     23  O   UNL d   1     -49.644  13.921  23.178  0.00  0.00    -0.307 OA
BRANCH  23  24
ATOM     24  C   UNL d   1     -50.113  13.891  22.500  0.00  0.00     0.100 A 
ATOM     25  C   UNL d   1     -50.591  14.529  22.303  0.00  0.00     0.023 A 
ATOM     26  C   UNL d   1     -50.599  15.196  22.783  0.00  0.00     0.002 C 
ATOM     27  C   UNL d   1     -51.064  14.505  21.623  0.00  0.00     0.002 A 
ATOM     28  C   UNL d   1     -51.058  13.836  21.139  0.00  0.00     0.000 A 
ATOM     29  C   UNL d   1     -50.576  13.195  21.341  0.00  0.00     0.002 A 
ATOM     30  C   UNL d   1     -50.107  13.225  22.018  0.00  0.00     0.025 A 
ENDBRANCH  23  24
ENDBRANCH  20  23
ENDBRANCH   1  17
TORSDOF 5
ENDMDL
MODEL 2
REMARK VINA RESULT:      -4.5      1.908      6.763
REMARK  5 active torsions:
REMARK  status: ('A' for Active; 'I' for Inactive)
REMARK    1  A    between atoms: N_2  and  S_1 
REMARK    2  A    between atoms: C_6  and  S_1 
REMARK       I    between atoms: C_3  and  N_4 
REMARK    3  A    between atoms: C_5  and  C_3 
REMARK    4  A    between atoms: C_11  and  O_13 
REMARK    5  A    between atoms: O_13  and  C_23 
ROOT
ATOM      1  S   UNL d   1     -43.408  13.127  21.446  0.00  0.00     0.271 S 
ATOM      2  O   UNL d   1     -43.824  13.459  22.084  0.00  0.00    -0.200 OA
ATOM      3  O   UNL d   1     -43.711  12.468  21.055  0.00  0.00    -0.200 OA
ENDROOT
BRANCH   1   4
ATOM      4  N   UNL d   1     -44.122  12.952  21.833  0.00  0.00    -0.226 N 
ATOM      5  C   UNL d   1     -44.785  13.429  21.714  0.00  0.00     0.111 A 
ATOM      6  C   UNL d   1     -45.492  13.250  22.102  0.00  0.00     0.103 A 
ATOM      7  N   UNL d   1     -45.535  12.603  22.600  0.00  0.00    -0.267 N 
ATOM      8  C   UNL d   1     -46.244  12.426  22.986  0.00  0.00     0.288 C 
ATOM      9  C   UNL d   1     -44.874  12.120  22.723  0.00  0.00     0.103 A 
ATOM     10  O   UNL d   1     -46.292  11.767  23.495  0.00  0.00    -0.264 OA
ATOM     11  C   UNL d   1     -44.163  12.298  22.336  0.00  0.00     0.111 A 
BRANCH   8  12
ATOM     12  C   UNL d   1     -46.913  12.902  22.870  0.00  0.00     0.156 A 
ATOM     13  O   UNL d   1     -47.062  13.638  23.230  0.00  0.00    -0.300 OA
ATOM     14  C   UNL d   1     -47.792  13.914  22.954  0.00  0.00     0.123 A 
ATOM     15  C   UNL d   1     -48.101  13.352  22.421  0.00  0.00     0.029 A 
ATOM     16  C   UNL d   1     -47.550  12.726  22.374  0.00  0.00     0.032 A 
ENDBRANCH   8  12
ENDBRANCH   1   4
BRANCH   1  17
ATOM     17  C   UNL d   1     -42.690  13.461  21.207  0.00  0.00     0.104 A 
ATOM     18  C   UNL d   1     -42.626  14.273  21.105  0.00  0.00     0.015 A 
ATOM     19  C   UNL d   1     -41.910  14.603  20.866  0.00  0.00     0.025 A 
ATOM     20  C   UNL d   1     -41.260  14.119  20.730  0.00  0.00     0.100 A 
ATOM     21  C   UNL d   1     -41.325  13.303  20.832  0.00  0.00     0.025 A 
ATOM     22  C   UNL d   1     -42.039  12.977  21.070  0.00  0.00     0.015 A 
BRANCH  20  23
ATOM     23  O   UNL d   1     -40.532  14.445  20.488  0.00  0.00    -0.307 OA
BRANCH  23  24
ATOM     24  C   UNL d   1     -40.423  14.657  19.699  0.00  0.00     0.100 A 
ATOM     25  C   UNL d   1     -40.002  15.336  19.510  0.00  0.00     0.023 A 
ATOM     26  C   UNL d   1     -39.690  15.802  20.111  0.00  0.00     0.002 C 
ATOM     27  C   UNL d   1     -39.890  15.555  18.719  0.00  0.00     0.002 A 
ATOM     28  C   UNL d   1     -40.203  15.089  18.113  0.00  0.00     0.000 A 
ATOM     29  C   UNL d   1     -40.627  14.406  18.307  0.00  0.00     0.002 A 
ATOM     30  C   UNL d   1     -40.735  14.194  19.096  0.00  0.00     0.025 A 
ENDBRANCH  23  24
ENDBRANCH  20  23
ENDBRANCH   1  17
TORSDOF 5
ENDMDL
MODEL 3
REMARK VINA RESULT:      -4.1      1.597      6.629
REMARK  5 active torsions:
REMARK  status: ('A' for Active; 'I' for Inactive)
REMARK    1  A    between atoms: N_2  and  S_1 
REMARK    2  A    between atoms: C_6  and  S_1 
REMARK       I    between atoms: C_3  and  N_4 
REMARK    3  A    between atoms: C_5  and  C_3 
REMARK    4  A    between atoms: C_11  and  O_13 
REMARK    5  A    between atoms: O_13  and  C_23 
ROOT
ATOM      1  S   UNL d   1     -43.848  12.774  21.860  0.00  0.00     0.271 S 
ATOM      2  O   UNL d   1     -44.484  13.306  21.897  0.00  0.00    -0.200 OA
ATOM      3  O   UNL d   1     -43.933  12.011  22.160  0.00  0.00    -0.200 OA
ENDROOT
BRANCH   1   4
ATOM      4  N   UNL d   1     -44.626  12.736  22.149  0.00  0.00    -0.226 N 
ATOM      5  C   UNL d   1     -45.170  13.326  21.952  0.00  0.00     0.111 A 
ATOM      6  C   UNL d   1     -45.942  13.283  22.241  0.00  0.00     0.103 A 
ATOM      7  N   UNL d   1     -46.166  12.660  22.720  0.00  0.00    -0.267 N 
ATOM      8  C   UNL d   1     -46.941  12.619  23.009  0.00  0.00     0.288 C 
ATOM      9  C   UNL d   1     -45.627  12.065  22.922  0.00  0.00     0.103 A 
ATOM     10  O   UNL d   1     -47.174  11.986  23.498  0.00  0.00    -0.264 OA
ATOM     11  C   UNL d   1     -44.851  12.106  22.632  0.00  0.00     0.111 A 
BRANCH   8  12
ATOM     12  C   UNL d   1     -47.490  13.209  22.814  0.00  0.00     0.156 A 
ATOM     13  O   UNL d   1     -47.561  13.955  23.176  0.00  0.00    -0.300 OA
ATOM     14  C   UNL d   1     -48.181  14.361  22.807  0.00  0.00     0.123 A 
ATOM     15  C   UNL d   1     -48.499  13.870  22.213  0.00  0.00     0.029 A 
ATOM     16  C   UNL d   1     -48.065  13.156  22.223  0.00  0.00     0.032 A 
ENDBRANCH   8  12
ENDBRANCH   1   4
BRANCH   1  17
ATOM     17  C   UNL d   1     -43.132  13.013  21.522  0.00  0.00     0.104 A 
ATOM     18  C   UNL d   1     -42.430  12.926  21.939  0.00  0.00     0.015 A 
ATOM     19  C   UNL d   1     -41.718  13.164  21.601  0.00  0.00     0.025 A 
ATOM     20  C   UNL d   1     -41.711  13.489  20.846  0.00  0.00     0.100 A 
ATOM     21  C   UNL d   1     -42.416  13.576  20.428  0.00  0.00     0.025 A 
ATOM     22  C   UNL d   1     -43.124  13.338  20.767  0.00  0.00     0.015 A 
BRANCH  20  23
ATOM     23  O   UNL d   1     -40.994  13.733  20.496  0.00  0.00    -0.307 OA
BRANCH  23  24
ATOM     24  C   UNL d   1     -40.665  14.459  20.707  0.00  0.00     0.100 A 
ATOM     25  C   UNL d   1     -39.850  14.553  20.718  0.00  0.00     0.023 A 
ATOM     26  C   UNL d   1     -39.364  13.921  20.519  0.00  0.00     0.002 C 
ATOM     27  C   UNL d   1     -39.514  15.281  20.929  0.00  0.00     0.002 A 
ATOM     28  C   UNL d   1     -40.000  15.918  21.130  0.00  0.00     0.000 A 
ATOM     29  C   UNL d   1     -40.821  15.819  21.117  0.00  0.00     0.002 A 
ATOM     30  C   UNL d   1     -41.149  15.093  20.906  0.00  0.00     0.025 A 
ENDBRANCH  23  24
ENDBRANCH  20  23
ENDBRANCH   1  17
TORSDOF 5
ENDMDL
MODEL 4
REMARK VINA RESULT:      -4.0      1.760      3.056
REMARK  5 active torsions:
REMARK  status: ('A' for Active; 'I' for Inactive)
REMARK    1  A    between atoms: N_2  and  S_1 
REMARK    2  A    between atoms: C_6  and  S_1 
REMARK       I    between atoms: C_3  and  N_4 
REMARK    3  A    between atoms: C_5  and  C_3 
REMARK    4  A    between atoms: C_11  and  O_13 
REMARK    5  A    between atoms: O_13  and  C_23 
ROOT
ATOM      1  S   UNL d   1     -44.030  12.871  21.852  0.00  0.00     0.271 S 
ATOM      2  O   UNL d   1     -43.756  13.593  21.547  0.00  0.00    -0.200 OA
ATOM      3  O   UNL d   1     -43.549  12.202  21.819  0.00  0.00    -0.200 OA
ENDROOT
BRANCH   1   4
ATOM      4  N   UNL d   1     -43.328  13.122  21.485  0.00  0.00    -0.226 N 
ATOM      5  C   UNL d   1     -42.757  13.531  21.919  0.00  0.00     0.111 A 
ATOM      6  C   UNL d   1     -42.062  13.778  21.548  0.00  0.00     0.103 A 
ATOM      7  N   UNL d   1     -41.940  13.619  20.756  0.00  0.00    -0.267 N 
ATOM      8  C   UNL d   1     -41.242  13.868  20.388  0.00  0.00     0.288 C 
ATOM      9  C   UNL d   1     -42.508  13.210  20.315  0.00  0.00     0.103 A 
ATOM     10  O   UNL d   1     -41.114  13.708  19.580  0.00  0.00    -0.264 OA
ATOM     11  C   UNL d   1     -43.207  12.961  20.684  0.00  0.00     0.111 A 
BRANCH   8  12
ATOM     12  C   UNL d   1     -40.666  14.279  20.820  0.00  0.00     0.156 A 
ATOM     13  O   UNL d   1     -40.080  13.941  21.303  0.00  0.00    -0.300 OA
ATOM     14  C   UNL d   1     -39.627  14.555  21.625  0.00  0.00     0.123 A 
ATOM     15  C   UNL d   1     -39.930  15.279  21.343  0.00  0.00     0.029 A 
ATOM     16  C   UNL d   1     -40.575  15.100  20.843  0.00  0.00     0.032 A 
ENDBRANCH   8  12
ENDBRANCH   1   4
BRANCH   1  17
ATOM     17  C   UNL d   1     -44.785  12.827  22.188  0.00  0.00     0.104 A 
ATOM     18  C   UNL d   1     -45.284  13.478  22.167  0.00  0.00     0.015 A 
ATOM     19  C   UNL d   1     -46.035  13.432  22.503  0.00  0.00     0.025 A 
ATOM     20  C   UNL d   1     -46.283  12.733  22.858  0.00  0.00     0.100 A 
ATOM     21  C   UNL d   1     -45.781  12.080  22.879  0.00  0.00     0.025 A 
ATOM     22  C   UNL d   1     -45.033  12.129  22.544  0.00  0.00     0.015 A 
BRANCH  20  23
ATOM     23  O   UNL d   1     -47.042  12.678  23.200  0.00  0.00    -0.307 OA
BRANCH  23  24
ATOM     24  C   UNL d   1     -47.694  12.526  22.720  0.00  0.00     0.100 A 
ATOM     25  C   UNL d   1     -48.273  11.999  22.968  0.00  0.00     0.023 A 
ATOM     26  C   UNL d   1     -48.199  11.625  23.696  0.00  0.00     0.002 C 
ATOM     27  C   UNL d   1     -48.931  11.842  22.490  0.00  0.00     0.002 A 
ATOM     28  C   UNL d   1     -49.008  12.216  21.757  0.00  0.00     0.000 A 
ATOM     29  C   UNL d   1     -48.423  12.746  21.511  0.00  0.00     0.002 A 
ATOM     30  C   UNL d   1     -47.771  12.898  21.991  0.00  0.00     0.025 A 
ENDBRANCH  23  24
ENDBRANCH  20  23
ENDBRANCH   1  17
TORSDOF 5
ENDMDL
