MODEL 1
REMARK VINA RESULT:      -1.3      0.000      0.000
REMARK  5 active torsions:
REMARK  status: ('A' for Active; 'I' for Inactive)
REMARK    1  A    between atoms: C_11  and  C_8 
REMARK       I    between atoms: N_22  and  C_11 
REMARK    2  A    between atoms: N_14  and  C_24 
REMARK    3  A    between atoms: C_27  and  N_22 
REMARK    4  A    between atoms: C_24  and  C_25 
REMARK    5  A    between atoms: C_25  and  C_27 
ROOT
ATOM      1  C   UNL d   1     -41.963-122.227 -52.830  0.00  0.00     0.154 A 
ATOM      2  C   UNL d   1     -41.890-122.978 -53.163  0.00  0.00     0.093 A 
ATOM      3  N   UNL d   1     -42.038-121.563 -53.324  0.00  0.00    -0.210 NA
ATOM      4  N   UNL d   1     -41.967-122.405 -54.475  0.00  0.00    -0.258 N 
ATOM      5  C   UNL d   1     -41.892-123.066 -53.989  0.00  0.00     0.269 A 
ATOM      6  N   UNL d   1     -41.944-122.307 -52.015  0.00  0.00    -0.285 N 
ATOM      7  C   UNL d   1     -42.040-121.653 -54.143  0.00  0.00     0.152 A 
ATOM      8  C   UNL d   1     -41.860-123.105 -51.837  0.00  0.00     0.124 A 
ATOM      9  C   UNL d   1     -41.826-123.525 -52.555  0.00  0.00     0.030 A 
ATOM     10  C   UNL d   1     -41.968-122.496 -55.293  0.00  0.00     0.084 A 
ATOM     11  C   UNL d   1     -42.114-120.993 -54.628  0.00  0.00     0.038 A 
ATOM     12  C   UNL d   1     -42.043-121.835 -55.779  0.00  0.00     0.018 A 
ATOM     13  C   UNL d   1     -42.116-121.084 -55.447  0.00  0.00     0.005 A 
ATOM     14  O   UNL d   1     -41.819-123.817 -54.322  0.00  0.00    -0.266 OA
ATOM     15  C   UNL d   1     -42.001-121.693 -51.462  0.00  0.00     0.101 C 
ATOM     16  C   UNL d   1     -42.045-121.922 -56.609  0.00  0.00     0.002 C 
ENDROOT
BRANCH   8  17
ATOM     17  C   UNL d   1     -41.816-123.435 -51.082  0.00  0.00     0.295 C 
ATOM     18  O   UNL d   1     -41.124-123.807 -50.834  0.00  0.00    -0.264 OA
ATOM     19  N   UNL d   1     -42.462-123.393 -50.575  0.00  0.00    -0.205 NA
BRANCH  19  20
ATOM     20  C   UNL d   1     -42.418-123.723 -49.820  0.00  0.00     0.104 C 
BRANCH  20  21
ATOM     21  C   UNL d   1     -42.423-123.235 -49.156  0.00  0.00     0.040 C 
BRANCH  21  22
ATOM     22  C   UNL d   1     -42.539-123.563 -48.398  0.00  0.00     0.083 C 
BRANCH  22  23
ATOM     23  N   UNL d   1     -42.335-123.132 -47.727  0.00  0.00    -0.285 N 
ATOM     24  C   UNL d   1     -42.717-122.528 -47.319  0.00  0.00     0.183 A 
ATOM     25  N   UNL d   1     -42.247-122.307 -46.683  0.00  0.00    -0.222 NA
ATOM     26  C   UNL d   1     -41.564-122.772 -46.686  0.00  0.00     0.120 A 
ATOM     27  C   UNL d   1     -41.622-123.285 -47.338  0.00  0.00     0.102 A 
ENDBRANCH  22  23
ENDBRANCH  21  22
ENDBRANCH  20  21
ENDBRANCH  19  20
ENDBRANCH   8  17
TORSDOF 5
ENDMDL
