MODEL 1
REMARK VINA RESULT:      13.3      0.000      0.000
REMARK  4 active torsions:
REMARK  status: ('A' for Active; 'I' for Inactive)
REMARK    1  A    between atoms: N_2  and  S_1 
REMARK    2  A    between atoms: C_4  and  C_3 
REMARK       I    between atoms: N_9  and  C_4 
REMARK    3  A    between atoms: C_15  and  N_9 
REMARK    4  A    between atoms: C_10  and  C_15 
ROOT
ATOM      1  N   UNL d   1      45.506 -14.320  44.532  0.00  0.00    -0.233 N 
ATOM      2  C   UNL d   1      45.546 -15.742  44.578  0.00  0.00     0.076 A 
ATOM      3  C   UNL d   1      45.915 -15.027  44.422  0.00  0.00     0.096 A 
ATOM      4  C   UNL d   1      44.727 -14.333  44.799  0.00  0.00     0.091 A 
ATOM      5  C   UNL d   1      44.765 -15.757  44.845  0.00  0.00     0.008 A 
ATOM      6  C   UNL d   1      44.359 -15.052  44.955  0.00  0.00     0.020 A 
ENDROOT
BRANCH   2   7
ATOM      7  C   UNL d   1      45.959 -16.451  44.466  0.00  0.00     0.281 C 
ATOM      8  O   UNL d   1      46.598 -16.637  44.950  0.00  0.00    -0.265 OA
ATOM      9  N   UNL d   1      45.731 -16.973  43.869  0.00  0.00    -0.206 NA
BRANCH   9  10
ATOM     10  C   UNL d   1      46.142 -17.671  43.764  0.00  0.00     0.102 C 
BRANCH  10  11
ATOM     11  C   UNL d   1      46.201 -17.997  43.009  0.00  0.00     0.021 C 
ATOM     12  C   UNL d   1      46.523 -18.752  42.908  0.00  0.00     0.002 C 
ENDBRANCH  10  11
ENDBRANCH   9  10
ENDBRANCH   2   7
BRANCH   1  13
ATOM     13  S   UNL d   1      45.876 -13.601  44.376  0.00  0.00     0.252 S 
ATOM     14  O   UNL d   1      46.388 -13.979  43.851  0.00  0.00    -0.204 OA
ATOM     15  O   UNL d   1      45.366 -13.224  44.898  0.00  0.00    -0.204 OA
ATOM     16  C   UNL d   1      46.247 -12.881  44.219  0.00  0.00     0.164 C 
ENDBRANCH   1  13
TORSDOF 4
ENDMDL
MODEL 2
REMARK VINA RESULT:      13.3      2.183      4.332
REMARK  4 active torsions:
REMARK  status: ('A' for Active; 'I' for Inactive)
REMARK    1  A    between atoms: N_2  and  S_1 
REMARK    2  A    between atoms: C_4  and  C_3 
REMARK       I    between atoms: N_9  and  C_4 
REMARK    3  A    between atoms: C_15  and  N_9 
REMARK    4  A    between atoms: C_10  and  C_15 
ROOT
ATOM      1  N   UNL d   1      46.325 -18.815  43.504  0.00  0.00    -0.233 N 
ATOM      2  C   UNL d   1      45.952 -17.461  43.733  0.00  0.00     0.076 A 
ATOM      3  C   UNL d   1      46.104 -18.212  44.021  0.00  0.00     0.096 A 
ATOM      4  C   UNL d   1      46.393 -18.661  42.698  0.00  0.00     0.091 A 
ATOM      5  C   UNL d   1      46.019 -17.304  42.925  0.00  0.00     0.008 A 
ATOM      6  C   UNL d   1      46.239 -17.906  42.411  0.00  0.00     0.020 A 
ENDROOT
BRANCH   2   7
ATOM      7  C   UNL d   1      45.730 -16.857  44.254  0.00  0.00     0.281 C 
ATOM      8  O   UNL d   1      45.254 -17.027  44.904  0.00  0.00    -0.265 OA
ATOM      9  N   UNL d   1      45.984 -16.083  44.123  0.00  0.00    -0.206 NA
BRANCH   9  10
ATOM     10  C   UNL d   1      45.762 -15.492  44.641  0.00  0.00     0.102 C 
BRANCH  10  11
ATOM     11  C   UNL d   1      46.159 -14.769  44.624  0.00  0.00     0.021 C 
ATOM     12  C   UNL d   1      45.738 -14.069  44.495  0.00  0.00     0.002 C 
ENDBRANCH  10  11
ENDBRANCH   9  10
ENDBRANCH   2   7
BRANCH   1  13
ATOM     13  S   UNL d   1      46.479 -19.571  43.794  0.00  0.00     0.252 S 
ATOM     14  O   UNL d   1      46.344 -19.886  43.044  0.00  0.00    -0.204 OA
ATOM     15  O   UNL d   1      46.613 -19.257  44.542  0.00  0.00    -0.204 OA
ATOM     16  C   UNL d   1      46.632 -20.328  44.085  0.00  0.00     0.164 C 
ENDBRANCH   1  13
TORSDOF 4
ENDMDL
MODEL 3
REMARK VINA RESULT:      13.4      7.360      8.004
REMARK  4 active torsions:
REMARK  status: ('A' for Active; 'I' for Inactive)
REMARK    1  A    between atoms: N_2  and  S_1 
REMARK    2  A    between atoms: C_4  and  C_3 
REMARK       I    between atoms: N_9  and  C_4 
REMARK    3  A    between atoms: C_15  and  N_9 
REMARK    4  A    between atoms: C_10  and  C_15 
ROOT
ATOM      1  N   UNL d   1      45.572 -14.964  36.959  0.00  0.00    -0.233 N 
ATOM      2  C   UNL d   1      44.228 -15.428  36.887  0.00  0.00     0.076 A 
ATOM      3  C   UNL d   1      44.761 -14.814  36.985  0.00  0.00     0.096 A 
ATOM      4  C   UNL d   1      45.844 -15.731  36.836  0.00  0.00     0.091 A 
ATOM      5  C   UNL d   1      44.499 -16.198  36.763  0.00  0.00     0.008 A 
ATOM      6  C   UNL d   1      45.306 -16.346  36.738  0.00  0.00     0.020 A 
ENDROOT
BRANCH   2   7
ATOM      7  C   UNL d   1      43.415 -15.275  36.913  0.00  0.00     0.281 C 
ATOM      8  O   UNL d   1      43.128 -14.638  37.349  0.00  0.00    -0.265 OA
ATOM      9  N   UNL d   1      42.889 -15.760  36.502  0.00  0.00    -0.206 NA
BRANCH   9  10
ATOM     10  C   UNL d   1      42.087 -15.604  36.531  0.00  0.00     0.102 C 
BRANCH  10  11
ATOM     11  C   UNL d   1      41.551 -16.203  36.348  0.00  0.00     0.021 C 
ATOM     12  C   UNL d   1      40.741 -16.042  36.333  0.00  0.00     0.002 C 
ENDBRANCH  10  11
ENDBRANCH   9  10
ENDBRANCH   2   7
BRANCH   1  13
ATOM     13  S   UNL d   1      46.108 -14.347  37.058  0.00  0.00     0.252 S 
ATOM     14  O   UNL d   1      45.661 -14.059  37.689  0.00  0.00    -0.204 OA
ATOM     15  O   UNL d   1      46.554 -14.634  36.429  0.00  0.00    -0.204 OA
ATOM     16  C   UNL d   1      46.646 -13.729  37.156  0.00  0.00     0.164 C 
ENDBRANCH   1  13
TORSDOF 4
ENDMDL
