MODEL 1
REMARK VINA RESULT:      66.6      0.000      0.000
REMARK  4 active torsions:
REMARK  status: ('A' for Active; 'I' for Inactive)
REMARK    1  A    between atoms: C_14  and  N_1 
REMARK    2  A    between atoms: S_12  and  C_2 
REMARK    3  A    between atoms: C_9  and  C_17 
REMARK    4  A    between atoms: C_17  and  S_12 
ROOT
ATOM      1  S   UNL d   1     -52.810  24.554  35.065  0.00  0.00    -0.045 SA
ENDROOT
BRANCH   1   2
ATOM      2  C   UNL d   1     -53.008  24.057  34.444  0.00  0.00     0.219 A 
ATOM      3  N   UNL d   1     -52.552  23.917  33.784  0.00  0.00    -0.186 N 
ATOM      4  N   UNL d   1     -52.951  23.391  33.308  0.00  0.00    -0.038 NA
ATOM      5  N   UNL d   1     -53.659  23.202  33.673  0.00  0.00    -0.022 NA
ATOM      6  N   UNL d   1     -53.693  23.621  34.386  0.00  0.00    -0.101 NA
BRANCH   3   7
ATOM      7  C   UNL d   1     -51.816  24.249  33.626  0.00  0.00     0.087 A 
ATOM      8  C   UNL d   1     -51.152  23.767  33.560  0.00  0.00     0.019 A 
ATOM      9  C   UNL d   1     -50.420  24.097  33.402  0.00  0.00     0.002 A 
ATOM     10  C   UNL d   1     -50.344  24.913  33.308  0.00  0.00     0.000 A 
ATOM     11  C   UNL d   1     -51.008  25.394  33.374  0.00  0.00     0.002 A 
ATOM     12  C   UNL d   1     -51.744  25.062  33.532  0.00  0.00     0.019 A 
ENDBRANCH   3   7
ENDBRANCH   1   2
BRANCH   1  13
ATOM     13  C   UNL d   1     -53.292  24.596  35.705  0.00  0.00     0.059 C 
BRANCH  13  14
ATOM     14  C   UNL d   1     -53.012  24.927  36.394  0.00  0.00     0.107 A 
ATOM     15  N   UNL d   1     -52.601  25.654  36.445  0.00  0.00    -0.226 NA
ATOM     16  C   UNL d   1     -52.419  25.776  37.273  0.00  0.00     0.148 A 
ATOM     17  C   UNL d   1     -52.016  26.402  37.665  0.00  0.00     0.037 A 
ATOM     18  N   UNL d   1     -52.720  25.127  37.708  0.00  0.00    -0.289 N 
ATOM     19  C   UNL d   1     -51.923  26.364  38.495  0.00  0.00     0.005 A 
ATOM     20  C   UNL d   1     -52.225  25.714  38.929  0.00  0.00     0.018 A 
ATOM     21  C   UNL d   1     -52.622  25.098  38.537  0.00  0.00     0.066 A 
ATOM     22  C   UNL d   1     -52.920  24.455  38.967  0.00  0.00     0.019 C 
ATOM     23  C   UNL d   1     -53.093  24.594  37.153  0.00  0.00     0.101 A 
ENDBRANCH  13  14
ENDBRANCH   1  13
TORSDOF 4
ENDMDL
MODEL 2
REMARK VINA RESULT:      67.6      5.558      7.201
REMARK  4 active torsions:
REMARK  status: ('A' for Active; 'I' for Inactive)
REMARK    1  A    between atoms: C_14  and  N_1 
REMARK    2  A    between atoms: S_12  and  C_2 
REMARK    3  A    between atoms: C_9  and  C_17 
REMARK    4  A    between atoms: C_17  and  S_12 
ROOT
ATOM      1  S   UNL d   1     -48.139  29.505  34.827  0.00  0.00    -0.045 SA
ENDROOT
BRANCH   1   2
ATOM      2  C   UNL d   1     -47.723  29.872  35.431  0.00  0.00     0.219 A 
ATOM      3  N   UNL d   1     -47.511  30.658  35.451  0.00  0.00    -0.186 N 
ATOM      4  N   UNL d   1     -47.108  30.793  36.145  0.00  0.00    -0.038 NA
ATOM      5  N   UNL d   1     -47.067  30.087  36.559  0.00  0.00    -0.022 NA
ATOM      6  N   UNL d   1     -47.454  29.511  36.109  0.00  0.00    -0.101 NA
BRANCH   3   7
ATOM      7  C   UNL d   1     -47.676  31.219  34.872  0.00  0.00     0.087 A 
ATOM      8  C   UNL d   1     -48.446  31.489  34.768  0.00  0.00     0.019 A 
ATOM      9  C   UNL d   1     -48.610  32.047  34.192  0.00  0.00     0.002 A 
ATOM     10  C   UNL d   1     -48.005  32.340  33.714  0.00  0.00     0.000 A 
ATOM     11  C   UNL d   1     -47.236  32.070  33.820  0.00  0.00     0.002 A 
ATOM     12  C   UNL d   1     -47.071  31.509  34.399  0.00  0.00     0.019 A 
ENDBRANCH   3   7
ENDBRANCH   1   2
BRANCH   1  13
ATOM     13  C   UNL d   1     -48.132  28.705  34.775  0.00  0.00     0.059 C 
BRANCH  13  14
ATOM     14  C   UNL d   1     -48.766  28.321  34.438  0.00  0.00     0.107 A 
ATOM     15  N   UNL d   1     -49.495  28.682  34.240  0.00  0.00    -0.226 NA
ATOM     16  C   UNL d   1     -49.990  28.068  33.903  0.00  0.00     0.148 A 
ATOM     17  C   UNL d   1     -50.775  28.093  33.604  0.00  0.00     0.037 A 
ATOM     18  N   UNL d   1     -49.556  27.351  33.903  0.00  0.00    -0.289 N 
ATOM     19  C   UNL d   1     -51.114  27.389  33.306  0.00  0.00     0.005 A 
ATOM     20  C   UNL d   1     -50.681  26.672  33.306  0.00  0.00     0.018 A 
ATOM     21  C   UNL d   1     -49.905  26.653  33.603  0.00  0.00     0.066 A 
ATOM     22  C   UNL d   1     -49.476  25.944  33.602  0.00  0.00     0.019 C 
ATOM     23  C   UNL d   1     -48.788  27.513  34.239  0.00  0.00     0.101 A 
ENDBRANCH  13  14
ENDBRANCH   1  13
TORSDOF 4
ENDMDL
MODEL 3
REMARK VINA RESULT:      68.4      3.432      4.684
REMARK  4 active torsions:
REMARK  status: ('A' for Active; 'I' for Inactive)
REMARK    1  A    between atoms: C_14  and  N_1 
REMARK    2  A    between atoms: S_12  and  C_2 
REMARK    3  A    between atoms: C_9  and  C_17 
REMARK    4  A    between atoms: C_17  and  S_12 
ROOT
ATOM      1  S   UNL d   1     -50.148  26.418  33.676  0.00  0.00    -0.045 SA
ENDROOT
BRANCH   1   2
ATOM      2  C   UNL d   1     -50.167  25.609  33.545  0.00  0.00     0.219 A 
ATOM      3  N   UNL d   1     -50.837  25.166  33.411  0.00  0.00    -0.186 N 
ATOM      4  N   UNL d   1     -50.611  24.391  33.309  0.00  0.00    -0.038 NA
ATOM      5  N   UNL d   1     -49.796  24.350  33.381  0.00  0.00    -0.022 NA
ATOM      6  N   UNL d   1     -49.520  25.116  33.529  0.00  0.00    -0.101 NA
BRANCH   3   7
ATOM      7  C   UNL d   1     -51.609  25.451  33.382  0.00  0.00     0.087 A 
ATOM      8  C   UNL d   1     -52.240  24.927  33.335  0.00  0.00     0.019 A 
ATOM      9  C   UNL d   1     -53.008  25.210  33.307  0.00  0.00     0.002 A 
ATOM     10  C   UNL d   1     -53.151  26.022  33.325  0.00  0.00     0.000 A 
ATOM     11  C   UNL d   1     -52.518  26.546  33.371  0.00  0.00     0.002 A 
ATOM     12  C   UNL d   1     -51.747  26.261  33.400  0.00  0.00     0.019 A 
ENDBRANCH   3   7
ENDBRANCH   1   2
BRANCH   1  13
ATOM     13  C   UNL d   1     -49.552  26.853  33.361  0.00  0.00     0.059 C 
BRANCH  13  14
ATOM     14  C   UNL d   1     -49.212  27.443  33.806  0.00  0.00     0.107 A 
ATOM     15  N   UNL d   1     -48.703  27.320  34.459  0.00  0.00    -0.226 NA
ATOM     16  C   UNL d   1     -48.484  28.096  34.750  0.00  0.00     0.148 A 
ATOM     17  C   UNL d   1     -47.989  28.327  35.389  0.00  0.00     0.037 A 
ATOM     18  N   UNL d   1     -48.860  28.673  34.273  0.00  0.00    -0.289 N 
ATOM     19  C   UNL d   1     -47.880  29.143  35.539  0.00  0.00     0.005 A 
ATOM     20  C   UNL d   1     -48.257  29.720  35.062  0.00  0.00     0.018 A 
ATOM     21  C   UNL d   1     -48.745  29.485  34.431  0.00  0.00     0.066 A 
ATOM     22  C   UNL d   1     -49.118  30.055  33.959  0.00  0.00     0.019 C 
ATOM     23  C   UNL d   1     -49.317  28.260  33.681  0.00  0.00     0.101 A 
ENDBRANCH  13  14
ENDBRANCH   1  13
TORSDOF 4
ENDMDL
