MODEL 1
REMARK VINA RESULT:      -8.6      0.000      0.000
REMARK  3 active torsions:
REMARK  status: ('A' for Active; 'I' for Inactive)
REMARK    1  A    between atoms: N_4  and  C_1 
REMARK       I    between atoms: C_8  and  N_4 
REMARK    2  A    between atoms: C_16  and  C_8 
REMARK       I    between atoms: C_9  and  N_10 
REMARK    3  A    between atoms: N_10  and  C_11 
ROOT
ATOM      1  C   UNL d   1      53.239  32.901  53.235  0.00  0.00     0.197 A 
ATOM      2  N   UNL d   1      52.722  32.459  52.818  0.00  0.00    -0.221 NA
ATOM      3  S   UNL d   1      53.712  32.443  53.677  0.00  0.00    -0.047 SA
ATOM      4  C   UNL d   1      53.509  31.682  53.554  0.00  0.00     0.051 A 
ATOM      5  C   UNL d   1      52.886  31.692  53.013  0.00  0.00     0.090 A 
ATOM      6  C   UNL d   1      53.782  30.965  53.841  0.00  0.00     0.027 A 
ATOM      7  C   UNL d   1      53.447  30.259  53.600  0.00  0.00     0.085 A 
ATOM      8  C   UNL d   1      52.532  30.985  52.756  0.00  0.00     0.021 A 
ATOM      9  C   UNL d   1      52.824  30.269  53.059  0.00  0.00     0.021 A 
ENDROOT
BRANCH   1  10
ATOM     10  N   UNL d   1      53.257  33.731  53.192  0.00  0.00    -0.183 NA
ATOM     11  C   UNL d   1      52.877  34.216  53.748  0.00  0.00     0.281 C 
ATOM     12  O   UNL d   1      52.463  33.850  54.369  0.00  0.00    -0.265 OA
BRANCH  11  13
ATOM     13  C   UNL d   1      52.907  35.015  53.688  0.00  0.00     0.063 C 
ATOM     14  C   UNL d   1      52.848  35.497  54.363  0.00  0.00     0.005 C 
ENDBRANCH  11  13
ENDBRANCH   1  10
BRANCH   7  15
ATOM     15  N   UNL d   1      53.719  29.514  53.888  0.00  0.00    -0.208 NA
ATOM     16  C   UNL d   1      53.279  29.134  54.465  0.00  0.00     0.279 C 
ATOM     17  O   UNL d   1      52.581  29.472  54.763  0.00  0.00    -0.265 OA
ATOM     18  C   UNL d   1      53.518  28.399  54.771  0.00  0.00     0.068 C 
ENDBRANCH   7  15
TORSDOF 3
ENDMDL
MODEL 2
REMARK VINA RESULT:      -7.9      0.901      4.179
REMARK  3 active torsions:
REMARK  status: ('A' for Active; 'I' for Inactive)
REMARK    1  A    between atoms: N_4  and  C_1 
REMARK       I    between atoms: C_8  and  N_4 
REMARK    2  A    between atoms: C_16  and  C_8 
REMARK       I    between atoms: C_9  and  N_10 
REMARK    3  A    between atoms: N_10  and  C_11 
ROOT
ATOM      1  C   UNL d   1      52.976  31.568  53.096  0.00  0.00     0.197 A 
ATOM      2  N   UNL d   1      52.274  31.892  52.897  0.00  0.00    -0.221 NA
ATOM      3  S   UNL d   1      53.487  32.125  53.337  0.00  0.00    -0.047 SA
ATOM      4  C   UNL d   1      53.122  32.833  53.299  0.00  0.00     0.051 A 
ATOM      5  C   UNL d   1      52.358  32.686  53.022  0.00  0.00     0.090 A 
ATOM      6  C   UNL d   1      53.348  33.601  53.469  0.00  0.00     0.027 A 
ATOM      7  C   UNL d   1      52.829  34.226  53.369  0.00  0.00     0.085 A 
ATOM      8  C   UNL d   1      51.817  33.307  52.914  0.00  0.00     0.021 A 
ATOM      9  C   UNL d   1      52.066  34.079  53.093  0.00  0.00     0.021 A 
ENDROOT
BRANCH   1  10
ATOM     10  N   UNL d   1      53.125  30.752  53.047  0.00  0.00    -0.183 NA
ATOM     11  C   UNL d   1      53.240  30.277  53.718  0.00  0.00     0.281 C 
ATOM     12  O   UNL d   1      53.205  30.639  54.465  0.00  0.00    -0.265 OA
BRANCH  11  13
ATOM     13  C   UNL d   1      53.382  29.491  53.647  0.00  0.00     0.063 C 
ATOM     14  C   UNL d   1      53.357  28.991  54.311  0.00  0.00     0.005 C 
ENDBRANCH  11  13
ENDBRANCH   1  10
BRANCH   7  15
ATOM     15  N   UNL d   1      53.050  35.022  53.541  0.00  0.00    -0.208 NA
ATOM     16  C   UNL d   1      53.019  35.277  54.319  0.00  0.00     0.279 C 
ATOM     17  O   UNL d   1      52.777  34.766  54.928  0.00  0.00    -0.265 OA
ATOM     18  C   UNL d   1      53.229  36.055  54.523  0.00  0.00     0.068 C 
ENDBRANCH   7  15
TORSDOF 3
ENDMDL
MODEL 3
REMARK VINA RESULT:      -7.9      1.303      4.171
REMARK  3 active torsions:
REMARK  status: ('A' for Active; 'I' for Inactive)
REMARK    1  A    between atoms: N_4  and  C_1 
REMARK       I    between atoms: C_8  and  N_4 
REMARK    2  A    between atoms: C_16  and  C_8 
REMARK       I    between atoms: C_9  and  N_10 
REMARK    3  A    between atoms: N_10  and  C_11 
ROOT
ATOM      1  C   UNL d   1      53.407  30.953  53.500  0.00  0.00     0.197 A 
ATOM      2  N   UNL d   1      53.682  31.589  53.897  0.00  0.00    -0.221 NA
ATOM      3  S   UNL d   1      52.821  31.159  53.006  0.00  0.00    -0.047 SA
ATOM      4  C   UNL d   1      52.702  31.944  53.073  0.00  0.00     0.051 A 
ATOM      5  C   UNL d   1      53.243  32.215  53.634  0.00  0.00     0.090 A 
ATOM      6  C   UNL d   1      52.189  32.475  52.719  0.00  0.00     0.027 A 
ATOM      7  C   UNL d   1      52.205  33.270  52.913  0.00  0.00     0.085 A 
ATOM      8  C   UNL d   1      53.275  33.018  53.844  0.00  0.00     0.021 A 
ATOM      9  C   UNL d   1      52.746  33.541  53.474  0.00  0.00     0.021 A 
ENDROOT
BRANCH   1  10
ATOM     10  N   UNL d   1      53.712  30.188  53.610  0.00  0.00    -0.183 NA
ATOM     11  C   UNL d   1      53.314  29.605  54.047  0.00  0.00     0.281 C 
ATOM     12  O   UNL d   1      52.581  29.802  54.386  0.00  0.00    -0.265 OA
BRANCH  11  13
ATOM     13  C   UNL d   1      53.628  28.873  54.140  0.00  0.00     0.063 C 
ATOM     14  C   UNL d   1      53.504  28.442  54.840  0.00  0.00     0.005 C 
ENDBRANCH  11  13
ENDBRANCH   1  10
BRANCH   7  15
ATOM     15  N   UNL d   1      51.681  33.828  52.556  0.00  0.00    -0.208 NA
ATOM     16  C   UNL d   1      50.932  33.920  52.874  0.00  0.00     0.279 C 
ATOM     17  O   UNL d   1      50.689  33.475  53.533  0.00  0.00    -0.265 OA
ATOM     18  C   UNL d   1      50.392  34.460  52.547  0.00  0.00     0.068 C 
ENDBRANCH   7  15
TORSDOF 3
ENDMDL
MODEL 4
REMARK VINA RESULT:      -7.4      2.381      3.379
REMARK  3 active torsions:
REMARK  status: ('A' for Active; 'I' for Inactive)
REMARK    1  A    between atoms: N_4  and  C_1 
REMARK       I    between atoms: C_8  and  N_4 
REMARK    2  A    between atoms: C_16  and  C_8 
REMARK       I    between atoms: C_9  and  N_10 
REMARK    3  A    between atoms: N_10  and  C_11 
ROOT
ATOM      1  C   UNL d   1      51.167  33.757  53.102  0.00  0.00     0.197 A 
ATOM      2  N   UNL d   1      51.439  33.011  53.015  0.00  0.00    -0.221 NA
ATOM      3  S   UNL d   1      51.733  34.233  53.388  0.00  0.00    -0.047 SA
ATOM      4  C   UNL d   1      52.394  33.801  53.494  0.00  0.00     0.051 A 
ATOM      5  C   UNL d   1      52.210  33.032  53.259  0.00  0.00     0.090 A 
ATOM      6  C   UNL d   1      53.148  33.969  53.767  0.00  0.00     0.027 A 
ATOM      7  C   UNL d   1      53.720  33.386  53.810  0.00  0.00     0.085 A 
ATOM      8  C   UNL d   1      52.778  32.427  53.295  0.00  0.00     0.021 A 
ATOM      9  C   UNL d   1      53.536  32.617  53.575  0.00  0.00     0.021 A 
ENDROOT
BRANCH   1  10
ATOM     10  N   UNL d   1      50.388  33.977  52.911  0.00  0.00    -0.183 NA
ATOM     11  C   UNL d   1      50.177  34.272  52.164  0.00  0.00     0.281 C 
ATOM     12  O   UNL d   1      50.773  34.348  51.590  0.00  0.00    -0.265 OA
BRANCH  11  13
ATOM     13  C   UNL d   1      49.420  34.477  52.001  0.00  0.00     0.063 C 
ATOM     14  C   UNL d   1      49.152  34.536  51.217  0.00  0.00     0.005 C 
ENDBRANCH  11  13
ENDBRANCH   1  10
BRANCH   7  15
ATOM     15  N   UNL d   1      54.501  33.546  54.090  0.00  0.00    -0.208 NA
ATOM     16  C   UNL d   1      54.647  33.494  54.894  0.00  0.00     0.279 C 
ATOM     17  O   UNL d   1      54.041  33.288  55.426  0.00  0.00    -0.265 OA
ATOM     18  C   UNL d   1      55.403  33.644  55.203  0.00  0.00     0.068 C 
ENDBRANCH   7  15
TORSDOF 3
ENDMDL
MODEL 5
REMARK VINA RESULT:      -7.0      2.796      4.176
REMARK  3 active torsions:
REMARK  status: ('A' for Active; 'I' for Inactive)
REMARK    1  A    between atoms: N_4  and  C_1 
REMARK       I    between atoms: C_8  and  N_4 
REMARK    2  A    between atoms: C_16  and  C_8 
REMARK       I    between atoms: C_9  and  N_10 
REMARK    3  A    between atoms: N_10  and  C_11 
ROOT
ATOM      1  C   UNL d   1      53.058  33.663  53.581  0.00  0.00     0.197 A 
ATOM      2  N   UNL d   1      52.574  33.029  53.573  0.00  0.00    -0.221 NA
ATOM      3  S   UNL d   1      52.663  34.324  53.389  0.00  0.00    -0.047 SA
ATOM      4  C   UNL d   1      51.903  34.129  53.250  0.00  0.00     0.051 A 
ATOM      5  C   UNL d   1      51.846  33.314  53.366  0.00  0.00     0.090 A 
ATOM      6  C   UNL d   1      51.236  34.553  53.035  0.00  0.00     0.027 A 
ATOM      7  C   UNL d   1      50.515  34.180  52.932  0.00  0.00     0.085 A 
ATOM      8  C   UNL d   1      51.122  32.918  53.266  0.00  0.00     0.021 A 
ATOM      9  C   UNL d   1      50.458  33.365  53.048  0.00  0.00     0.021 A 
ENDROOT
BRANCH   1  10
ATOM     10  N   UNL d   1      53.866  33.610  53.770  0.00  0.00    -0.183 NA
ATOM     11  C   UNL d   1      54.148  33.661  54.549  0.00  0.00     0.281 C 
ATOM     12  O   UNL d   1      53.594  33.771  55.160  0.00  0.00    -0.265 OA
BRANCH  11  13
ATOM     13  C   UNL d   1      54.932  33.607  54.709  0.00  0.00     0.063 C 
ATOM     14  C   UNL d   1      55.220  33.729  55.479  0.00  0.00     0.005 C 
ENDBRANCH  11  13
ENDBRANCH   1  10
BRANCH   7  15
ATOM     15  N   UNL d   1      49.820  34.605  52.710  0.00  0.00    -0.208 NA
ATOM     16  C   UNL d   1      49.589  34.594  51.924  0.00  0.00     0.279 C 
ATOM     17  O   UNL d   1      50.027  34.174  51.356  0.00  0.00    -0.265 OA
ATOM     18  C   UNL d   1      48.910  35.001  51.672  0.00  0.00     0.068 C 
ENDBRANCH   7  15
TORSDOF 3
ENDMDL
