MODEL 1
REMARK VINA RESULT:      -5.4      0.000      0.000
REMARK  5 active torsions:
REMARK  status: ('A' for Active; 'I' for Inactive)
REMARK       I    between atoms: C_3  and  N_1 
REMARK    1  A    between atoms: C_5  and  N_1 
REMARK    2  A    between atoms: C_2  and  C_3 
REMARK    3  A    between atoms: N_10  and  C_5 
REMARK    4  A    between atoms: C_13  and  N_10 
REMARK    5  A    between atoms: C_14  and  C_13 
ROOT
ATOM      1  C   UNL d   1     -41.442-122.295 -51.451  0.00  0.00     0.224 C 
ATOM      2  S   UNL d   1     -41.123-121.535 -51.386  0.00  0.00    -0.037 SA
ENDROOT
BRANCH   1   3
ATOM      3  N   UNL d   1     -41.593-122.735 -50.772  0.00  0.00    -0.177 NA
ATOM      4  C   UNL d   1     -42.253-122.554 -50.304  0.00  0.00     0.304 C 
ATOM      5  O   UNL d   1     -42.751-121.944 -50.515  0.00  0.00    -0.263 OA
BRANCH   4   6
ATOM      6  C   UNL d   1     -42.404-122.994 -49.626  0.00  0.00     0.158 A 
ATOM      7  O   UNL d   1     -41.890-123.102 -48.992  0.00  0.00    -0.296 OA
ATOM      8  C   UNL d   1     -42.254-123.572 -48.438  0.00  0.00     0.134 A 
ATOM      9 BR   UNL d   1     -41.938-123.816 -47.723  0.00  0.00    -0.022 Br
ATOM     10  C   UNL d   1     -43.000-123.762 -48.722  0.00  0.00     0.034 A 
ATOM     11  C   UNL d   1     -43.095-123.401 -49.464  0.00  0.00     0.032 A 
ENDBRANCH   4   6
ENDBRANCH   1   3
BRANCH   1  12
ATOM     12  N   UNL d   1     -41.605-122.604 -52.194  0.00  0.00    -0.216 NA
BRANCH  12  13
ATOM     13  C   UNL d   1     -41.219-122.306 -52.846  0.00  0.00     0.101 C 
BRANCH  13  14
ATOM     14  C   UNL d   1     -41.422-122.575 -53.595  0.00  0.00     0.019 A 
ATOM     15  C   UNL d   1     -41.232-123.342 -53.829  0.00  0.00     0.002 A 
ATOM     16  C   UNL d   1     -41.439-123.606 -54.582  0.00  0.00     0.000 A 
ATOM     17  C   UNL d   1     -41.837-123.101 -55.102  0.00  0.00     0.000 A 
ATOM     18  C   UNL d   1     -42.028-122.333 -54.868  0.00  0.00     0.000 A 
ATOM     19  C   UNL d   1     -41.820-122.070 -54.115  0.00  0.00     0.002 A 
ENDBRANCH  13  14
ENDBRANCH  12  13
ENDBRANCH   1  12
TORSDOF 5
ENDMDL
