MODEL 1
REMARK VINA RESULT:      -7.7      0.000      0.000
REMARK  5 active torsions:
REMARK  status: ('A' for Active; 'I' for Inactive)
REMARK    1  A    between atoms: C_10  and  C_3 
REMARK    2  A    between atoms: C_11  and  N_5 
REMARK    3  A    between atoms: O_17  and  C_10 
REMARK    4  A    between atoms: C_22  and  O_17 
REMARK    5  A    between atoms: O_21  and  C_18 
ROOT
ATOM      1  C   UNL d   1     -49.203  12.432  23.212  0.00  0.00     0.086 A 
ATOM      2  C   UNL d   1     -49.683  13.096  23.160  0.00  0.00     0.038 A 
ATOM      3  C   UNL d   1     -49.372  13.836  22.956  0.00  0.00     0.165 A 
ATOM      4  C   UNL d   1     -48.391  12.502  23.058  0.00  0.00     0.282 A 
ATOM      5  N   UNL d   1     -48.071  13.232  22.854  0.00  0.00    -0.194 N 
ATOM      6  N   UNL d   1     -48.561  13.897  22.804  0.00  0.00    -0.157 NA
ATOM      7  C   UNL d   1     -49.677  11.788  23.424  0.00  0.00     0.137 A 
ATOM      8  C   UNL d   1     -50.456  12.872  23.338  0.00  0.00     0.039 A 
ATOM      9  S   UNL d   1     -50.449  12.062  23.502  0.00  0.00    -0.066 SA
ATOM     10  O   UNL d   1     -47.903  11.844  23.107  0.00  0.00    -0.265 OA
ATOM     11  N   UNL d   1     -49.417  11.010  23.537  0.00  0.00    -0.141 N 
ENDROOT
BRANCH   5  12
ATOM     12  C   UNL d   1     -47.264  13.301  22.701  0.00  0.00     0.086 A 
ATOM     13  C   UNL d   1     -46.954  13.047  21.975  0.00  0.00     0.021 A 
ATOM     14  C   UNL d   1     -46.145  13.119  21.827  0.00  0.00     0.026 A 
ATOM     15  C   UNL d   1     -45.646  13.442  22.397  0.00  0.00     0.094 A 
ATOM     16  C   UNL d   1     -45.956  13.696  23.123  0.00  0.00     0.026 A 
ATOM     17  C   UNL d   1     -46.769  13.623  23.269  0.00  0.00     0.021 A 
BRANCH  15  18
ATOM     18  O   UNL d   1     -44.842  13.510  22.242  0.00  0.00    -0.328 OA
ATOM     19  C   UNL d   1     -44.458  12.931  21.786  0.00  0.00     0.181 C 
ENDBRANCH  15  18
ENDBRANCH   5  12
BRANCH   3  20
ATOM     20  C   UNL d   1     -49.858  14.498  22.905  0.00  0.00     0.320 C 
ATOM     21  O   UNL d   1     -50.234  14.683  22.189  0.00  0.00    -0.257 OA
BRANCH  20  22
ATOM     22  O   UNL d   1     -49.971  14.980  23.568  0.00  0.00    -0.270 OA
BRANCH  22  23
ATOM     23  C   UNL d   1     -50.259  15.744  23.476  0.00  0.00     0.126 C 
ATOM     24  C   UNL d   1     -51.042  15.922  23.665  0.00  0.00     0.029 C 
ENDBRANCH  22  23
ENDBRANCH  20  22
ENDBRANCH   3  20
TORSDOF 5
ENDMDL
MODEL 2
REMARK VINA RESULT:      -7.3      1.733      2.578
REMARK  5 active torsions:
REMARK  status: ('A' for Active; 'I' for Inactive)
REMARK    1  A    between atoms: C_10  and  C_3 
REMARK    2  A    between atoms: C_11  and  N_5 
REMARK    3  A    between atoms: O_17  and  C_10 
REMARK    4  A    between atoms: C_22  and  O_17 
REMARK    5  A    between atoms: O_21  and  C_18 
ROOT
ATOM      1  C   UNL d   1     -47.955  14.283  22.530  0.00  0.00     0.086 A 
ATOM      2  C   UNL d   1     -48.681  13.906  22.462  0.00  0.00     0.038 A 
ATOM      3  C   UNL d   1     -48.747  13.084  22.534  0.00  0.00     0.165 A 
ATOM      4  C   UNL d   1     -47.273  13.833  22.674  0.00  0.00     0.282 A 
ATOM      5  N   UNL d   1     -47.326  13.016  22.748  0.00  0.00    -0.194 N 
ATOM      6  N   UNL d   1     -48.061  12.643  22.678  0.00  0.00    -0.157 NA
ATOM      7  C   UNL d   1     -48.077  15.095  22.431  0.00  0.00     0.137 A 
ATOM      8  C   UNL d   1     -49.259  14.477  22.321  0.00  0.00     0.039 A 
ATOM      9  S   UNL d   1     -48.881  15.213  22.303  0.00  0.00    -0.066 SA
ATOM     10  O   UNL d   1     -46.542  14.201  22.743  0.00  0.00    -0.265 OA
ATOM     11  N   UNL d   1     -47.492  15.681  22.458  0.00  0.00    -0.141 N 
ENDROOT
BRANCH   5  12
ATOM     12  C   UNL d   1     -46.648  12.569  22.890  0.00  0.00     0.086 A 
ATOM     13  C   UNL d   1     -45.985  12.648  22.398  0.00  0.00     0.021 A 
ATOM     14  C   UNL d   1     -45.309  12.198  22.546  0.00  0.00     0.026 A 
ATOM     15  C   UNL d   1     -45.291  11.672  23.179  0.00  0.00     0.094 A 
ATOM     16  C   UNL d   1     -45.954  11.593  23.671  0.00  0.00     0.026 A 
ATOM     17  C   UNL d   1     -46.632  12.046  23.521  0.00  0.00     0.021 A 
BRANCH  15  18
ATOM     18  O   UNL d   1     -44.614  11.227  23.319  0.00  0.00    -0.328 OA
ATOM     19  C   UNL d   1     -44.677  10.480  23.678  0.00  0.00     0.181 C 
ENDBRANCH  15  18
ENDBRANCH   5  12
BRANCH   3  20
ATOM     20  C   UNL d   1     -49.477  12.711  22.466  0.00  0.00     0.320 C 
ATOM     21  O   UNL d   1     -49.866  12.693  21.733  0.00  0.00    -0.257 OA
BRANCH  20  22
ATOM     22  O   UNL d   1     -49.823  12.353  23.127  0.00  0.00    -0.270 OA
BRANCH  22  23
ATOM     23  C   UNL d   1     -50.535  11.952  23.051  0.00  0.00     0.126 C 
ATOM     24  C   UNL d   1     -51.039  11.867  23.698  0.00  0.00     0.029 C 
ENDBRANCH  22  23
ENDBRANCH  20  22
ENDBRANCH   3  20
TORSDOF 5
ENDMDL
MODEL 3
REMARK VINA RESULT:      -6.8      9.173     10.287
REMARK  5 active torsions:
REMARK  status: ('A' for Active; 'I' for Inactive)
REMARK    1  A    between atoms: C_10  and  C_3 
REMARK    2  A    between atoms: C_11  and  N_5 
REMARK    3  A    between atoms: O_17  and  C_10 
REMARK    4  A    between atoms: C_22  and  O_17 
REMARK    5  A    between atoms: O_21  and  C_18 
ROOT
ATOM      1  C   UNL d   1     -38.920  13.873  18.177  0.00  0.00     0.086 A 
ATOM      2  C   UNL d   1     -39.260  14.290  17.557  0.00  0.00     0.038 A 
ATOM      3  C   UNL d   1     -39.696  14.981  17.693  0.00  0.00     0.165 A 
ATOM      4  C   UNL d   1     -39.014  14.147  18.954  0.00  0.00     0.282 A 
ATOM      5  N   UNL d   1     -39.445  14.832  19.101  0.00  0.00    -0.194 N 
ATOM      6  N   UNL d   1     -39.785  15.248  18.472  0.00  0.00    -0.157 NA
ATOM      7  C   UNL d   1     -38.527  13.218  17.860  0.00  0.00     0.137 A 
ATOM      8  C   UNL d   1     -39.083  13.901  16.852  0.00  0.00     0.039 A 
ATOM      9  S   UNL d   1     -38.629  13.237  17.044  0.00  0.00    -0.066 SA
ATOM     10  O   UNL d   1     -38.677  13.736  19.580  0.00  0.00    -0.265 OA
ATOM     11  N   UNL d   1     -38.108  12.648  18.290  0.00  0.00    -0.141 N 
ENDROOT
BRANCH   5  12
ATOM     12  C   UNL d   1     -39.538  15.104  19.873  0.00  0.00     0.086 A 
ATOM     13  C   UNL d   1     -39.002  15.653  20.190  0.00  0.00     0.021 A 
ATOM     14  C   UNL d   1     -39.100  15.922  20.964  0.00  0.00     0.026 A 
ATOM     15  C   UNL d   1     -39.727  15.649  21.422  0.00  0.00     0.094 A 
ATOM     16  C   UNL d   1     -40.263  15.100  21.106  0.00  0.00     0.026 A 
ATOM     17  C   UNL d   1     -40.162  14.831  20.328  0.00  0.00     0.021 A 
BRANCH  15  18
ATOM     18  O   UNL d   1     -39.818  15.922  22.192  0.00  0.00    -0.328 OA
ATOM     19  C   UNL d   1     -39.170  15.915  22.712  0.00  0.00     0.181 C 
ENDBRANCH  15  18
ENDBRANCH   5  12
BRANCH   3  20
ATOM     20  C   UNL d   1     -40.035  15.396  17.068  0.00  0.00     0.320 C 
ATOM     21  O   UNL d   1     -39.560  15.861  16.573  0.00  0.00    -0.257 OA
BRANCH  20  22
ATOM     22  O   UNL d   1     -40.851  15.350  16.935  0.00  0.00    -0.270 OA
BRANCH  22  23
ATOM     23  C   UNL d   1     -41.226  15.922  16.480  0.00  0.00     0.126 C 
ATOM     24  C   UNL d   1     -42.043  15.902  16.372  0.00  0.00     0.029 C 
ENDBRANCH  22  23
ENDBRANCH  20  22
ENDBRANCH   3  20
TORSDOF 5
ENDMDL
MODEL 4
REMARK VINA RESULT:      -6.1      7.231      9.667
REMARK  5 active torsions:
REMARK  status: ('A' for Active; 'I' for Inactive)
REMARK    1  A    between atoms: C_10  and  C_3 
REMARK    2  A    between atoms: C_11  and  N_5 
REMARK    3  A    between atoms: O_17  and  C_10 
REMARK    4  A    between atoms: C_22  and  O_17 
REMARK    5  A    between atoms: O_21  and  C_18 
ROOT
ATOM      1  C   UNL d   1     -39.198  15.333  20.592  0.00  0.00     0.086 A 
ATOM      2  C   UNL d   1     -39.938  15.180  20.912  0.00  0.00     0.038 A 
ATOM      3  C   UNL d   1     -40.538  14.832  20.460  0.00  0.00     0.165 A 
ATOM      4  C   UNL d   1     -39.047  15.136  19.800  0.00  0.00     0.282 A 
ATOM      5  N   UNL d   1     -39.635  14.789  19.342  0.00  0.00    -0.194 N 
ATOM      6  N   UNL d   1     -40.379  14.638  19.671  0.00  0.00    -0.157 NA
ATOM      7  C   UNL d   1     -38.730  15.679  21.180  0.00  0.00     0.137 A 
ATOM      8  C   UNL d   1     -39.937  15.428  21.699  0.00  0.00     0.039 A 
ATOM      9  S   UNL d   1     -39.188  15.736  21.861  0.00  0.00    -0.066 SA
ATOM     10  O   UNL d   1     -38.309  15.285  19.471  0.00  0.00    -0.265 OA
ATOM     11  N   UNL d   1     -37.943  15.922  21.093  0.00  0.00    -0.141 N 
ENDROOT
BRANCH   5  12
ATOM     12  C   UNL d   1     -39.485  14.593  18.556  0.00  0.00     0.086 A 
ATOM     13  C   UNL d   1     -39.188  13.842  18.362  0.00  0.00     0.021 A 
ATOM     14  C   UNL d   1     -39.040  13.652  17.573  0.00  0.00     0.026 A 
ATOM     15  C   UNL d   1     -39.184  14.202  16.979  0.00  0.00     0.094 A 
ATOM     16  C   UNL d   1     -39.480  14.952  17.172  0.00  0.00     0.026 A 
ATOM     17  C   UNL d   1     -39.629  15.142  17.965  0.00  0.00     0.021 A 
BRANCH  15  18
ATOM     18  O   UNL d   1     -39.033  14.004  16.195  0.00  0.00    -0.328 OA
ATOM     19  C   UNL d   1     -38.296  13.686  15.983  0.00  0.00     0.181 C 
ENDBRANCH  15  18
ENDBRANCH   5  12
BRANCH   3  20
ATOM     20  C   UNL d   1     -41.278  14.680  20.786  0.00  0.00     0.320 C 
ATOM     21  O   UNL d   1     -41.793  15.308  20.956  0.00  0.00    -0.257 OA
BRANCH  20  22
ATOM     22  O   UNL d   1     -41.509  13.902  20.945  0.00  0.00    -0.270 OA
BRANCH  22  23
ATOM     23  C   UNL d   1     -42.304  13.722  21.048  0.00  0.00     0.126 C 
ATOM     24  C   UNL d   1     -42.537  12.963  21.270  0.00  0.00     0.029 C 
ENDBRANCH  22  23
ENDBRANCH  20  22
ENDBRANCH   3  20
TORSDOF 5
ENDMDL
MODEL 5
REMARK VINA RESULT:      -5.7      8.829     10.413
REMARK  5 active torsions:
REMARK  status: ('A' for Active; 'I' for Inactive)
REMARK    1  A    between atoms: C_10  and  C_3 
REMARK    2  A    between atoms: C_11  and  N_5 
REMARK    3  A    between atoms: O_17  and  C_10 
REMARK    4  A    between atoms: C_22  and  O_17 
REMARK    5  A    between atoms: O_21  and  C_18 
ROOT
ATOM      1  C   UNL d   1     -40.136  15.213  19.828  0.00  0.00     0.086 A 
ATOM      2  C   UNL d   1     -39.721  15.025  20.511  0.00  0.00     0.038 A 
ATOM      3  C   UNL d   1     -39.007  14.607  20.478  0.00  0.00     0.165 A 
ATOM      4  C   UNL d   1     -39.837  14.979  19.091  0.00  0.00     0.282 A 
ATOM      5  N   UNL d   1     -39.129  14.563  19.045  0.00  0.00    -0.194 N 
ATOM      6  N   UNL d   1     -38.716  14.377  19.737  0.00  0.00    -0.157 NA
ATOM      7  C   UNL d   1     -40.818  15.627  20.048  0.00  0.00     0.137 A 
ATOM      8  C   UNL d   1     -40.137  15.320  21.159  0.00  0.00     0.039 A 
ATOM      9  S   UNL d   1     -40.816  15.692  20.868  0.00  0.00    -0.066 SA
ATOM     10  O   UNL d   1     -40.246  15.162  18.402  0.00  0.00    -0.265 OA
ATOM     11  N   UNL d   1     -41.394  15.922  19.532  0.00  0.00    -0.141 N 
ENDROOT
BRANCH   5  12
ATOM     12  C   UNL d   1     -38.832  14.331  18.312  0.00  0.00     0.086 A 
ATOM     13  C   UNL d   1     -38.252  14.789  17.934  0.00  0.00     0.021 A 
ATOM     14  C   UNL d   1     -37.958  14.551  17.200  0.00  0.00     0.026 A 
ATOM     15  C   UNL d   1     -38.238  13.864  16.843  0.00  0.00     0.094 A 
ATOM     16  C   UNL d   1     -38.817  13.407  17.221  0.00  0.00     0.026 A 
ATOM     17  C   UNL d   1     -39.111  13.647  17.958  0.00  0.00     0.021 A 
BRANCH  15  18
ATOM     18  O   UNL d   1     -37.940  13.635  16.112  0.00  0.00    -0.328 OA
ATOM     19  C   UNL d   1     -38.317  13.884  15.415  0.00  0.00     0.181 C 
ENDBRANCH  15  18
ENDBRANCH   5  12
BRANCH   3  20
ATOM     20  C   UNL d   1     -38.594  14.421  21.165  0.00  0.00     0.320 C 
ATOM     21  O   UNL d   1     -38.196  15.016  21.583  0.00  0.00    -0.257 OA
BRANCH  20  22
ATOM     22  O   UNL d   1     -38.576  13.640  21.439  0.00  0.00    -0.270 OA
BRANCH  22  23
ATOM     23  C   UNL d   1     -37.954  13.384  21.910  0.00  0.00     0.126 C 
ATOM     24  C   UNL d   1     -38.100  12.990  22.619  0.00  0.00     0.029 C 
ENDBRANCH  22  23
ENDBRANCH  20  22
ENDBRANCH   3  20
TORSDOF 5
ENDMDL
