MODEL 1
REMARK VINA RESULT:      14.2      0.000      0.000
REMARK  1 active torsions:
REMARK  status: ('A' for Active; 'I' for Inactive)
REMARK    1  A    between atoms: C_2  and  N_1 
ROOT
ATOM      1  C   UNL d   1      58.028  49.699  50.429  0.00  0.00     0.127 A 
ATOM      2  C   UNL d   1      58.451  49.698  51.141  0.00  0.00     0.025 A 
ATOM      3  C   UNL d   1      59.273  49.698  51.133  0.00  0.00     0.021 A 
ATOM      4  N   UNL d   1      60.513  49.698  51.836  0.00  0.00    -0.242 NA
ATOM      5  C   UNL d   1      59.678  49.700  50.417  0.00  0.00     0.003 A 
ATOM      6  C   UNL d   1      58.444  49.701  49.713  0.00  0.00     0.024 A 
ATOM      7  C   UNL d   1      59.265  49.701  49.705  0.00  0.00     0.002 A 
ATOM      8  C   UNL d   1      59.692  49.697  51.844  0.00  0.00     0.099 A 
ATOM      9  C   UNL d   1      60.919  49.700  51.120  0.00  0.00     0.099 A 
ATOM     10  C   UNL d   1      60.509  49.701  50.401  0.00  0.00     0.021 A 
ENDROOT
BRANCH   1  11
ATOM     11  N   UNL d   1      57.204  49.698  50.434  0.00  0.00    -0.114 N 
ATOM     12  O   UNL d   1      56.798  49.699  51.150  0.00  0.00    -0.532 OA
ATOM     13  O   UNL d   1      56.781  49.696  49.722  0.00  0.00    -0.532 OA
ENDBRANCH   1  11
TORSDOF 1
ENDMDL
MODEL 2
REMARK VINA RESULT:      15.6      1.743      3.006
REMARK  1 active torsions:
REMARK  status: ('A' for Active; 'I' for Inactive)
REMARK    1  A    between atoms: C_2  and  N_1 
ROOT
ATOM      1  C   UNL d   1      59.594  49.639  50.885  0.00  0.00     0.127 A 
ATOM      2  C   UNL d   1      59.118  49.633  50.207  0.00  0.00     0.025 A 
ATOM      3  C   UNL d   1      58.300  49.654  50.276  0.00  0.00     0.021 A 
ATOM      4  N   UNL d   1      57.010  49.669  49.669  0.00  0.00    -0.242 NA
ATOM      5  C   UNL d   1      57.950  49.683  51.020  0.00  0.00     0.003 A 
ATOM      6  C   UNL d   1      59.234  49.668  51.630  0.00  0.00     0.024 A 
ATOM      7  C   UNL d   1      58.417  49.690  51.699  0.00  0.00     0.002 A 
ATOM      8  C   UNL d   1      57.828  49.647  49.600  0.00  0.00     0.099 A 
ATOM      9  C   UNL d   1      56.660  49.697  50.414  0.00  0.00     0.099 A 
ATOM     10  C   UNL d   1      57.123  49.705  51.100  0.00  0.00     0.021 A 
ENDROOT
BRANCH   1  11
ATOM     11  N   UNL d   1      60.416  49.618  50.817  0.00  0.00    -0.114 N 
ATOM     12  O   UNL d   1      60.881  49.543  51.492  0.00  0.00    -0.532 OA
ATOM     13  O   UNL d   1      60.776  49.671  50.074  0.00  0.00    -0.532 OA
ENDBRANCH   1  11
TORSDOF 1
ENDMDL
