MODEL 1
REMARK VINA RESULT:      -3.9      0.000      0.000
REMARK  6 active torsions:
REMARK  status: ('A' for Active; 'I' for Inactive)
REMARK    1  A    between atoms: C_10  and  N_1 
REMARK    2  A    between atoms: S_8  and  C_2 
REMARK       I    between atoms: N_7  and  C_9 
REMARK    3  A    between atoms: C_13  and  S_8 
REMARK    4  A    between atoms: C_9  and  C_13 
REMARK    5  A    between atoms: C_21  and  N_11 
REMARK    6  A    between atoms: C_25  and  C_21 
ROOT
ATOM      1  N   UNL d   1     -49.197  13.546  23.021  0.00  0.00    -0.254 N 
ATOM      2  C   UNL d   1     -48.435  13.244  23.020  0.00  0.00     0.182 A 
ATOM      3  C   UNL d   1     -49.835  13.049  23.191  0.00  0.00     0.268 A 
ATOM      4  N   UNL d   1     -48.311  12.445  23.189  0.00  0.00    -0.222 NA
ATOM      5  C   UNL d   1     -49.710  12.250  23.361  0.00  0.00     0.074 A 
ATOM      6  C   UNL d   1     -48.947  11.948  23.360  0.00  0.00     0.088 A 
ATOM      7  O   UNL d   1     -50.596  13.351  23.192  0.00  0.00    -0.267 OA
ATOM      8  C   UNL d   1     -50.341  11.769  23.528  0.00  0.00     0.006 A 
ATOM      9  C   UNL d   1     -48.817  11.166  23.526  0.00  0.00     0.019 A 
ATOM     10  C   UNL d   1     -50.216  10.971  23.697  0.00  0.00     0.000 A 
ATOM     11  C   UNL d   1     -49.454  10.669  23.696  0.00  0.00     0.002 A 
ENDROOT
BRANCH   2  12
ATOM     12  S   UNL d   1     -47.782  13.734  22.849  0.00  0.00    -0.044 SA
BRANCH  12  13
ATOM     13  C   UNL d   1     -47.031  13.380  22.760  0.00  0.00     0.099 C 
BRANCH  13  14
ATOM     14  C   UNL d   1     -46.362  13.875  22.702  0.00  0.00     0.272 C 
ATOM     15  N   UNL d   1     -45.680  13.580  22.322  0.00  0.00    -0.269 N 
ATOM     16  C   UNL d   1     -45.031  14.073  22.271  0.00  0.00     0.102 A 
ATOM     17  C   UNL d   1     -45.668  12.821  22.013  0.00  0.00     0.102 A 
ATOM     18  C   UNL d   1     -44.349  13.777  21.891  0.00  0.00     0.100 A 
ATOM     19  N   UNL d   1     -44.337  13.018  21.582  0.00  0.00    -0.297 N 
ATOM     20  C   UNL d   1     -45.006  12.538  21.646  0.00  0.00     0.100 A 
ATOM     21  O   UNL d   1     -46.374  14.634  23.011  0.00  0.00    -0.266 OA
BRANCH  19  22
ATOM     22  C   UNL d   1     -43.635  12.742  21.202  0.00  0.00     0.126 C 
BRANCH  22  23
ATOM     23  C   UNL d   1     -42.911  12.871  21.535  0.00  0.00     0.253 C 
ATOM     24  O   UNL d   1     -42.233  12.569  21.172  0.00  0.00    -0.281 OA
ENDBRANCH  22  23
ENDBRANCH  19  22
ENDBRANCH  13  14
ENDBRANCH  12  13
ENDBRANCH   2  12
BRANCH   1  25
ATOM     25  C   UNL d   1     -49.315  14.328  22.854  0.00  0.00     0.069 A 
ATOM     26  C   UNL d   1     -49.380  14.873  23.479  0.00  0.00     0.018 A 
ATOM     27  C   UNL d   1     -49.500  15.674  23.313  0.00  0.00     0.002 A 
ATOM     28  C   UNL d   1     -49.554  15.922  22.528  0.00  0.00     0.000 A 
ATOM     29  C   UNL d   1     -49.489  15.385  21.913  0.00  0.00     0.002 A 
ATOM     30  C   UNL d   1     -49.369  14.582  22.075  0.00  0.00     0.018 A 
ENDBRANCH   1  25
TORSDOF 6
ENDMDL
MODEL 2
REMARK VINA RESULT:      -2.6      3.731      8.373
REMARK  6 active torsions:
REMARK  status: ('A' for Active; 'I' for Inactive)
REMARK    1  A    between atoms: C_10  and  N_1 
REMARK    2  A    between atoms: S_8  and  C_2 
REMARK       I    between atoms: N_7  and  C_9 
REMARK    3  A    between atoms: C_13  and  S_8 
REMARK    4  A    between atoms: C_9  and  C_13 
REMARK    5  A    between atoms: C_21  and  N_11 
REMARK    6  A    between atoms: C_25  and  C_21 
ROOT
ATOM      1  N   UNL d   1     -40.034  14.996  20.188  0.00  0.00    -0.254 N 
ATOM      2  C   UNL d   1     -40.652  14.463  20.106  0.00  0.00     0.182 A 
ATOM      3  C   UNL d   1     -39.706  15.349  19.517  0.00  0.00     0.268 A 
ATOM      4  N   UNL d   1     -40.941  14.284  19.354  0.00  0.00    -0.222 NA
ATOM      5  C   UNL d   1     -39.996  15.170  18.765  0.00  0.00     0.074 A 
ATOM      6  C   UNL d   1     -40.614  14.637  18.684  0.00  0.00     0.088 A 
ATOM      7  O   UNL d   1     -39.089  15.881  19.598  0.00  0.00    -0.267 OA
ATOM      8  C   UNL d   1     -39.669  15.521  18.111  0.00  0.00     0.006 A 
ATOM      9  C   UNL d   1     -40.904  14.456  17.948  0.00  0.00     0.019 A 
ATOM     10  C   UNL d   1     -39.959  15.342  17.359  0.00  0.00     0.000 A 
ATOM     11  C   UNL d   1     -40.577  14.809  17.277  0.00  0.00     0.002 A 
ENDROOT
BRANCH   2  12
ATOM     12  S   UNL d   1     -40.992  14.099  20.776  0.00  0.00    -0.044 SA
BRANCH  12  13
ATOM     13  C   UNL d   1     -41.753  13.764  20.702  0.00  0.00     0.099 C 
BRANCH  13  14
ATOM     14  C   UNL d   1     -41.963  13.138  21.213  0.00  0.00     0.272 C 
ATOM     15  N   UNL d   1     -42.769  13.035  21.404  0.00  0.00    -0.269 N 
ATOM     16  C   UNL d   1     -42.965  12.420  21.905  0.00  0.00     0.102 A 
ATOM     17  C   UNL d   1     -43.341  13.536  21.097  0.00  0.00     0.102 A 
ATOM     18  C   UNL d   1     -43.770  12.317  22.096  0.00  0.00     0.100 A 
ATOM     19  N   UNL d   1     -44.342  12.818  21.789  0.00  0.00    -0.297 N 
ATOM     20  C   UNL d   1     -44.120  13.433  21.284  0.00  0.00     0.100 A 
ATOM     21  O   UNL d   1     -41.392  12.637  21.519  0.00  0.00    -0.266 OA
BRANCH  19  22
ATOM     22  C   UNL d   1     -45.151  12.694  21.998  0.00  0.00     0.126 C 
BRANCH  22  23
ATOM     23  C   UNL d   1     -45.635  13.321  22.152  0.00  0.00     0.253 C 
ATOM     24  O   UNL d   1     -46.404  13.188  22.422  0.00  0.00    -0.281 OA
ENDBRANCH  22  23
ENDBRANCH  19  22
ENDBRANCH  13  14
ENDBRANCH  12  13
ENDBRANCH   2  12
BRANCH   1  25
ATOM     25  C   UNL d   1     -39.753  15.168  20.926  0.00  0.00     0.069 A 
ATOM     26  C   UNL d   1     -39.097  14.750  21.222  0.00  0.00     0.018 A 
ATOM     27  C   UNL d   1     -38.807  14.923  21.975  0.00  0.00     0.002 A 
ATOM     28  C   UNL d   1     -39.173  15.510  22.426  0.00  0.00     0.000 A 
ATOM     29  C   UNL d   1     -39.818  15.922  22.135  0.00  0.00     0.002 A 
ATOM     30  C   UNL d   1     -40.111  15.751  21.380  0.00  0.00     0.018 A 
ENDBRANCH   1  25
TORSDOF 6
ENDMDL
MODEL 3
REMARK VINA RESULT:      -1.8      3.616      8.257
REMARK  6 active torsions:
REMARK  status: ('A' for Active; 'I' for Inactive)
REMARK    1  A    between atoms: C_10  and  N_1 
REMARK    2  A    between atoms: S_8  and  C_2 
REMARK       I    between atoms: N_7  and  C_9 
REMARK    3  A    between atoms: C_13  and  S_8 
REMARK    4  A    between atoms: C_9  and  C_13 
REMARK    5  A    between atoms: C_21  and  N_11 
REMARK    6  A    between atoms: C_25  and  C_21 
ROOT
ATOM      1  N   UNL d   1     -40.204  14.947  20.084  0.00  0.00    -0.254 N 
ATOM      2  C   UNL d   1     -40.645  14.555  20.654  0.00  0.00     0.182 A 
ATOM      3  C   UNL d   1     -39.543  15.388  20.310  0.00  0.00     0.268 A 
ATOM      4  N   UNL d   1     -40.424  14.604  21.448  0.00  0.00    -0.222 NA
ATOM      5  C   UNL d   1     -39.323  15.437  21.104  0.00  0.00     0.074 A 
ATOM      6  C   UNL d   1     -39.764  15.045  21.674  0.00  0.00     0.088 A 
ATOM      7  O   UNL d   1     -39.103  15.780  19.741  0.00  0.00    -0.267 OA
ATOM      8  C   UNL d   1     -38.673  15.873  21.317  0.00  0.00     0.006 A 
ATOM      9  C   UNL d   1     -39.554  15.089  22.455  0.00  0.00     0.019 A 
ATOM     10  C   UNL d   1     -38.453  15.922  22.112  0.00  0.00     0.000 A 
ATOM     11  C   UNL d   1     -38.894  15.530  22.681  0.00  0.00     0.002 A 
ENDROOT
BRANCH   2  12
ATOM     12  S   UNL d   1     -41.315  14.105  20.440  0.00  0.00    -0.044 SA
BRANCH  12  13
ATOM     13  C   UNL d   1     -41.914  13.989  21.010  0.00  0.00     0.099 C 
BRANCH  13  14
ATOM     14  C   UNL d   1     -42.331  13.267  21.006  0.00  0.00     0.272 C 
ATOM     15  N   UNL d   1     -43.116  13.260  21.291  0.00  0.00    -0.269 N 
ATOM     16  C   UNL d   1     -43.516  12.548  21.283  0.00  0.00     0.102 A 
ATOM     17  C   UNL d   1     -43.468  13.947  21.567  0.00  0.00     0.102 A 
ATOM     18  C   UNL d   1     -44.300  12.541  21.567  0.00  0.00     0.100 A 
ATOM     19  N   UNL d   1     -44.653  13.228  21.844  0.00  0.00    -0.297 N 
ATOM     20  C   UNL d   1     -44.228  13.936  21.841  0.00  0.00     0.100 A 
ATOM     21  O   UNL d   1     -41.979  12.581  20.730  0.00  0.00    -0.266 OA
BRANCH  19  22
ATOM     22  C   UNL d   1     -45.449  13.195  22.126  0.00  0.00     0.126 C 
BRANCH  22  23
ATOM     23  C   UNL d   1     -45.754  13.804  22.559  0.00  0.00     0.253 C 
ATOM     24  O   UNL d   1     -46.535  13.766  22.824  0.00  0.00    -0.281 OA
ENDBRANCH  22  23
ENDBRANCH  19  22
ENDBRANCH  13  14
ENDBRANCH  12  13
ENDBRANCH   2  12
BRANCH   1  25
ATOM     25  C   UNL d   1     -40.423  14.896  19.308  0.00  0.00     0.069 A 
ATOM     26  C   UNL d   1     -40.138  14.268  18.843  0.00  0.00     0.018 A 
ATOM     27  C   UNL d   1     -40.359  14.212  18.049  0.00  0.00     0.002 A 
ATOM     28  C   UNL d   1     -40.861  14.782  17.727  0.00  0.00     0.000 A 
ATOM     29  C   UNL d   1     -41.142  15.400  18.185  0.00  0.00     0.002 A 
ATOM     30  C   UNL d   1     -40.922  15.460  18.981  0.00  0.00     0.018 A 
ENDBRANCH   1  25
TORSDOF 6
ENDMDL
MODEL 4
REMARK VINA RESULT:      -1.7      8.662      9.895
REMARK  6 active torsions:
REMARK  status: ('A' for Active; 'I' for Inactive)
REMARK    1  A    between atoms: C_10  and  N_1 
REMARK    2  A    between atoms: S_8  and  C_2 
REMARK       I    between atoms: N_7  and  C_9 
REMARK    3  A    between atoms: C_13  and  S_8 
REMARK    4  A    between atoms: C_9  and  C_13 
REMARK    5  A    between atoms: C_21  and  N_11 
REMARK    6  A    between atoms: C_25  and  C_21 
ROOT
ATOM      1  N   UNL d   1     -39.841  14.390  17.116  0.00  0.00    -0.254 N 
ATOM      2  C   UNL d   1     -39.853  14.898  17.759  0.00  0.00     0.182 A 
ATOM      3  C   UNL d   1     -40.470  14.392  16.580  0.00  0.00     0.268 A 
ATOM      4  N   UNL d   1     -40.493  15.408  17.866  0.00  0.00    -0.222 NA
ATOM      5  C   UNL d   1     -41.110  14.903  16.688  0.00  0.00     0.074 A 
ATOM      6  C   UNL d   1     -41.122  15.411  17.331  0.00  0.00     0.088 A 
ATOM      7  O   UNL d   1     -40.459  13.884  15.938  0.00  0.00    -0.267 OA
ATOM      8  C   UNL d   1     -41.724  14.899  16.158  0.00  0.00     0.006 A 
ATOM      9  C   UNL d   1     -41.747  15.915  17.443  0.00  0.00     0.019 A 
ATOM     10  C   UNL d   1     -42.364  15.410  16.265  0.00  0.00     0.000 A 
ATOM     11  C   UNL d   1     -42.376  15.918  16.909  0.00  0.00     0.002 A 
ENDROOT
BRANCH   2  12
ATOM     12  S   UNL d   1     -39.224  14.907  18.308  0.00  0.00    -0.044 SA
BRANCH  12  13
ATOM     13  C   UNL d   1     -39.391  15.105  19.101  0.00  0.00     0.099 C 
BRANCH  13  14
ATOM     14  C   UNL d   1     -38.757  15.318  19.600  0.00  0.00     0.272 C 
ATOM     15  N   UNL d   1     -38.761  15.043  20.388  0.00  0.00    -0.269 N 
ATOM     16  C   UNL d   1     -38.136  15.256  20.868  0.00  0.00     0.102 A 
ATOM     17  C   UNL d   1     -39.375  14.574  20.665  0.00  0.00     0.102 A 
ATOM     18  C   UNL d   1     -38.141  14.981  21.655  0.00  0.00     0.100 A 
ATOM     19  N   UNL d   1     -38.754  14.512  21.933  0.00  0.00    -0.297 N 
ATOM     20  C   UNL d   1     -39.375  14.309  21.428  0.00  0.00     0.100 A 
ATOM     21  O   UNL d   1     -38.145  15.786  19.323  0.00  0.00    -0.266 OA
BRANCH  19  22
ATOM     22  C   UNL d   1     -38.736  14.246  22.735  0.00  0.00     0.126 C 
BRANCH  22  23
ATOM     23  C   UNL d   1     -38.756  13.457  22.904  0.00  0.00     0.253 C 
ATOM     24  O   UNL d   1     -39.047  13.203  23.634  0.00  0.00    -0.281 OA
ENDBRANCH  22  23
ENDBRANCH  19  22
ENDBRANCH  13  14
ENDBRANCH  12  13
ENDBRANCH   2  12
BRANCH   1  25
ATOM     25  C   UNL d   1     -39.213  13.892  17.014  0.00  0.00     0.069 A 
ATOM     26  C   UNL d   1     -39.210  13.154  17.398  0.00  0.00     0.018 A 
ATOM     27  C   UNL d   1     -38.570  12.642  17.297  0.00  0.00     0.002 A 
ATOM     28  C   UNL d   1     -37.940  12.870  16.816  0.00  0.00     0.000 A 
ATOM     29  C   UNL d   1     -37.943  13.597  16.438  0.00  0.00     0.002 A 
ATOM     30  C   UNL d   1     -38.583  14.112  16.537  0.00  0.00     0.018 A 
ENDBRANCH   1  25
TORSDOF 6
ENDMDL
MODEL 5
REMARK VINA RESULT:      -1.6      4.633      9.169
REMARK  6 active torsions:
REMARK  status: ('A' for Active; 'I' for Inactive)
REMARK    1  A    between atoms: C_10  and  N_1 
REMARK    2  A    between atoms: S_8  and  C_2 
REMARK       I    between atoms: N_7  and  C_9 
REMARK    3  A    between atoms: C_13  and  S_8 
REMARK    4  A    between atoms: C_9  and  C_13 
REMARK    5  A    between atoms: C_21  and  N_11 
REMARK    6  A    between atoms: C_25  and  C_21 
ROOT
ATOM      1  N   UNL d   1     -39.814  14.337  17.934  0.00  0.00    -0.254 N 
ATOM      2  C   UNL d   1     -40.414  14.551  18.449  0.00  0.00     0.182 A 
ATOM      3  C   UNL d   1     -39.847  14.574  17.143  0.00  0.00     0.268 A 
ATOM      4  N   UNL d   1     -41.048  15.002  18.173  0.00  0.00    -0.222 NA
ATOM      5  C   UNL d   1     -40.482  15.025  16.868  0.00  0.00     0.074 A 
ATOM      6  C   UNL d   1     -41.083  15.239  17.383  0.00  0.00     0.088 A 
ATOM      7  O   UNL d   1     -39.247  14.359  16.629  0.00  0.00    -0.267 OA
ATOM      8  C   UNL d   1     -40.508  15.253  16.090  0.00  0.00     0.006 A 
ATOM      9  C   UNL d   1     -41.709  15.682  17.120  0.00  0.00     0.019 A 
ATOM     10  C   UNL d   1     -41.143  15.704  15.815  0.00  0.00     0.000 A 
ATOM     11  C   UNL d   1     -41.744  15.919  16.330  0.00  0.00     0.002 A 
ENDROOT
BRANCH   2  12
ATOM     12  S   UNL d   1     -40.393  14.319  19.251  0.00  0.00    -0.044 SA
BRANCH  12  13
ATOM     13  C   UNL d   1     -41.115  14.174  19.642  0.00  0.00     0.099 C 
BRANCH  13  14
ATOM     14  C   UNL d   1     -41.101  14.039  20.465  0.00  0.00     0.272 C 
ATOM     15  N   UNL d   1     -41.758  13.664  20.818  0.00  0.00    -0.269 N 
ATOM     16  C   UNL d   1     -41.735  13.536  21.624  0.00  0.00     0.102 A 
ATOM     17  C   UNL d   1     -42.403  13.434  20.366  0.00  0.00     0.102 A 
ATOM     18  C   UNL d   1     -42.392  13.161  21.976  0.00  0.00     0.100 A 
ATOM     19  N   UNL d   1     -43.036  12.931  21.524  0.00  0.00    -0.297 N 
ATOM     20  C   UNL d   1     -43.037  13.071  20.710  0.00  0.00     0.100 A 
ATOM     21  O   UNL d   1     -40.458  14.268  20.917  0.00  0.00    -0.266 OA
BRANCH  19  22
ATOM     22  C   UNL d   1     -43.690  12.553  21.904  0.00  0.00     0.126 C 
BRANCH  22  23
ATOM     23  C   UNL d   1     -44.439  12.838  21.809  0.00  0.00     0.253 C 
ATOM     24  O   UNL d   1     -45.044  12.572  22.303  0.00  0.00    -0.281 OA
ENDBRANCH  22  23
ENDBRANCH  19  22
ENDBRANCH  13  14
ENDBRANCH  12  13
ENDBRANCH   2  12
BRANCH   1  25
ATOM     25  C   UNL d   1     -39.194  13.895  18.208  0.00  0.00     0.069 A 
ATOM     26  C   UNL d   1     -39.160  13.084  18.028  0.00  0.00     0.018 A 
ATOM     27  C   UNL d   1     -38.530  12.629  18.306  0.00  0.00     0.002 A 
ATOM     28  C   UNL d   1     -37.940  12.987  18.759  0.00  0.00     0.000 A 
ATOM     29  C   UNL d   1     -37.973  13.786  18.936  0.00  0.00     0.002 A 
ATOM     30  C   UNL d   1     -38.604  14.245  18.659  0.00  0.00     0.018 A 
ENDBRANCH   1  25
TORSDOF 6
ENDMDL
