MODEL 1
REMARK VINA RESULT:       0.6      0.000      0.000
REMARK  5 active torsions:
REMARK  status: ('A' for Active; 'I' for Inactive)
REMARK    1  A    between atoms: C_5  and  N_1 
REMARK    2  A    between atoms: C_8  and  C_3 
REMARK    3  A    between atoms: C_7  and  C_4 
REMARK    4  A    between atoms: N_12  and  C_5 
REMARK    5  A    between atoms: N_11  and  C_10 
ROOT
ATOM      1  N   UNL d   1     -41.866-121.975 -51.153  0.00  0.00    -0.203 N 
ATOM      2  N   UNL d   1     -41.919-122.025 -50.332  0.00  0.00    -0.163 NA
ATOM      3  C   UNL d   1     -41.905-122.776 -50.106  0.00  0.00     0.103 A 
ATOM      4  C   UNL d   1     -41.816-122.732 -51.459  0.00  0.00     0.087 A 
ATOM      5  C   UNL d   1     -41.840-123.254 -50.806  0.00  0.00     0.040 A 
ENDROOT
BRANCH   4   6
ATOM      6  C   UNL d   1     -41.756-122.868 -52.283  0.00  0.00     0.018 A 
ATOM      7  C   UNL d   1     -42.277-122.493 -52.794  0.00  0.00     0.003 A 
ATOM      8  C   UNL d   1     -42.230-122.615 -53.590  0.00  0.00     0.018 A 
ATOM      9  C   UNL d   1     -41.645-123.128 -53.904  0.00  0.00     0.064 A 
ATOM     10  C   UNL d   1     -41.124-123.502 -53.393  0.00  0.00     0.018 A 
ATOM     11  C   UNL d   1     -41.178-123.372 -52.571  0.00  0.00     0.003 A 
BRANCH   9  12
ATOM     12  N   UNL d   1     -41.623-123.234 -54.747  0.00  0.00    -0.301 N 
ATOM     13  C   UNL d   1     -42.082-122.718 -55.230  0.00  0.00     0.100 C 
ATOM     14  C   UNL d   1     -41.217-123.771 -55.169  0.00  0.00     0.100 C 
ENDBRANCH   9  12
ENDBRANCH   4   6
BRANCH   1  15
ATOM     15  C   UNL d   1     -41.863-121.259 -51.610  0.00  0.00     0.222 C 
ATOM     16  S   UNL d   1     -42.595-120.985 -51.946  0.00  0.00    -0.037 SA
BRANCH  15  17
ATOM     17  N   UNL d   1     -41.167-120.848 -51.719  0.00  0.00    -0.214 NA
ATOM     18  C   UNL d   1     -41.136-120.005 -51.620  0.00  0.00     0.122 C 
ENDBRANCH  15  17
ENDBRANCH   1  15
BRANCH   3  19
ATOM     19  C   UNL d   1     -41.948-123.024 -49.322  0.00  0.00     0.019 A 
ATOM     20  C   UNL d   1     -42.651-122.932 -48.873  0.00  0.00     0.002 A 
ATOM     21  C   UNL d   1     -42.694-123.180 -48.089  0.00  0.00     0.007 A 
ATOM     22  C   UNL d   1     -42.031-123.523 -47.757  0.00  0.00     0.035 A 
ATOM     23  C   UNL d   1     -41.324-123.623 -48.187  0.00  0.00     0.007 A 
ATOM     24 BR   UNL d   1     -42.083-123.781 -46.934  0.00  0.00    -0.049 Br
ATOM     25  C   UNL d   1     -41.289-123.372 -48.969  0.00  0.00     0.002 A 
ENDBRANCH   3  19
TORSDOF 5
ENDMDL
MODEL 2
REMARK VINA RESULT:       1.8      2.140      4.913
REMARK  5 active torsions:
REMARK  status: ('A' for Active; 'I' for Inactive)
REMARK    1  A    between atoms: C_5  and  N_1 
REMARK    2  A    between atoms: C_8  and  C_3 
REMARK    3  A    between atoms: C_7  and  C_4 
REMARK    4  A    between atoms: N_12  and  C_5 
REMARK    5  A    between atoms: N_11  and  C_10 
ROOT
ATOM      1  N   UNL d   1     -42.802-122.828 -50.807  0.00  0.00    -0.203 N 
ATOM      2  N   UNL d   1     -42.775-122.762 -51.628  0.00  0.00    -0.163 NA
ATOM      3  C   UNL d   1     -42.035-122.823 -51.879  0.00  0.00     0.103 A 
ATOM      4  C   UNL d   1     -42.041-122.935 -50.527  0.00  0.00     0.087 A 
ATOM      5  C   UNL d   1     -41.540-122.935 -51.198  0.00  0.00     0.040 A 
ENDROOT
BRANCH   4   6
ATOM      6  C   UNL d   1     -41.883-123.021 -49.709  0.00  0.00     0.018 A 
ATOM      7  C   UNL d   1     -42.003-122.385 -49.205  0.00  0.00     0.003 A 
ATOM      8  C   UNL d   1     -41.855-122.454 -48.416  0.00  0.00     0.018 A 
ATOM      9  C   UNL d   1     -41.575-123.179 -48.101  0.00  0.00     0.064 A 
ATOM     10  C   UNL d   1     -41.455-123.815 -48.605  0.00  0.00     0.018 A 
ATOM     11  C   UNL d   1     -41.610-123.738 -49.421  0.00  0.00     0.003 A 
BRANCH   9  12
ATOM     12  N   UNL d   1     -41.429-123.218 -47.264  0.00  0.00    -0.301 N 
ATOM     13  C   UNL d   1     -41.623-122.549 -46.791  0.00  0.00     0.100 C 
ATOM     14  C   UNL d   1     -41.123-123.816 -46.842  0.00  0.00     0.100 C 
ENDBRANCH   9  12
ENDBRANCH   4   6
BRANCH   1  15
ATOM     15  C   UNL d   1     -43.501-122.790 -50.326  0.00  0.00     0.222 C 
ATOM     16  S   UNL d   1     -43.825-122.028 -50.135  0.00  0.00    -0.037 SA
BRANCH  15  17
ATOM     17  N   UNL d   1     -43.848-123.478 -50.058  0.00  0.00    -0.214 NA
ATOM     18  C   UNL d   1     -44.691-123.533 -49.960  0.00  0.00     0.122 C 
ENDBRANCH  15  17
ENDBRANCH   1  15
BRANCH   3  19
ATOM     19  C   UNL d   1     -41.809-122.782 -52.670  0.00  0.00     0.019 A 
ATOM     20  C   UNL d   1     -42.014-122.123 -53.149  0.00  0.00     0.002 A 
ATOM     21  C   UNL d   1     -41.789-122.082 -53.940  0.00  0.00     0.007 A 
ATOM     22  C   UNL d   1     -41.357-122.704 -54.250  0.00  0.00     0.035 A 
ATOM     23  C   UNL d   1     -41.145-123.365 -53.791  0.00  0.00     0.007 A 
ATOM     24 BR   UNL d   1     -41.124-122.653 -55.080  0.00  0.00    -0.049 Br
ATOM     25  C   UNL d   1     -41.373-123.399 -53.002  0.00  0.00     0.002 A 
ENDBRANCH   3  19
TORSDOF 5
ENDMDL
MODEL 3
REMARK VINA RESULT:       2.9      2.047      4.705
REMARK  5 active torsions:
REMARK  status: ('A' for Active; 'I' for Inactive)
REMARK    1  A    between atoms: C_5  and  N_1 
REMARK    2  A    between atoms: C_8  and  C_3 
REMARK    3  A    between atoms: C_7  and  C_4 
REMARK    4  A    between atoms: N_12  and  C_5 
REMARK    5  A    between atoms: N_11  and  C_10 
ROOT
ATOM      1  N   UNL d   1     -41.556-121.919 -51.544  0.00  0.00    -0.203 N 
ATOM      2  N   UNL d   1     -41.478-121.850 -52.361  0.00  0.00    -0.163 NA
ATOM      3  C   UNL d   1     -41.635-122.537 -52.705  0.00  0.00     0.103 A 
ATOM      4  C   UNL d   1     -41.773-122.687 -51.364  0.00  0.00     0.087 A 
ATOM      5  C   UNL d   1     -41.828-123.094 -52.093  0.00  0.00     0.040 A 
ENDROOT
BRANCH   4   6
ATOM      6  C   UNL d   1     -41.895-122.934 -50.573  0.00  0.00     0.018 A 
ATOM      7  C   UNL d   1     -42.600-122.747 -50.196  0.00  0.00     0.003 A 
ATOM      8  C   UNL d   1     -42.731-122.979 -49.435  0.00  0.00     0.018 A 
ATOM      9  C   UNL d   1     -42.146-123.414 -49.020  0.00  0.00     0.064 A 
ATOM     10  C   UNL d   1     -41.442-123.600 -49.397  0.00  0.00     0.018 A 
ATOM     11  C   UNL d   1     -41.312-123.358 -50.184  0.00  0.00     0.003 A 
BRANCH   9  12
ATOM     12  N   UNL d   1     -42.317-123.642 -48.219  0.00  0.00    -0.301 N 
ATOM     13  C   UNL d   1     -41.679-123.704 -47.673  0.00  0.00     0.100 C 
ATOM     14  C   UNL d   1     -43.020-123.814 -47.891  0.00  0.00     0.100 C 
ENDBRANCH   9  12
ENDBRANCH   4   6
BRANCH   1  15
ATOM     15  C   UNL d   1     -41.432-121.298 -50.977  0.00  0.00     0.222 C 
ATOM     16  S   UNL d   1     -41.130-121.501 -50.208  0.00  0.00    -0.037 SA
BRANCH  15  17
ATOM     17  N   UNL d   1     -41.602-120.526 -51.175  0.00  0.00    -0.214 NA
ATOM     18  C   UNL d   1     -41.132-119.883 -50.876  0.00  0.00     0.122 C 
ENDBRANCH  15  17
ENDBRANCH   1  15
BRANCH   3  19
ATOM     19  C   UNL d   1     -41.610-122.664 -53.518  0.00  0.00     0.019 A 
ATOM     20  C   UNL d   1     -41.351-123.396 -53.838  0.00  0.00     0.002 A 
ATOM     21  C   UNL d   1     -41.325-123.523 -54.651  0.00  0.00     0.007 A 
ATOM     22  C   UNL d   1     -41.560-122.915 -55.144  0.00  0.00     0.035 A 
ATOM     23  C   UNL d   1     -41.820-122.182 -54.845  0.00  0.00     0.007 A 
ATOM     24 BR   UNL d   1     -41.531-123.056 -55.995  0.00  0.00    -0.049 Br
ATOM     25  C   UNL d   1     -41.843-122.062 -54.032  0.00  0.00     0.002 A 
ENDBRANCH   3  19
TORSDOF 5
ENDMDL
