MODEL 1
REMARK VINA RESULT:      41.3      0.000      0.000
REMARK  4 active torsions:
REMARK  status: ('A' for Active; 'I' for Inactive)
REMARK    1  A    between atoms: C_7  and  N_1 
REMARK    2  A    between atoms: C_12  and  N_4 
REMARK    3  A    between atoms: C_8  and  C_7 
REMARK    4  A    between atoms: C_16  and  C_12 
ROOT
ATOM      1  N   UNL d   1     -54.774-101.176 -43.244  0.00  0.00    -0.273 N 
ATOM      2  C   UNL d   1     -54.902-101.593 -43.960  0.00  0.00     0.153 A 
ATOM      3  S   UNL d   1     -54.965-102.407 -43.951  0.00  0.00    -0.039 SA
ATOM      4  N   UNL d   1     -54.775-102.407 -42.528  0.00  0.00    -0.281 N 
ATOM      5  C   UNL d   1     -54.712-101.582 -42.534  0.00  0.00     0.168 A 
ATOM      6  C   UNL d   1     -54.903-102.823 -43.244  0.00  0.00     0.120 A 
ATOM      7  S   UNL d   1     -54.964-101.173 -44.678  0.00  0.00    -0.052 SA
ENDROOT
BRANCH   4   8
ATOM      8  C   UNL d   1     -54.715-102.826 -41.824  0.00  0.00     0.101 C 
BRANCH   8   9
ATOM      9  C   UNL d   1     -54.795-102.433 -41.104  0.00  0.00     0.099 A 
ATOM     10  N   UNL d   1     -54.961-102.879 -40.426  0.00  0.00    -0.242 NA
ATOM     11  C   UNL d   1     -55.043-102.491 -39.698  0.00  0.00     0.099 A 
ATOM     12  C   UNL d   1     -54.961-101.669 -39.656  0.00  0.00     0.021 A 
ATOM     13  C   UNL d   1     -54.795-101.235 -40.340  0.00  0.00     0.003 A 
ATOM     14  C   UNL d   1     -54.714-101.618 -41.057  0.00  0.00     0.021 A 
ENDBRANCH   8   9
ENDBRANCH   4   8
BRANCH   1  15
ATOM     15  C   UNL d   1     -54.712-100.351 -43.265  0.00  0.00     0.107 C 
BRANCH  15  16
ATOM     16  C   UNL d   1     -55.063 -99.914 -43.874  0.00  0.00     0.118 A 
ATOM     17  O   UNL d   1     -55.820-100.041 -44.186  0.00  0.00    -0.304 OA
ATOM     18  C   UNL d   1     -55.938 -99.480 -44.779  0.00  0.00     0.123 A 
ATOM     19  C   UNL d   1     -55.270 -99.017 -44.834  0.00  0.00     0.029 A 
ATOM     20  C   UNL d   1     -54.727 -99.284 -44.275  0.00  0.00     0.028 A 
ENDBRANCH  15  16
ENDBRANCH   1  15
TORSDOF 4
ENDMDL
