MODEL 1
REMARK VINA RESULT:     -10.9      0.000      0.000
REMARK  4 active torsions:
REMARK  status: ('A' for Active; 'I' for Inactive)
REMARK    1  A    between atoms: C_7  and  C_1 
REMARK    2  A    between atoms: C_8  and  C_3 
REMARK    3  A    between atoms: C_10  and  C_6 
REMARK    4  A    between atoms: C_9  and  C_8 
ROOT
ATOM      1  C   UNL d   1      52.727  33.716  53.322  0.00  0.00     0.293 A 
ATOM      2  N   UNL d   1      51.907  33.786  53.204  0.00  0.00    -0.223 N 
ATOM      3  C   UNL d   1      53.076  32.956  53.371  0.00  0.00     0.113 A 
ATOM      4  C   UNL d   1      51.437  33.097  53.135  0.00  0.00     0.356 A 
ATOM      5  N   UNL d   1      51.786  32.337  53.183  0.00  0.00    -0.192 NA
ATOM      6  C   UNL d   1      52.605  32.266  53.302  0.00  0.00     0.094 A 
ATOM      7  O   UNL d   1      50.619  33.185  53.017  0.00  0.00    -0.244 OA
ATOM      8  O   UNL d   1      53.543  33.854  53.441  0.00  0.00    -0.267 OA
ATOM      9  C   UNL d   1      51.557  34.525  53.155  0.00  0.00     0.106 C 
ENDROOT
BRANCH   3  10
ATOM     10  C   UNL d   1      53.896  32.886  53.490  0.00  0.00     0.207 C 
ATOM     11  O   UNL d   1      54.384  32.633  52.877  0.00  0.00    -0.286 OA
BRANCH  10  12
ATOM     12  C   UNL d   1      54.226  33.073  54.236  0.00  0.00     0.069 A 
ATOM     13  S   UNL d   1      53.937  33.016  55.012  0.00  0.00    -0.083 SA
ATOM     14  C   UNL d   1      54.531  33.290  55.519  0.00  0.00     0.035 A 
ATOM     15  C   UNL d   1      55.187  33.520  55.103  0.00  0.00     0.008 A 
ATOM     16  C   UNL d   1      55.010  33.389  54.299  0.00  0.00     0.010 A 
ENDBRANCH  10  12
ENDBRANCH   3  10
BRANCH   1  17
ATOM     17  C   UNL d   1      52.589  34.523  53.304  0.00  0.00     0.469 C 
ATOM     18  F   UNL d   1      52.697  34.819  52.707  0.00  0.00    -0.162 F 
ATOM     19  F   UNL d   1      52.443  35.352  53.303  0.00  0.00    -0.162 F 
ATOM     20  F   UNL d   1      52.363  34.884  53.909  0.00  0.00    -0.162 F 
ENDBRANCH   1  17
BRANCH   6  21
ATOM     21  C   UNL d   1      52.948  31.525  53.350  0.00  0.00     0.021 A 
ATOM     22  C   UNL d   1      52.859  31.072  54.025  0.00  0.00     0.043 A 
ATOM     23  C   UNL d   1      53.209  30.317  54.073  0.00  0.00     0.196 A 
ATOM     24  O   UNL d   1      53.118  29.871  54.748  0.00  0.00    -0.287 OA
ATOM     25  C   UNL d   1      53.640  30.034  53.443  0.00  0.00     0.042 A 
ATOM     26  C   UNL d   1      53.731  30.483  52.765  0.00  0.00     0.003 A 
ATOM     27  C   UNL d   1      53.386  31.227  52.719  0.00  0.00     0.002 A 
ENDBRANCH   6  21
TORSDOF 4
ENDMDL
MODEL 2
REMARK VINA RESULT:     -10.8      1.626      3.255
REMARK  4 active torsions:
REMARK  status: ('A' for Active; 'I' for Inactive)
REMARK    1  A    between atoms: C_7  and  C_1 
REMARK    2  A    between atoms: C_8  and  C_3 
REMARK    3  A    between atoms: C_10  and  C_6 
REMARK    4  A    between atoms: C_9  and  C_8 
ROOT
ATOM      1  C   UNL d   1      53.876  33.329  54.246  0.00  0.00     0.293 A 
ATOM      2  N   UNL d   1      53.914  33.868  54.877  0.00  0.00    -0.223 N 
ATOM      3  C   UNL d   1      53.263  33.393  53.680  0.00  0.00     0.113 A 
ATOM      4  C   UNL d   1      53.338  34.472  54.942  0.00  0.00     0.356 A 
ATOM      5  N   UNL d   1      52.724  34.538  54.376  0.00  0.00    -0.192 NA
ATOM      6  C   UNL d   1      52.686  33.998  53.745  0.00  0.00     0.094 A 
ATOM      7  O   UNL d   1      53.390  35.003  55.579  0.00  0.00    -0.244 OA
ATOM      8  O   UNL d   1      54.010  32.707  53.703  0.00  0.00    -0.267 OA
ATOM      9  C   UNL d   1      54.511  33.812  55.436  0.00  0.00     0.106 C 
ENDROOT
BRANCH   3  10
ATOM     10  C   UNL d   1      53.225  32.854  53.049  0.00  0.00     0.207 C 
ATOM     11  O   UNL d   1      53.435  33.089  52.288  0.00  0.00    -0.286 OA
BRANCH  10  12
ATOM     12  C   UNL d   1      52.972  32.068  53.188  0.00  0.00     0.069 A 
ATOM     13  S   UNL d   1      52.467  31.729  53.752  0.00  0.00    -0.083 SA
ATOM     14  C   UNL d   1      52.436  30.916  53.600  0.00  0.00     0.035 A 
ATOM     15  C   UNL d   1      52.899  30.719  52.965  0.00  0.00     0.008 A 
ATOM     16  C   UNL d   1      53.240  31.430  52.697  0.00  0.00     0.010 A 
ENDBRANCH  10  12
ENDBRANCH   3  10
BRANCH   1  17
ATOM     17  C   UNL d   1      54.534  33.098  54.676  0.00  0.00     0.469 C 
ATOM     18  F   UNL d   1      55.126  33.316  54.435  0.00  0.00    -0.162 F 
ATOM     19  F   UNL d   1      55.200  32.853  55.130  0.00  0.00    -0.162 F 
ATOM     20  F   UNL d   1      54.465  32.681  55.283  0.00  0.00    -0.162 F 
ENDBRANCH   1  17
BRANCH   6  21
ATOM     21  C   UNL d   1      52.087  34.060  53.191  0.00  0.00     0.021 A 
ATOM     22  C   UNL d   1      51.316  33.877  53.395  0.00  0.00     0.043 A 
ATOM     23  C   UNL d   1      50.707  33.940  52.830  0.00  0.00     0.196 A 
ATOM     24  O   UNL d   1      49.941  33.757  53.037  0.00  0.00    -0.287 OA
ATOM     25  C   UNL d   1      50.885  34.185  52.073  0.00  0.00     0.042 A 
ATOM     26  C   UNL d   1      51.654  34.369  51.865  0.00  0.00     0.003 A 
ATOM     27  C   UNL d   1      52.254  34.306  52.424  0.00  0.00     0.002 A 
ENDBRANCH   6  21
TORSDOF 4
ENDMDL
MODEL 3
REMARK VINA RESULT:     -10.4      1.917      3.158
REMARK  4 active torsions:
REMARK  status: ('A' for Active; 'I' for Inactive)
REMARK    1  A    between atoms: C_7  and  C_1 
REMARK    2  A    between atoms: C_8  and  C_3 
REMARK    3  A    between atoms: C_10  and  C_6 
REMARK    4  A    between atoms: C_9  and  C_8 
ROOT
ATOM      1  C   UNL d   1      53.480  31.177  53.488  0.00  0.00     0.293 A 
ATOM      2  N   UNL d   1      52.919  30.566  53.440  0.00  0.00    -0.223 N 
ATOM      3  C   UNL d   1      53.244  31.969  53.352  0.00  0.00     0.113 A 
ATOM      4  C   UNL d   1      52.122  30.746  53.258  0.00  0.00     0.356 A 
ATOM      5  N   UNL d   1      51.885  31.539  53.122  0.00  0.00    -0.192 NA
ATOM      6  C   UNL d   1      52.446  32.150  53.170  0.00  0.00     0.094 A 
ATOM      7  O   UNL d   1      51.574  30.124  53.214  0.00  0.00    -0.244 OA
ATOM      8  O   UNL d   1      54.174  31.634  53.579  0.00  0.00    -0.267 OA
ATOM      9  C   UNL d   1      53.141  29.788  53.571  0.00  0.00     0.106 C 
ENDROOT
BRANCH   3  10
ATOM     10  C   UNL d   1      53.805  32.581  53.400  0.00  0.00     0.207 C 
ATOM     11  O   UNL d   1      54.090  32.938  52.716  0.00  0.00    -0.286 OA
BRANCH  10  12
ATOM     12  C   UNL d   1      54.081  32.835  54.149  0.00  0.00     0.069 A 
ATOM     13  S   UNL d   1      53.782  32.753  54.918  0.00  0.00    -0.083 SA
ATOM     14  C   UNL d   1      54.313  33.127  55.432  0.00  0.00     0.035 A 
ATOM     15  C   UNL d   1      54.937  33.445  55.025  0.00  0.00     0.008 A 
ATOM     16  C   UNL d   1      54.805  33.270  54.222  0.00  0.00     0.010 A 
ENDBRANCH  10  12
ENDBRANCH   3  10
BRANCH   1  17
ATOM     17  C   UNL d   1      53.903  30.495  53.649  0.00  0.00     0.469 C 
ATOM     18  F   UNL d   1      53.829  30.252  54.275  0.00  0.00    -0.162 F 
ATOM     19  F   UNL d   1      54.345  29.794  53.799  0.00  0.00    -0.162 F 
ATOM     20  F   UNL d   1      54.331  30.181  53.134  0.00  0.00    -0.162 F 
ENDBRANCH   1  17
BRANCH   6  21
ATOM     21  C   UNL d   1      52.217  32.924  53.038  0.00  0.00     0.021 A 
ATOM     22  C   UNL d   1      51.754  33.316  53.586  0.00  0.00     0.043 A 
ATOM     23  C   UNL d   1      51.521  34.105  53.451  0.00  0.00     0.196 A 
ATOM     24  O   UNL d   1      51.060  34.491  53.999  0.00  0.00    -0.287 OA
ATOM     25  C   UNL d   1      51.759  34.483  52.769  0.00  0.00     0.042 A 
ATOM     26  C   UNL d   1      52.223  34.095  52.218  0.00  0.00     0.003 A 
ATOM     27  C   UNL d   1      52.452  33.317  52.353  0.00  0.00     0.002 A 
ENDBRANCH   6  21
TORSDOF 4
ENDMDL
MODEL 4
REMARK VINA RESULT:     -10.2      1.979      3.448
REMARK  4 active torsions:
REMARK  status: ('A' for Active; 'I' for Inactive)
REMARK    1  A    between atoms: C_7  and  C_1 
REMARK    2  A    between atoms: C_8  and  C_3 
REMARK    3  A    between atoms: C_10  and  C_6 
REMARK    4  A    between atoms: C_9  and  C_8 
ROOT
ATOM      1  C   UNL d   1      53.008  31.277  53.141  0.00  0.00     0.293 A 
ATOM      2  N   UNL d   1      53.125  30.570  53.563  0.00  0.00    -0.223 N 
ATOM      3  C   UNL d   1      53.347  31.989  53.421  0.00  0.00     0.113 A 
ATOM      4  C   UNL d   1      53.581  30.577  54.265  0.00  0.00     0.356 A 
ATOM      5  N   UNL d   1      53.922  31.289  54.545  0.00  0.00    -0.192 NA
ATOM      6  C   UNL d   1      53.805  31.995  54.124  0.00  0.00     0.094 A 
ATOM      7  O   UNL d   1      53.689  29.862  54.675  0.00  0.00    -0.244 OA
ATOM      8  O   UNL d   1      52.780  31.862  52.589  0.00  0.00    -0.267 OA
ATOM      9  C   UNL d   1      52.797  29.869  53.297  0.00  0.00     0.106 C 
ENDROOT
BRANCH   3  10
ATOM     10  C   UNL d   1      53.231  32.696  52.999  0.00  0.00     0.207 C 
ATOM     11  O   UNL d   1      53.839  33.016  52.547  0.00  0.00    -0.286 OA
BRANCH  10  12
ATOM     12  C   UNL d   1      52.489  33.083  53.034  0.00  0.00     0.069 A 
ATOM     13  S   UNL d   1      51.846  33.026  53.556  0.00  0.00    -0.083 SA
ATOM     14  C   UNL d   1      51.268  33.559  53.296  0.00  0.00     0.035 A 
ATOM     15  C   UNL d   1      51.512  33.954  52.632  0.00  0.00     0.008 A 
ATOM     16  C   UNL d   1      52.274  33.667  52.457  0.00  0.00     0.010 A 
ENDBRANCH  10  12
ENDBRANCH   3  10
BRANCH   1  17
ATOM     17  C   UNL d   1      52.603  30.709  52.711  0.00  0.00     0.469 C 
ATOM     18  F   UNL d   1      52.932  30.469  52.172  0.00  0.00    -0.162 F 
ATOM     19  F   UNL d   1      52.174  30.127  52.281  0.00  0.00    -0.162 F 
ATOM     20  F   UNL d   1      51.927  30.489  52.914  0.00  0.00    -0.162 F 
ENDBRANCH   1  17
BRANCH   6  21
ATOM     21  C   UNL d   1      54.136  32.692  54.395  0.00  0.00     0.021 A 
ATOM     22  C   UNL d   1      53.795  33.094  55.021  0.00  0.00     0.043 A 
ATOM     23  C   UNL d   1      54.133  33.804  55.297  0.00  0.00     0.196 A 
ATOM     24  O   UNL d   1      53.790  34.200  55.921  0.00  0.00    -0.287 OA
ATOM     25  C   UNL d   1      54.804  34.095  54.939  0.00  0.00     0.042 A 
ATOM     26  C   UNL d   1      55.148  33.697  54.313  0.00  0.00     0.003 A 
ATOM     27  C   UNL d   1      54.814  32.996  54.042  0.00  0.00     0.002 A 
ENDBRANCH   6  21
TORSDOF 4
ENDMDL
MODEL 5
REMARK VINA RESULT:      -9.9      1.601      3.108
REMARK  4 active torsions:
REMARK  status: ('A' for Active; 'I' for Inactive)
REMARK    1  A    between atoms: C_7  and  C_1 
REMARK    2  A    between atoms: C_8  and  C_3 
REMARK    3  A    between atoms: C_10  and  C_6 
REMARK    4  A    between atoms: C_9  and  C_8 
ROOT
ATOM      1  C   UNL d   1      53.549  32.995  53.372  0.00  0.00     0.293 A 
ATOM      2  N   UNL d   1      53.480  32.166  53.366  0.00  0.00    -0.223 N 
ATOM      3  C   UNL d   1      52.896  33.468  53.146  0.00  0.00     0.113 A 
ATOM      4  C   UNL d   1      52.758  31.812  53.134  0.00  0.00     0.356 A 
ATOM      5  N   UNL d   1      52.104  32.284  52.907  0.00  0.00    -0.192 NA
ATOM      6  C   UNL d   1      52.173  33.112  52.913  0.00  0.00     0.094 A 
ATOM      7  O   UNL d   1      52.706  30.982  53.133  0.00  0.00    -0.244 OA
ATOM      8  O   UNL d   1      53.813  33.785  53.444  0.00  0.00    -0.267 OA
ATOM      9  C   UNL d   1      54.113  31.696  53.586  0.00  0.00     0.106 C 
ENDROOT
BRANCH   3  10
ATOM     10  C   UNL d   1      52.965  34.296  53.152  0.00  0.00     0.207 C 
ATOM     11  O   UNL d   1      53.022  34.714  52.446  0.00  0.00    -0.286 OA
BRANCH  10  12
ATOM     12  C   UNL d   1      52.976  34.707  53.882  0.00  0.00     0.069 A 
ATOM     13  S   UNL d   1      52.765  34.491  54.655  0.00  0.00    -0.083 SA
ATOM     14  C   UNL d   1      52.903  35.147  55.142  0.00  0.00     0.035 A 
ATOM     15  C   UNL d   1      53.192  35.772  54.715  0.00  0.00     0.008 A 
ATOM     16  C   UNL d   1      53.243  35.511  53.925  0.00  0.00     0.010 A 
ENDBRANCH  10  12
ENDBRANCH   3  10
BRANCH   1  17
ATOM     17  C   UNL d   1      54.281  32.724  53.621  0.00  0.00     0.469 C 
ATOM     18  F   UNL d   1      54.755  32.696  53.140  0.00  0.00    -0.162 F 
ATOM     19  F   UNL d   1      55.027  32.444  53.892  0.00  0.00    -0.162 F 
ATOM     20  F   UNL d   1      54.395  32.529  54.325  0.00  0.00    -0.162 F 
ENDBRANCH   1  17
BRANCH   6  21
ATOM     21  C   UNL d   1      51.537  33.576  52.693  0.00  0.00     0.021 A 
ATOM     22  C   UNL d   1      50.908  33.684  53.205  0.00  0.00     0.043 A 
ATOM     23  C   UNL d   1      50.260  34.157  52.979  0.00  0.00     0.196 A 
ATOM     24  O   UNL d   1      49.636  34.262  53.492  0.00  0.00    -0.287 OA
ATOM     25  C   UNL d   1      50.257  34.511  52.245  0.00  0.00     0.042 A 
ATOM     26  C   UNL d   1      50.883  34.405  51.730  0.00  0.00     0.003 A 
ATOM     27  C   UNL d   1      51.522  33.939  51.954  0.00  0.00     0.002 A 
ENDBRANCH   6  21
TORSDOF 4
ENDMDL
MODEL 6
REMARK VINA RESULT:      -9.6      1.409      2.398
REMARK  4 active torsions:
REMARK  status: ('A' for Active; 'I' for Inactive)
REMARK    1  A    between atoms: C_7  and  C_1 
REMARK    2  A    between atoms: C_8  and  C_3 
REMARK    3  A    between atoms: C_10  and  C_6 
REMARK    4  A    between atoms: C_9  and  C_8 
ROOT
ATOM      1  C   UNL d   1      53.363  33.714  54.120  0.00  0.00     0.293 A 
ATOM      2  N   UNL d   1      53.790  33.667  54.831  0.00  0.00    -0.223 N 
ATOM      3  C   UNL d   1      53.175  33.014  53.700  0.00  0.00     0.113 A 
ATOM      4  C   UNL d   1      54.030  32.920  55.123  0.00  0.00     0.356 A 
ATOM      5  N   UNL d   1      53.843  32.219  54.704  0.00  0.00    -0.192 NA
ATOM      6  C   UNL d   1      53.415  32.265  53.993  0.00  0.00     0.094 A 
ATOM      7  O   UNL d   1      54.456  32.890  55.835  0.00  0.00    -0.244 OA
ATOM      8  O   UNL d   1      52.938  33.966  53.445  0.00  0.00    -0.267 OA
ATOM      9  C   UNL d   1      53.978  34.347  55.248  0.00  0.00     0.106 C 
ENDROOT
BRANCH   3  10
ATOM     10  C   UNL d   1      52.748  33.060  52.989  0.00  0.00     0.207 C 
ATOM     11  O   UNL d   1      53.115  32.897  52.271  0.00  0.00    -0.286 OA
BRANCH  10  12
ATOM     12  C   UNL d   1      51.938  33.275  53.004  0.00  0.00     0.069 A 
ATOM     13  S   UNL d   1      51.327  33.138  53.548  0.00  0.00    -0.083 SA
ATOM     14  C   UNL d   1      50.643  33.494  53.248  0.00  0.00     0.035 A 
ATOM     15  C   UNL d   1      50.788  33.853  52.536  0.00  0.00     0.008 A 
ATOM     16  C   UNL d   1      51.595  33.723  52.371  0.00  0.00     0.010 A 
ENDBRANCH  10  12
ENDBRANCH   3  10
BRANCH   1  17
ATOM     17  C   UNL d   1      53.440  34.491  54.366  0.00  0.00     0.469 C 
ATOM     18  F   UNL d   1      53.940  34.837  54.072  0.00  0.00    -0.162 F 
ATOM     19  F   UNL d   1      53.507  35.287  54.630  0.00  0.00    -0.162 F 
ATOM     20  F   UNL d   1      52.986  34.776  54.876  0.00  0.00    -0.162 F 
ENDBRANCH   1  17
BRANCH   6  21
ATOM     21  C   UNL d   1      53.231  31.582  53.582  0.00  0.00     0.021 A 
ATOM     22  C   UNL d   1      52.641  31.085  53.852  0.00  0.00     0.043 A 
ATOM     23  C   UNL d   1      52.454  30.389  53.433  0.00  0.00     0.196 A 
ATOM     24  O   UNL d   1      51.866  29.897  53.706  0.00  0.00    -0.287 OA
ATOM     25  C   UNL d   1      52.863  30.209  52.752  0.00  0.00     0.042 A 
ATOM     26  C   UNL d   1      53.454  30.703  52.478  0.00  0.00     0.003 A 
ATOM     27  C   UNL d   1      53.638  31.389  52.892  0.00  0.00     0.002 A 
ENDBRANCH   6  21
TORSDOF 4
ENDMDL
MODEL 7
REMARK VINA RESULT:      -9.1      1.390      2.540
REMARK  4 active torsions:
REMARK  status: ('A' for Active; 'I' for Inactive)
REMARK    1  A    between atoms: C_7  and  C_1 
REMARK    2  A    between atoms: C_8  and  C_3 
REMARK    3  A    between atoms: C_10  and  C_6 
REMARK    4  A    between atoms: C_9  and  C_8 
ROOT
ATOM      1  C   UNL d   1      52.002  33.704  52.793  0.00  0.00     0.293 A 
ATOM      2  N   UNL d   1      51.575  34.363  53.065  0.00  0.00    -0.223 N 
ATOM      3  C   UNL d   1      52.706  33.473  53.185  0.00  0.00     0.113 A 
ATOM      4  C   UNL d   1      51.851  34.791  53.729  0.00  0.00     0.356 A 
ATOM      5  N   UNL d   1      52.554  34.561  54.122  0.00  0.00    -0.192 NA
ATOM      6  C   UNL d   1      52.982  33.902  53.851  0.00  0.00     0.094 A 
ATOM      7  O   UNL d   1      51.412  35.447  53.988  0.00  0.00    -0.244 OA
ATOM      8  O   UNL d   1      52.279  33.033  52.377  0.00  0.00    -0.267 OA
ATOM      9  C   UNL d   1      50.887  34.595  52.687  0.00  0.00     0.106 C 
ENDROOT
BRANCH   3  10
ATOM     10  C   UNL d   1      53.133  32.814  52.914  0.00  0.00     0.207 C 
ATOM     11  O   UNL d   1      53.842  32.917  52.508  0.00  0.00    -0.286 OA
BRANCH  10  12
ATOM     12  C   UNL d   1      52.840  32.042  53.053  0.00  0.00     0.069 A 
ATOM     13  S   UNL d   1      52.252  31.744  53.556  0.00  0.00    -0.083 SA
ATOM     14  C   UNL d   1      52.219  30.924  53.441  0.00  0.00     0.035 A 
ATOM     15  C   UNL d   1      52.760  30.685  52.887  0.00  0.00     0.008 A 
ATOM     16  C   UNL d   1      53.155  31.374  52.636  0.00  0.00     0.010 A 
ENDBRANCH  10  12
ENDBRANCH   3  10
BRANCH   1  17
ATOM     17  C   UNL d   1      51.363  33.760  52.285  0.00  0.00     0.469 C 
ATOM     18  F   UNL d   1      51.489  34.066  51.696  0.00  0.00    -0.162 F 
ATOM     19  F   UNL d   1      50.695  33.809  51.774  0.00  0.00    -0.162 F 
ATOM     20  F   UNL d   1      50.701  33.488  52.474  0.00  0.00    -0.162 F 
ENDBRANCH   1  17
BRANCH   6  21
ATOM     21  C   UNL d   1      53.669  33.676  54.233  0.00  0.00     0.021 A 
ATOM     22  C   UNL d   1      53.632  33.289  54.953  0.00  0.00     0.043 A 
ATOM     23  C   UNL d   1      54.332  33.059  55.341  0.00  0.00     0.196 A 
ATOM     24  O   UNL d   1      54.291  32.674  56.058  0.00  0.00    -0.287 OA
ATOM     25  C   UNL d   1      55.053  33.221  54.999  0.00  0.00     0.042 A 
ATOM     26  C   UNL d   1      55.095  33.607  54.279  0.00  0.00     0.003 A 
ATOM     27  C   UNL d   1      54.403  33.834  53.897  0.00  0.00     0.002 A 
ENDBRANCH   6  21
TORSDOF 4
ENDMDL
MODEL 8
REMARK VINA RESULT:      -8.1      1.664      2.154
REMARK  4 active torsions:
REMARK  status: ('A' for Active; 'I' for Inactive)
REMARK    1  A    between atoms: C_7  and  C_1 
REMARK    2  A    between atoms: C_8  and  C_3 
REMARK    3  A    between atoms: C_10  and  C_6 
REMARK    4  A    between atoms: C_9  and  C_8 
ROOT
ATOM      1  C   UNL d   1      51.570  34.099  53.026  0.00  0.00     0.293 A 
ATOM      2  N   UNL d   1      51.001  33.494  53.011  0.00  0.00    -0.223 N 
ATOM      3  C   UNL d   1      52.348  33.932  53.289  0.00  0.00     0.113 A 
ATOM      4  C   UNL d   1      51.209  32.722  53.259  0.00  0.00     0.356 A 
ATOM      5  N   UNL d   1      51.987  32.554  53.523  0.00  0.00    -0.192 NA
ATOM      6  C   UNL d   1      52.556  33.159  53.538  0.00  0.00     0.094 A 
ATOM      7  O   UNL d   1      50.628  32.128  53.239  0.00  0.00    -0.244 OA
ATOM      8  O   UNL d   1      51.984  34.823  52.967  0.00  0.00    -0.267 OA
ATOM      9  C   UNL d   1      50.238  33.648  52.755  0.00  0.00     0.106 C 
ENDROOT
BRANCH   3  10
ATOM     10  C   UNL d   1      52.917  34.537  53.304  0.00  0.00     0.207 C 
ATOM     11  O   UNL d   1      53.489  34.585  52.714  0.00  0.00    -0.286 OA
BRANCH  10  12
ATOM     12  C   UNL d   1      52.908  35.102  53.923  0.00  0.00     0.069 A 
ATOM     13  S   UNL d   1      52.521  35.130  54.656  0.00  0.00    -0.083 SA
ATOM     14  C   UNL d   1      52.736  35.840  55.023  0.00  0.00     0.035 A 
ATOM     15  C   UNL d   1      53.244  36.267  54.559  0.00  0.00     0.008 A 
ATOM     16  C   UNL d   1      53.361  35.817  53.867  0.00  0.00     0.010 A 
ENDBRANCH  10  12
ENDBRANCH   3  10
BRANCH   1  17
ATOM     17  C   UNL d   1      50.892  34.460  52.743  0.00  0.00     0.469 C 
ATOM     18  F   UNL d   1      50.841  34.491  52.070  0.00  0.00    -0.162 F 
ATOM     19  F   UNL d   1      50.189  34.834  52.470  0.00  0.00    -0.162 F 
ATOM     20  F   UNL d   1      50.382  34.728  53.207  0.00  0.00    -0.162 F 
ENDBRANCH   1  17
BRANCH   6  21
ATOM     21  C   UNL d   1      53.316  32.998  53.795  0.00  0.00     0.021 A 
ATOM     22  C   UNL d   1      53.470  32.905  54.593  0.00  0.00     0.043 A 
ATOM     23  C   UNL d   1      54.245  32.741  54.853  0.00  0.00     0.196 A 
ATOM     24  O   UNL d   1      54.394  32.650  55.648  0.00  0.00    -0.287 OA
ATOM     25  C   UNL d   1      54.846  32.674  54.308  0.00  0.00     0.042 A 
ATOM     26  C   UNL d   1      54.697  32.766  53.509  0.00  0.00     0.003 A 
ATOM     27  C   UNL d   1      53.932  32.928  53.253  0.00  0.00     0.002 A 
ENDBRANCH   6  21
TORSDOF 4
ENDMDL
