MODEL 1
REMARK VINA RESULT:      -7.4      0.000      0.000
REMARK  5 active torsions:
REMARK  status: ('A' for Active; 'I' for Inactive)
REMARK    1  A    between atoms: C_14  and  C_4 
REMARK    2  A    between atoms: S_11  and  C_5 
REMARK    3  A    between atoms: C_10  and  C_12 
REMARK    4  A    between atoms: C_15  and  S_11 
REMARK    5  A    between atoms: C_12  and  C_15 
ROOT
ATOM      1  N   UNL d   1     -47.887  12.541  23.037  0.00  0.00    -0.206 N 
ATOM      2  C   UNL d   1     -48.494  13.085  22.885  0.00  0.00     0.166 A 
ATOM      3  N   UNL d   1     -48.848  11.517  23.188  0.00  0.00    -0.163 NA
ATOM      4  C   UNL d   1     -49.272  12.849  22.885  0.00  0.00     0.055 A 
ATOM      5  C   UNL d   1     -47.118  12.798  23.032  0.00  0.00     0.116 A 
ATOM      6  C   UNL d   1     -49.445  12.053  23.039  0.00  0.00     0.104 A 
ATOM      7  N   UNL d   1     -48.317  13.872  22.733  0.00  0.00    -0.227 NA
ATOM      8  C   UNL d   1     -46.922  13.580  22.882  0.00  0.00     0.045 A 
ATOM      9  C   UNL d   1     -47.526  14.121  22.731  0.00  0.00     0.085 A 
ATOM     10  C   UNL d   1     -50.221  11.819  23.038  0.00  0.00     0.023 C 
ATOM     11  C   UNL d   1     -47.342  14.941  22.573  0.00  0.00     0.021 C 
ENDROOT
BRANCH   5  12
ATOM     12  S   UNL d   1     -46.492  12.236  23.189  0.00  0.00    -0.064 SA
BRANCH  12  13
ATOM     13  C   UNL d   1     -45.731  11.861  23.191  0.00  0.00     0.079 C 
BRANCH  13  14
ATOM     14  C   UNL d   1     -45.652  11.065  23.453  0.00  0.00     0.208 C 
ATOM     15  O   UNL d   1     -46.333  10.628  23.695  0.00  0.00    -0.285 OA
BRANCH  14  16
ATOM     16  C   UNL d   1     -44.887  10.697  23.475  0.00  0.00     0.069 A 
ATOM     17  S   UNL d   1     -44.743   9.878  23.660  0.00  0.00    -0.083 SA
ATOM     18  C   UNL d   1     -43.906   9.753  23.618  0.00  0.00     0.035 A 
ATOM     19  C   UNL d   1     -43.536  10.482  23.410  0.00  0.00     0.008 A 
ATOM     20  C   UNL d   1     -44.152  11.067  23.323  0.00  0.00     0.010 A 
ENDBRANCH  14  16
ENDBRANCH  13  14
ENDBRANCH  12  13
ENDBRANCH   5  12
BRANCH   4  21
ATOM     21  C   UNL d   1     -49.869  13.385  22.735  0.00  0.00     0.004 A 
ATOM     22  C   UNL d   1     -50.170  13.459  21.989  0.00  0.00     0.000 A 
ATOM     23  C   UNL d   1     -50.759  13.983  21.829  0.00  0.00     0.000 A 
ATOM     24  C   UNL d   1     -51.064  14.456  22.436  0.00  0.00     0.000 A 
ATOM     25  C   UNL d   1     -50.761  14.379  23.185  0.00  0.00     0.000 A 
ATOM     26  C   UNL d   1     -50.162  13.843  23.334  0.00  0.00     0.000 A 
ENDBRANCH   4  21
TORSDOF 5
ENDMDL
MODEL 2
REMARK VINA RESULT:      -4.9      8.878     10.539
REMARK  5 active torsions:
REMARK  status: ('A' for Active; 'I' for Inactive)
REMARK    1  A    between atoms: C_14  and  C_4 
REMARK    2  A    between atoms: S_11  and  C_5 
REMARK    3  A    between atoms: C_10  and  C_12 
REMARK    4  A    between atoms: C_15  and  S_11 
REMARK    5  A    between atoms: C_12  and  C_15 
ROOT
ATOM      1  N   UNL d   1     -39.152  14.443  18.321  0.00  0.00    -0.206 N 
ATOM      2  C   UNL d   1     -39.705  14.668  18.896  0.00  0.00     0.166 A 
ATOM      3  N   UNL d   1     -38.307  13.941  19.334  0.00  0.00    -0.163 NA
ATOM      4  C   UNL d   1     -39.562  14.531  19.685  0.00  0.00     0.055 A 
ATOM      5  C   UNL d   1     -39.316  14.589  17.540  0.00  0.00     0.116 A 
ATOM      6  C   UNL d   1     -38.851  14.162  19.901  0.00  0.00     0.104 A 
ATOM      7  N   UNL d   1     -40.407  15.033  18.677  0.00  0.00    -0.227 NA
ATOM      8  C   UNL d   1     -40.011  14.953  17.303  0.00  0.00     0.045 A 
ATOM      9  C   UNL d   1     -40.561  15.177  17.875  0.00  0.00     0.085 A 
ATOM     10  C   UNL d   1     -38.710  14.026  20.687  0.00  0.00     0.023 C 
ATOM     11  C   UNL d   1     -41.292  15.557  17.647  0.00  0.00     0.021 C 
ENDROOT
BRANCH   5  12
ATOM     12  S   UNL d   1     -38.745  14.357  16.946  0.00  0.00    -0.064 SA
BRANCH  12  13
ATOM     13  C   UNL d   1     -38.390  13.964  16.284  0.00  0.00     0.079 C 
BRANCH  13  14
ATOM     14  C   UNL d   1     -38.163  14.403  15.602  0.00  0.00     0.208 C 
ATOM     15  O   UNL d   1     -38.009  15.231  15.663  0.00  0.00    -0.285 OA
BRANCH  14  16
ATOM     16  C   UNL d   1     -38.086  14.017  14.851  0.00  0.00     0.069 A 
ATOM     17  S   UNL d   1     -37.996  14.414  14.102  0.00  0.00    -0.083 SA
ATOM     18  C   UNL d   1     -37.940  13.816  13.505  0.00  0.00     0.035 A 
ATOM     19  C   UNL d   1     -37.995  13.061  13.875  0.00  0.00     0.008 A 
ATOM     20  C   UNL d   1     -38.086  13.191  14.714  0.00  0.00     0.010 A 
ENDBRANCH  14  16
ENDBRANCH  13  14
ENDBRANCH  12  13
ENDBRANCH   5  12
BRANCH   4  21
ATOM     21  C   UNL d   1     -40.106  14.753  20.251  0.00  0.00     0.004 A 
ATOM     22  C   UNL d   1     -40.042  15.471  20.616  0.00  0.00     0.000 A 
ATOM     23  C   UNL d   1     -40.572  15.701  21.176  0.00  0.00     0.000 A 
ATOM     24  C   UNL d   1     -41.194  15.196  21.385  0.00  0.00     0.000 A 
ATOM     25  C   UNL d   1     -41.255  14.475  21.018  0.00  0.00     0.000 A 
ATOM     26  C   UNL d   1     -40.710  14.253  20.450  0.00  0.00     0.000 A 
ENDBRANCH   4  21
TORSDOF 5
ENDMDL
