MODEL 1
REMARK VINA RESULT:      61.7      0.000      0.000
REMARK  5 active torsions:
REMARK  status: ('A' for Active; 'I' for Inactive)
REMARK    1  A    between atoms: N_3  and  S_1 
REMARK    2  A    between atoms: C_5  and  S_1 
REMARK    3  A    between atoms: C_2  and  C_6 
REMARK       I    between atoms: N_4  and  C_2 
REMARK    4  A    between atoms: C_11  and  N_3 
REMARK    5  A    between atoms: O_18  and  C_14 
ROOT
ATOM      1  C   UNL d   1     -48.674  28.836  34.773  0.00  0.00     0.058 A 
ATOM      2  C   UNL d   1     -48.918  28.478  34.076  0.00  0.00     0.025 A 
ATOM      3  C   UNL d   1     -49.163  27.690  34.070  0.00  0.00     0.094 A 
ATOM      4  C   UNL d   1     -48.675  28.399  35.485  0.00  0.00     0.005 A 
ATOM      5  C   UNL d   1     -48.920  27.611  35.478  0.00  0.00     0.002 A 
ATOM      6  C   UNL d   1     -49.164  27.252  34.777  0.00  0.00     0.020 A 
ENDROOT
BRANCH   3   7
ATOM      7  N   UNL d   1     -49.407  27.332  33.372  0.00  0.00    -0.158 NA
BRANCH   7   8
ATOM      8  S   UNL d   1     -50.058  26.832  33.362  0.00  0.00     0.285 S 
ATOM      9  O   UNL d   1     -49.556  26.181  33.306  0.00  0.00    -0.198 OA
ATOM     10  O   UNL d   1     -50.564  27.472  33.417  0.00  0.00    -0.198 OA
BRANCH   8  11
ATOM     11  C   UNL d   1     -50.709  26.327  33.352  0.00  0.00     0.107 A 
ATOM     12  C   UNL d   1     -50.597  25.503  33.370  0.00  0.00     0.037 A 
ATOM     13  C   UNL d   1     -51.247  25.007  33.360  0.00  0.00     0.095 A 
ATOM     14  C   UNL d   1     -52.008  25.321  33.331  0.00  0.00     0.024 A 
ATOM     15  C   UNL d   1     -52.124  26.129  33.313  0.00  0.00     0.003 A 
ATOM     16  C   UNL d   1     -51.474  26.634  33.323  0.00  0.00     0.013 A 
BRANCH  13  17
ATOM     17  O   UNL d   1     -51.138  24.179  33.378  0.00  0.00    -0.328 OA
ATOM     18  C   UNL d   1     -51.798  23.665  33.306  0.00  0.00     0.181 C 
ENDBRANCH  13  17
ENDBRANCH   8  11
ENDBRANCH   7   8
ENDBRANCH   3   7
BRANCH   1  19
ATOM     19  C   UNL d   1     -48.432  29.622  34.771  0.00  0.00     0.265 C 
ATOM     20  N   UNL d   1     -47.835  29.869  35.291  0.00  0.00    -0.268 N 
ATOM     21  C   UNL d   1     -47.590  30.659  35.290  0.00  0.00     0.110 A 
ATOM     22  C   UNL d   1     -47.490  29.330  35.805  0.00  0.00     0.110 A 
ATOM     23  C   UNL d   1     -46.998  30.901  35.807  0.00  0.00     0.142 A 
ATOM     24  O   UNL d   1     -46.653  30.360  36.321  0.00  0.00    -0.300 OA
ATOM     25  C   UNL d   1     -46.892  29.575  36.327  0.00  0.00     0.142 A 
ATOM     26  O   UNL d   1     -48.776  30.162  34.258  0.00  0.00    -0.267 OA
ENDBRANCH   1  19
TORSDOF 5
ENDMDL
MODEL 2
REMARK VINA RESULT:      63.3      1.245      5.495
REMARK  5 active torsions:
REMARK  status: ('A' for Active; 'I' for Inactive)
REMARK    1  A    between atoms: N_3  and  S_1 
REMARK    2  A    between atoms: C_5  and  S_1 
REMARK    3  A    between atoms: C_2  and  C_6 
REMARK       I    between atoms: N_4  and  C_2 
REMARK    4  A    between atoms: C_11  and  N_3 
REMARK    5  A    between atoms: O_18  and  C_14 
ROOT
ATOM      1  C   UNL d   1     -51.122  25.937  33.439  0.00  0.00     0.058 A 
ATOM      2  C   UNL d   1     -50.900  26.728  33.416  0.00  0.00     0.025 A 
ATOM      3  C   UNL d   1     -50.105  26.941  33.354  0.00  0.00     0.094 A 
ATOM      4  C   UNL d   1     -50.537  25.343  33.399  0.00  0.00     0.005 A 
ATOM      5  C   UNL d   1     -49.742  25.556  33.337  0.00  0.00     0.002 A 
ATOM      6  C   UNL d   1     -49.521  26.350  33.314  0.00  0.00     0.020 A 
ENDROOT
BRANCH   3   7
ATOM      7  N   UNL d   1     -49.884  27.732  33.331  0.00  0.00    -0.158 NA
BRANCH   7   8
ATOM      8  S   UNL d   1     -49.401  28.049  33.915  0.00  0.00     0.285 S 
ATOM      9  O   UNL d   1     -48.985  28.469  33.340  0.00  0.00    -0.198 OA
ATOM     10  O   UNL d   1     -49.808  27.636  34.491  0.00  0.00    -0.198 OA
BRANCH   8  11
ATOM     11  C   UNL d   1     -48.915  28.370  34.497  0.00  0.00     0.107 A 
ATOM     12  C   UNL d   1     -48.687  29.169  34.456  0.00  0.00     0.037 A 
ATOM     13  C   UNL d   1     -48.204  29.481  35.037  0.00  0.00     0.095 A 
ATOM     14  C   UNL d   1     -47.944  29.008  35.659  0.00  0.00     0.024 A 
ATOM     15  C   UNL d   1     -48.164  28.223  35.705  0.00  0.00     0.003 A 
ATOM     16  C   UNL d   1     -48.650  27.902  35.123  0.00  0.00     0.013 A 
BRANCH  13  17
ATOM     17  O   UNL d   1     -47.973  30.283  34.999  0.00  0.00    -0.328 OA
ATOM     18  C   UNL d   1     -48.289  30.785  34.404  0.00  0.00     0.181 C 
ENDBRANCH  13  17
ENDBRANCH   8  11
ENDBRANCH   7   8
ENDBRANCH   3   7
BRANCH   1  19
ATOM     19  C   UNL d   1     -51.916  25.733  33.501  0.00  0.00     0.265 C 
ATOM     20  N   UNL d   1     -52.140  24.936  33.458  0.00  0.00    -0.268 N 
ATOM     21  C   UNL d   1     -52.937  24.730  33.520  0.00  0.00     0.110 A 
ATOM     22  C   UNL d   1     -51.569  24.356  33.354  0.00  0.00     0.110 A 
ATOM     23  C   UNL d   1     -53.156  23.937  33.477  0.00  0.00     0.142 A 
ATOM     24  O   UNL d   1     -52.584  23.357  33.373  0.00  0.00    -0.300 OA
ATOM     25  C   UNL d   1     -51.791  23.555  33.311  0.00  0.00     0.142 A 
ATOM     26  O   UNL d   1     -52.487  26.314  33.604  0.00  0.00    -0.267 OA
ENDBRANCH   1  19
TORSDOF 5
ENDMDL
