MODEL 1
REMARK VINA RESULT:      -6.9      0.000      0.000
REMARK  2 active torsions:
REMARK  status: ('A' for Active; 'I' for Inactive)
REMARK    1  A    between atoms: C_7  and  N_2 
REMARK    2  A    between atoms: C_9  and  C_5 
ROOT
ATOM      1  C   UNL d   1     -48.001  13.445  22.244  0.00  0.00     0.208 A 
ATOM      2  N   UNL d   1     -48.093  14.068  22.781  0.00  0.00    -0.266 N 
ATOM      3  N   UNL d   1     -47.263  13.101  22.143  0.00  0.00    -0.199 NA
ATOM      4  N   UNL d   1     -46.701  13.992  23.107  0.00  0.00    -0.206 NA
ATOM      5  C   UNL d   1     -46.610  13.368  22.570  0.00  0.00     0.167 A 
ATOM      6  C   UNL d   1     -47.444  14.334  23.206  0.00  0.00     0.186 A 
ATOM      7  S   UNL d   1     -48.640  13.161  21.806  0.00  0.00    -0.038 SA
ENDROOT
BRANCH   2   8
ATOM      8  C   UNL d   1     -48.824  14.410  22.883  0.00  0.00     0.068 A 
ATOM      9  C   UNL d   1     -49.376  14.050  23.342  0.00  0.00     0.018 A 
ATOM     10  C   UNL d   1     -50.142  14.391  23.458  0.00  0.00     0.002 A 
ATOM     11  C   UNL d   1     -50.313  15.103  23.091  0.00  0.00     0.000 A 
ATOM     12  C   UNL d   1     -49.747  15.474  22.620  0.00  0.00     0.002 A 
ATOM     13  C   UNL d   1     -51.064  15.455  23.195  0.00  0.00     0.000 C 
ATOM     14  C   UNL d   1     -48.994  15.122  22.516  0.00  0.00     0.018 A 
ENDBRANCH   2   8
BRANCH   5  15
ATOM     15  C   UNL d   1     -45.890  13.026  22.465  0.00  0.00     0.036 A 
ATOM     16  C   UNL d   1     -45.337  13.365  21.950  0.00  0.00     0.003 A 
ATOM     17  C   UNL d   1     -44.601  13.022  21.837  0.00  0.00     0.000 A 
ATOM     18  C   UNL d   1     -44.403  12.317  22.247  0.00  0.00     0.000 A 
ATOM     19  C   UNL d   1     -44.946  11.974  22.760  0.00  0.00     0.000 A 
ATOM     20  C   UNL d   1     -45.692  12.320  22.875  0.00  0.00     0.003 A 
ENDBRANCH   5  15
TORSDOF 2
ENDMDL
MODEL 2
REMARK VINA RESULT:      -6.6      0.701      4.413
REMARK  2 active torsions:
REMARK  status: ('A' for Active; 'I' for Inactive)
REMARK    1  A    between atoms: C_7  and  N_2 
REMARK    2  A    between atoms: C_9  and  C_5 
ROOT
ATOM      1  C   UNL d   1     -48.166  13.140  22.762  0.00  0.00     0.208 A 
ATOM      2  N   UNL d   1     -47.456  13.562  22.816  0.00  0.00    -0.266 N 
ATOM      3  N   UNL d   1     -48.881  13.540  22.808  0.00  0.00    -0.199 NA
ATOM      4  N   UNL d   1     -48.192  14.781  22.962  0.00  0.00    -0.206 NA
ATOM      5  C   UNL d   1     -48.902  14.358  22.907  0.00  0.00     0.167 A 
ATOM      6  C   UNL d   1     -47.476  14.376  22.915  0.00  0.00     0.186 A 
ATOM      7  S   UNL d   1     -48.169  12.321  22.662  0.00  0.00    -0.038 SA
ENDROOT
BRANCH   2   8
ATOM      8  C   UNL d   1     -46.746  13.167  22.771  0.00  0.00     0.068 A 
ATOM      9  C   UNL d   1     -46.556  12.617  23.325  0.00  0.00     0.018 A 
ATOM     10  C   UNL d   1     -45.822  12.197  23.294  0.00  0.00     0.002 A 
ATOM     11  C   UNL d   1     -45.303  12.361  22.682  0.00  0.00     0.000 A 
ATOM     12  C   UNL d   1     -45.497  12.925  22.112  0.00  0.00     0.002 A 
ATOM     13  C   UNL d   1     -44.574  11.955  22.635  0.00  0.00     0.000 C 
ATOM     14  C   UNL d   1     -46.228  13.332  22.159  0.00  0.00     0.018 A 
ENDBRANCH   2   8
BRANCH   5  15
ATOM     15  C   UNL d   1     -49.607  14.742  22.951  0.00  0.00     0.036 A 
ATOM     16  C   UNL d   1     -50.112  14.765  22.295  0.00  0.00     0.003 A 
ATOM     17  C   UNL d   1     -50.833  15.154  22.331  0.00  0.00     0.000 A 
ATOM     18  C   UNL d   1     -51.064  15.536  23.043  0.00  0.00     0.000 A 
ATOM     19  C   UNL d   1     -50.569  15.517  23.698  0.00  0.00     0.000 A 
ATOM     20  C   UNL d   1     -49.839  15.124  23.663  0.00  0.00     0.003 A 
ENDBRANCH   5  15
TORSDOF 2
ENDMDL
MODEL 3
REMARK VINA RESULT:      -6.3      7.484     10.030
REMARK  2 active torsions:
REMARK  status: ('A' for Active; 'I' for Inactive)
REMARK    1  A    between atoms: C_7  and  N_2 
REMARK    2  A    between atoms: C_9  and  C_5 
ROOT
ATOM      1  C   UNL d   1     -39.033  14.852  18.285  0.00  0.00     0.208 A 
ATOM      2  N   UNL d   1     -39.442  14.425  17.706  0.00  0.00    -0.266 N 
ATOM      3  N   UNL d   1     -39.406  15.040  18.991  0.00  0.00    -0.199 NA
ATOM      4  N   UNL d   1     -40.594  14.380  18.553  0.00  0.00    -0.206 NA
ATOM      5  C   UNL d   1     -40.185  14.807  19.132  0.00  0.00     0.167 A 
ATOM      6  C   UNL d   1     -40.216  14.194  17.845  0.00  0.00     0.186 A 
ATOM      7  S   UNL d   1     -38.253  15.095  18.166  0.00  0.00    -0.038 SA
ENDROOT
BRANCH   2   8
ATOM      8  C   UNL d   1     -39.073  14.239  17.005  0.00  0.00     0.068 A 
ATOM      9  C   UNL d   1     -39.089  14.757  16.391  0.00  0.00     0.018 A 
ATOM     10  C   UNL d   1     -38.710  14.580  15.655  0.00  0.00     0.002 A 
ATOM     11  C   UNL d   1     -38.323  13.863  15.577  0.00  0.00     0.000 A 
ATOM     12  C   UNL d   1     -38.306  13.329  16.206  0.00  0.00     0.002 A 
ATOM     13  C   UNL d   1     -37.944  13.670  14.858  0.00  0.00     0.000 C 
ATOM     14  C   UNL d   1     -38.685  13.521  16.928  0.00  0.00     0.018 A 
ENDBRANCH   2   8
BRANCH   5  15
ATOM     15  C   UNL d   1     -40.544  14.995  19.827  0.00  0.00     0.036 A 
ATOM     16  C   UNL d   1     -40.540  14.458  20.458  0.00  0.00     0.003 A 
ATOM     17  C   UNL d   1     -40.903  14.642  21.169  0.00  0.00     0.000 A 
ATOM     18  C   UNL d   1     -41.285  15.384  21.263  0.00  0.00     0.000 A 
ATOM     19  C   UNL d   1     -41.292  15.922  20.642  0.00  0.00     0.000 A 
ATOM     20  C   UNL d   1     -40.925  15.738  19.920  0.00  0.00     0.003 A 
ENDBRANCH   5  15
TORSDOF 2
ENDMDL
MODEL 4
REMARK VINA RESULT:      -6.3      7.988      8.762
REMARK  2 active torsions:
REMARK  status: ('A' for Active; 'I' for Inactive)
REMARK    1  A    between atoms: C_7  and  N_2 
REMARK    2  A    between atoms: C_9  and  C_5 
ROOT
ATOM      1  C   UNL d   1     -39.159  14.856  19.931  0.00  0.00     0.208 A 
ATOM      2  N   UNL d   1     -39.973  14.811  19.782  0.00  0.00    -0.266 N 
ATOM      3  N   UNL d   1     -38.874  14.688  20.681  0.00  0.00    -0.199 NA
ATOM      4  N   UNL d   1     -40.201  14.429  21.142  0.00  0.00    -0.206 NA
ATOM      5  C   UNL d   1     -39.388  14.474  21.291  0.00  0.00     0.167 A 
ATOM      6  C   UNL d   1     -40.483  14.599  20.386  0.00  0.00     0.186 A 
ATOM      7  S   UNL d   1     -38.627  15.068  19.337  0.00  0.00    -0.038 SA
ENDROOT
BRANCH   2   8
ATOM      8  C   UNL d   1     -40.257  14.977  19.038  0.00  0.00     0.068 A 
ATOM      9  C   UNL d   1     -40.335  14.389  18.496  0.00  0.00     0.018 A 
ATOM     10  C   UNL d   1     -40.629  14.544  17.717  0.00  0.00     0.002 A 
ATOM     11  C   UNL d   1     -40.835  15.313  17.523  0.00  0.00     0.000 A 
ATOM     12  C   UNL d   1     -40.755  15.917  18.078  0.00  0.00     0.002 A 
ATOM     13  C   UNL d   1     -41.127  15.485  16.759  0.00  0.00     0.000 C 
ATOM     14  C   UNL d   1     -40.463  15.746  18.844  0.00  0.00     0.018 A 
ENDBRANCH   2   8
BRANCH   5  15
ATOM     15  C   UNL d   1     -39.100  14.311  22.023  0.00  0.00     0.036 A 
ATOM     16  C   UNL d   1     -38.962  13.527  22.254  0.00  0.00     0.003 A 
ATOM     17  C   UNL d   1     -38.668  13.352  22.999  0.00  0.00     0.000 A 
ATOM     18  C   UNL d   1     -38.504  13.974  23.538  0.00  0.00     0.000 A 
ATOM     19  C   UNL d   1     -38.638  14.754  23.317  0.00  0.00     0.000 A 
ATOM     20  C   UNL d   1     -38.936  14.933  22.563  0.00  0.00     0.003 A 
ENDBRANCH   5  15
TORSDOF 2
ENDMDL
MODEL 5
REMARK VINA RESULT:      -6.0      8.106      9.142
REMARK  2 active torsions:
REMARK  status: ('A' for Active; 'I' for Inactive)
REMARK    1  A    between atoms: C_7  and  N_2 
REMARK    2  A    between atoms: C_9  and  C_5 
ROOT
ATOM      1  C   UNL d   1     -39.030  14.875  20.044  0.00  0.00     0.208 A 
ATOM      2  N   UNL d   1     -39.555  14.563  20.604  0.00  0.00    -0.266 N 
ATOM      3  N   UNL d   1     -39.298  15.045  19.287  0.00  0.00    -0.199 NA
ATOM      4  N   UNL d   1     -40.608  14.597  19.635  0.00  0.00    -0.206 NA
ATOM      5  C   UNL d   1     -40.083  14.909  19.076  0.00  0.00     0.167 A 
ATOM      6  C   UNL d   1     -40.335  14.428  20.394  0.00  0.00     0.186 A 
ATOM      7  S   UNL d   1     -38.240  15.019  20.233  0.00  0.00    -0.038 SA
ENDROOT
BRANCH   2   8
ATOM      8  C   UNL d   1     -39.291  14.394  21.354  0.00  0.00     0.068 A 
ATOM      9  C   UNL d   1     -38.984  13.669  21.519  0.00  0.00     0.018 A 
ATOM     10  C   UNL d   1     -38.705  13.476  22.295  0.00  0.00     0.002 A 
ATOM     11  C   UNL d   1     -38.754  14.046  22.881  0.00  0.00     0.000 A 
ATOM     12  C   UNL d   1     -39.068  14.789  22.714  0.00  0.00     0.002 A 
ATOM     13  C   UNL d   1     -38.483  13.872  23.653  0.00  0.00     0.000 C 
ATOM     14  C   UNL d   1     -39.340  14.963  21.941  0.00  0.00     0.018 A 
ENDBRANCH   2   8
BRANCH   5  15
ATOM     15  C   UNL d   1     -40.337  15.079  18.332  0.00  0.00     0.036 A 
ATOM     16  C   UNL d   1     -40.815  15.741  18.194  0.00  0.00     0.003 A 
ATOM     17  C   UNL d   1     -41.078  15.922  17.439  0.00  0.00     0.000 A 
ATOM     18  C   UNL d   1     -40.860  15.429  16.794  0.00  0.00     0.000 A 
ATOM     19  C   UNL d   1     -40.387  14.770  16.923  0.00  0.00     0.000 A 
ATOM     20  C   UNL d   1     -40.120  14.587  17.687  0.00  0.00     0.003 A 
ENDBRANCH   5  15
TORSDOF 2
ENDMDL
MODEL 6
REMARK VINA RESULT:      -6.0      1.427      4.399
REMARK  2 active torsions:
REMARK  status: ('A' for Active; 'I' for Inactive)
REMARK    1  A    between atoms: C_7  and  N_2 
REMARK    2  A    between atoms: C_9  and  C_5 
ROOT
ATOM      1  C   UNL d   1     -47.324  12.462  23.224  0.00  0.00     0.208 A 
ATOM      2  N   UNL d   1     -47.132  12.966  22.595  0.00  0.00    -0.266 N 
ATOM      3  N   UNL d   1     -48.109  12.361  23.437  0.00  0.00    -0.199 NA
ATOM      4  N   UNL d   1     -48.519  13.260  22.406  0.00  0.00    -0.206 NA
ATOM      5  C   UNL d   1     -48.711  12.756  23.035  0.00  0.00     0.167 A 
ATOM      6  C   UNL d   1     -47.729  13.358  22.195  0.00  0.00     0.186 A 
ATOM      7  S   UNL d   1     -46.738  12.058  23.641  0.00  0.00    -0.038 SA
ENDROOT
BRANCH   2   8
ATOM      8  C   UNL d   1     -46.353  13.068  22.382  0.00  0.00     0.068 A 
ATOM      9  C   UNL d   1     -45.975  13.756  22.553  0.00  0.00     0.018 A 
ATOM     10  C   UNL d   1     -45.165  13.879  22.339  0.00  0.00     0.002 A 
ATOM     11  C   UNL d   1     -44.769  13.277  21.950  0.00  0.00     0.000 A 
ATOM     12  C   UNL d   1     -45.155  12.570  21.773  0.00  0.00     0.002 A 
ATOM     13  C   UNL d   1     -43.969  13.380  21.730  0.00  0.00     0.000 C 
ATOM     14  C   UNL d   1     -45.956  12.466  21.993  0.00  0.00     0.018 A 
ENDBRANCH   2   8
BRANCH   5  15
ATOM     15  C   UNL d   1     -49.479  12.651  23.251  0.00  0.00     0.036 A 
ATOM     16  C   UNL d   1     -49.981  13.303  23.339  0.00  0.00     0.003 A 
ATOM     17  C   UNL d   1     -50.765  13.205  23.560  0.00  0.00     0.000 A 
ATOM     18  C   UNL d   1     -51.064  12.433  23.698  0.00  0.00     0.000 A 
ATOM     19  C   UNL d   1     -50.572  11.780  23.612  0.00  0.00     0.000 A 
ATOM     20  C   UNL d   1     -49.779  11.878  23.389  0.00  0.00     0.003 A 
ENDBRANCH   5  15
TORSDOF 2
ENDMDL
MODEL 7
REMARK VINA RESULT:      -5.6      7.505      9.571
REMARK  2 active torsions:
REMARK  status: ('A' for Active; 'I' for Inactive)
REMARK    1  A    between atoms: C_7  and  N_2 
REMARK    2  A    between atoms: C_9  and  C_5 
ROOT
ATOM      1  C   UNL d   1     -39.030  14.938  18.541  0.00  0.00     0.208 A 
ATOM      2  N   UNL d   1     -39.852  14.860  18.597  0.00  0.00    -0.266 N 
ATOM      3  N   UNL d   1     -38.656  14.794  17.825  0.00  0.00    -0.199 NA
ATOM      4  N   UNL d   1     -39.912  14.494  17.215  0.00  0.00    -0.206 NA
ATOM      5  C   UNL d   1     -39.089  14.572  17.159  0.00  0.00     0.167 A 
ATOM      6  C   UNL d   1     -40.283  14.640  17.936  0.00  0.00     0.186 A 
ATOM      7  S   UNL d   1     -38.576  15.158  19.194  0.00  0.00    -0.038 SA
ENDROOT
BRANCH   2   8
ATOM      8  C   UNL d   1     -40.224  15.002  19.307  0.00  0.00     0.068 A 
ATOM      9  C   UNL d   1     -40.382  14.394  19.807  0.00  0.00     0.018 A 
ATOM     10  C   UNL d   1     -40.769  14.523  20.549  0.00  0.00     0.002 A 
ATOM     11  C   UNL d   1     -40.981  15.288  20.751  0.00  0.00     0.000 A 
ATOM     12  C   UNL d   1     -40.819  15.914  20.239  0.00  0.00     0.002 A 
ATOM     13  C   UNL d   1     -41.363  15.435  21.480  0.00  0.00     0.000 C 
ATOM     14  C   UNL d   1     -40.436  15.767  19.508  0.00  0.00     0.018 A 
ENDBRANCH   2   8
BRANCH   5  15
ATOM     15  C   UNL d   1     -38.715  14.433  16.461  0.00  0.00     0.036 A 
ATOM     16  C   UNL d   1     -38.499  15.064  15.969  0.00  0.00     0.003 A 
ATOM     17  C   UNL d   1     -38.117  14.931  15.256  0.00  0.00     0.000 A 
ATOM     18  C   UNL d   1     -37.941  14.145  15.019  0.00  0.00     0.000 A 
ATOM     19  C   UNL d   1     -38.151  13.514  15.502  0.00  0.00     0.000 A 
ATOM     20  C   UNL d   1     -38.538  13.647  16.224  0.00  0.00     0.003 A 
ENDBRANCH   5  15
TORSDOF 2
ENDMDL
