MODEL 1
REMARK VINA RESULT:      -9.8      0.000      0.000
REMARK  3 active torsions:
REMARK  status: ('A' for Active; 'I' for Inactive)
REMARK    1  A    between atoms: C_12  and  C_4 
REMARK    2  A    between atoms: O_13  and  C_7 
REMARK    3  A    between atoms: O_14  and  C_10 
ROOT
ATOM      1  C   UNL d   1      53.202  33.435  53.795  0.00  0.00     0.084 A 
ATOM      2  C   UNL d   1      52.931  34.211  53.862  0.00  0.00     0.201 A 
ATOM      3  C   UNL d   1      52.234  34.431  53.480  0.00  0.00     0.067 A 
ATOM      4  C   UNL d   1      51.810  33.878  53.032  0.00  0.00     0.103 A 
ATOM      5  C   UNL d   1      52.778  32.881  53.347  0.00  0.00     0.107 A 
ATOM      6  O   UNL d   1      52.083  33.104  52.967  0.00  0.00    -0.307 OA
ATOM      7  C   UNL d   1      53.898  33.215  54.178  0.00  0.00     0.101 A 
ATOM      8  C   UNL d   1      53.053  32.111  53.285  0.00  0.00     0.049 A 
ATOM      9  C   UNL d   1      54.169  32.439  54.111  0.00  0.00     0.049 A 
ATOM     10  C   UNL d   1      53.750  31.892  53.668  0.00  0.00     0.098 A 
ATOM     11  O   UNL d   1      53.353  34.755  54.306  0.00  0.00    -0.286 OA
ENDROOT
BRANCH   4  12
ATOM     12  C   UNL d   1      51.119  34.104  52.654  0.00  0.00     0.023 A 
ATOM     13  C   UNL d   1      51.099  34.151  51.837  0.00  0.00     0.002 A 
ATOM     14  C   UNL d   1      50.407  34.378  51.449  0.00  0.00     0.000 A 
ATOM     15  C   UNL d   1      49.725  34.560  51.894  0.00  0.00     0.000 A 
ATOM     16  C   UNL d   1      49.755  34.510  52.710  0.00  0.00     0.000 A 
ATOM     17  C   UNL d   1      50.447  34.283  53.098  0.00  0.00     0.002 A 
ENDBRANCH   4  12
BRANCH   7  18
ATOM     18  O   UNL d   1      54.317  33.762  54.621  0.00  0.00    -0.328 OA
ATOM     19  C   UNL d   1      54.940  33.512  55.092  0.00  0.00     0.181 C 
ENDBRANCH   7  18
BRANCH  10  20
ATOM     20  O   UNL d   1      54.021  31.114  53.601  0.00  0.00    -0.328 OA
ATOM     21  C   UNL d   1      53.479  30.493  53.637  0.00  0.00     0.181 C 
ENDBRANCH  10  20
TORSDOF 3
ENDMDL
MODEL 2
REMARK VINA RESULT:      -9.5      0.872      3.563
REMARK  3 active torsions:
REMARK  status: ('A' for Active; 'I' for Inactive)
REMARK    1  A    between atoms: C_12  and  C_4 
REMARK    2  A    between atoms: O_13  and  C_7 
REMARK    3  A    between atoms: O_14  and  C_10 
ROOT
ATOM      1  C   UNL d   1      52.837  33.503  53.627  0.00  0.00     0.084 A 
ATOM      2  C   UNL d   1      53.487  33.146  53.989  0.00  0.00     0.201 A 
ATOM      3  C   UNL d   1      53.575  32.327  53.945  0.00  0.00     0.067 A 
ATOM      4  C   UNL d   1      53.016  31.867  53.541  0.00  0.00     0.103 A 
ATOM      5  C   UNL d   1      52.278  33.043  53.222  0.00  0.00     0.107 A 
ATOM      6  O   UNL d   1      52.370  32.226  53.181  0.00  0.00    -0.307 OA
ATOM      7  C   UNL d   1      52.749  34.321  53.670  0.00  0.00     0.101 A 
ATOM      8  C   UNL d   1      51.635  33.405  52.865  0.00  0.00     0.049 A 
ATOM      9  C   UNL d   1      52.099  34.678  53.308  0.00  0.00     0.049 A 
ATOM     10  C   UNL d   1      51.547  34.224  52.909  0.00  0.00     0.098 A 
ATOM     11  O   UNL d   1      54.036  33.604  54.387  0.00  0.00    -0.286 OA
ENDROOT
BRANCH   4  12
ATOM     12  C   UNL d   1      53.111  31.053  53.501  0.00  0.00     0.023 A 
ATOM     13  C   UNL d   1      53.049  30.672  52.780  0.00  0.00     0.002 A 
ATOM     14  C   UNL d   1      53.143  29.853  52.732  0.00  0.00     0.000 A 
ATOM     15  C   UNL d   1      53.302  29.415  53.423  0.00  0.00     0.000 A 
ATOM     16  C   UNL d   1      53.362  29.806  54.140  0.00  0.00     0.000 A 
ATOM     17  C   UNL d   1      53.268  30.624  54.188  0.00  0.00     0.002 A 
ENDBRANCH   4  12
BRANCH   7  18
ATOM     18  O   UNL d   1      53.301  34.776  54.070  0.00  0.00    -0.328 OA
ATOM     19  C   UNL d   1      53.125  35.554  54.262  0.00  0.00     0.181 C 
ENDBRANCH   7  18
BRANCH  10  20
ATOM     20  O   UNL d   1      50.897  34.581  52.547  0.00  0.00    -0.328 OA
ATOM     21  C   UNL d   1      50.138  34.413  52.822  0.00  0.00     0.181 C 
ENDBRANCH  10  20
TORSDOF 3
ENDMDL
MODEL 3
REMARK VINA RESULT:      -9.1      0.718      1.945
REMARK  3 active torsions:
REMARK  status: ('A' for Active; 'I' for Inactive)
REMARK    1  A    between atoms: C_12  and  C_4 
REMARK    2  A    between atoms: O_13  and  C_7 
REMARK    3  A    between atoms: O_14  and  C_10 
ROOT
ATOM      1  C   UNL d   1      53.024  32.281  53.505  0.00  0.00     0.084 A 
ATOM      2  C   UNL d   1      52.516  32.023  52.909  0.00  0.00     0.201 A 
ATOM      3  C   UNL d   1      51.902  32.514  52.661  0.00  0.00     0.067 A 
ATOM      4  C   UNL d   1      51.797  33.260  53.006  0.00  0.00     0.103 A 
ATOM      5  C   UNL d   1      52.919  33.027  53.850  0.00  0.00     0.107 A 
ATOM      6  O   UNL d   1      52.306  33.514  53.600  0.00  0.00    -0.307 OA
ATOM      7  C   UNL d   1      53.638  31.790  53.754  0.00  0.00     0.101 A 
ATOM      8  C   UNL d   1      53.429  33.277  54.442  0.00  0.00     0.049 A 
ATOM      9  C   UNL d   1      54.147  32.047  54.349  0.00  0.00     0.049 A 
ATOM     10  C   UNL d   1      54.043  32.785  54.691  0.00  0.00     0.098 A 
ATOM     11  O   UNL d   1      52.623  31.284  52.571  0.00  0.00    -0.286 OA
ENDROOT
BRANCH   4  12
ATOM     12  C   UNL d   1      51.184  33.743  52.753  0.00  0.00     0.023 A 
ATOM     13  C   UNL d   1      51.187  34.037  51.990  0.00  0.00     0.002 A 
ATOM     14  C   UNL d   1      50.574  34.523  51.728  0.00  0.00     0.000 A 
ATOM     15  C   UNL d   1      49.949  34.715  52.246  0.00  0.00     0.000 A 
ATOM     16  C   UNL d   1      49.955  34.416  53.008  0.00  0.00     0.000 A 
ATOM     17  C   UNL d   1      50.568  33.929  53.270  0.00  0.00     0.002 A 
ENDBRANCH   4  12
BRANCH   7  18
ATOM     18  O   UNL d   1      53.742  31.052  53.413  0.00  0.00    -0.328 OA
ATOM     19  C   UNL d   1      54.023  30.430  53.866  0.00  0.00     0.181 C 
ENDBRANCH   7  18
BRANCH  10  20
ATOM     20  O   UNL d   1      54.553  33.043  55.287  0.00  0.00    -0.328 OA
ATOM     21  C   UNL d   1      55.066  33.672  55.136  0.00  0.00     0.181 C 
ENDBRANCH  10  20
TORSDOF 3
ENDMDL
MODEL 4
REMARK VINA RESULT:      -9.1      1.678      3.581
REMARK  3 active torsions:
REMARK  status: ('A' for Active; 'I' for Inactive)
REMARK    1  A    between atoms: C_12  and  C_4 
REMARK    2  A    between atoms: O_13  and  C_7 
REMARK    3  A    between atoms: O_14  and  C_10 
ROOT
ATOM      1  C   UNL d   1      53.204  33.173  53.860  0.00  0.00     0.084 A 
ATOM      2  C   UNL d   1      52.648  32.853  53.342  0.00  0.00     0.201 A 
ATOM      3  C   UNL d   1      52.619  32.036  53.233  0.00  0.00     0.067 A 
ATOM      4  C   UNL d   1      53.144  31.541  53.640  0.00  0.00     0.103 A 
ATOM      5  C   UNL d   1      53.729  32.678  54.267  0.00  0.00     0.107 A 
ATOM      6  O   UNL d   1      53.698  31.863  54.156  0.00  0.00    -0.307 OA
ATOM      7  C   UNL d   1      53.233  33.990  53.969  0.00  0.00     0.101 A 
ATOM      8  C   UNL d   1      54.280  33.003  54.781  0.00  0.00     0.049 A 
ATOM      9  C   UNL d   1      53.789  34.310  54.487  0.00  0.00     0.049 A 
ATOM     10  C   UNL d   1      54.308  33.820  54.890  0.00  0.00     0.098 A 
ATOM     11  O   UNL d   1      52.131  33.347  52.942  0.00  0.00    -0.286 OA
ENDROOT
BRANCH   4  12
ATOM     12  C   UNL d   1      53.110  30.730  53.526  0.00  0.00     0.023 A 
ATOM     13  C   UNL d   1      53.282  30.225  54.147  0.00  0.00     0.002 A 
ATOM     14  C   UNL d   1      53.250  29.408  54.041  0.00  0.00     0.000 A 
ATOM     15  C   UNL d   1      53.040  29.096  53.296  0.00  0.00     0.000 A 
ATOM     16  C   UNL d   1      52.869  29.609  52.682  0.00  0.00     0.000 A 
ATOM     17  C   UNL d   1      52.902  30.426  52.788  0.00  0.00     0.002 A 
ENDBRANCH   4  12
BRANCH   7  18
ATOM     18  O   UNL d   1      52.714  34.479  53.567  0.00  0.00    -0.328 OA
ATOM     19  C   UNL d   1      52.672  35.275  53.760  0.00  0.00     0.181 C 
ENDBRANCH   7  18
BRANCH  10  20
ATOM     20  O   UNL d   1      54.865  34.140  55.409  0.00  0.00    -0.328 OA
ATOM     21  C   UNL d   1      55.669  34.019  55.264  0.00  0.00     0.181 C 
ENDBRANCH  10  20
TORSDOF 3
ENDMDL
MODEL 5
REMARK VINA RESULT:      -7.6      2.433      3.731
REMARK  3 active torsions:
REMARK  status: ('A' for Active; 'I' for Inactive)
REMARK    1  A    between atoms: C_12  and  C_4 
REMARK    2  A    between atoms: O_13  and  C_7 
REMARK    3  A    between atoms: O_14  and  C_10 
ROOT
ATOM      1  C   UNL d   1      53.220  30.964  53.514  0.00  0.00     0.084 A 
ATOM      2  C   UNL d   1      53.270  31.653  53.063  0.00  0.00     0.201 A 
ATOM      3  C   UNL d   1      53.530  32.351  53.418  0.00  0.00     0.067 A 
ATOM      4  C   UNL d   1      53.739  32.360  54.220  0.00  0.00     0.103 A 
ATOM      5  C   UNL d   1      53.429  30.973  54.316  0.00  0.00     0.107 A 
ATOM      6  O   UNL d   1      53.688  31.671  54.667  0.00  0.00    -0.307 OA
ATOM      7  C   UNL d   1      52.961  30.266  53.159  0.00  0.00     0.101 A 
ATOM      8  C   UNL d   1      53.377  30.284  54.758  0.00  0.00     0.049 A 
ATOM      9  C   UNL d   1      52.910  29.577  53.610  0.00  0.00     0.049 A 
ATOM     10  C   UNL d   1      53.117  29.586  54.402  0.00  0.00     0.098 A 
ATOM     11  O   UNL d   1      53.063  31.639  52.271  0.00  0.00    -0.286 OA
ENDROOT
BRANCH   4  12
ATOM     12  C   UNL d   1      53.996  33.057  54.566  0.00  0.00     0.023 A 
ATOM     13  C   UNL d   1      53.463  33.661  54.707  0.00  0.00     0.002 A 
ATOM     14  C   UNL d   1      53.714  34.366  55.054  0.00  0.00     0.000 A 
ATOM     15  C   UNL d   1      54.516  34.461  55.262  0.00  0.00     0.000 A 
ATOM     16  C   UNL d   1      55.042  33.851  55.118  0.00  0.00     0.000 A 
ATOM     17  C   UNL d   1      54.791  33.146  54.770  0.00  0.00     0.002 A 
ENDBRANCH   4  12
BRANCH   7  18
ATOM     18  O   UNL d   1      52.754  30.257  52.367  0.00  0.00    -0.328 OA
ATOM     19  C   UNL d   1      52.653  29.541  51.981  0.00  0.00     0.181 C 
ENDBRANCH   7  18
BRANCH  10  20
ATOM     20  O   UNL d   1      53.067  28.896  54.854  0.00  0.00    -0.328 OA
ATOM     21  C   UNL d   1      53.751  28.458  55.000  0.00  0.00     0.181 C 
ENDBRANCH  10  20
TORSDOF 3
ENDMDL
MODEL 6
REMARK VINA RESULT:      -7.3      2.712      5.612
REMARK  3 active torsions:
REMARK  status: ('A' for Active; 'I' for Inactive)
REMARK    1  A    between atoms: C_12  and  C_4 
REMARK    2  A    between atoms: O_13  and  C_7 
REMARK    3  A    between atoms: O_14  and  C_10 
ROOT
ATOM      1  C   UNL d   1      48.433  35.220  52.201  0.00  0.00     0.084 A 
ATOM      2  C   UNL d   1      48.786  34.723  51.645  0.00  0.00     0.201 A 
ATOM      3  C   UNL d   1      49.517  34.381  51.813  0.00  0.00     0.067 A 
ATOM      4  C   UNL d   1      49.895  34.536  52.535  0.00  0.00     0.103 A 
ATOM      5  C   UNL d   1      48.811  35.374  52.923  0.00  0.00     0.107 A 
ATOM      6  O   UNL d   1      49.541  35.032  53.087  0.00  0.00    -0.307 OA
ATOM      7  C   UNL d   1      47.702  35.561  52.033  0.00  0.00     0.101 A 
ATOM      8  C   UNL d   1      48.455  35.870  53.471  0.00  0.00     0.049 A 
ATOM      9  C   UNL d   1      47.350  36.058  52.589  0.00  0.00     0.049 A 
ATOM     10  C   UNL d   1      47.723  36.211  53.302  0.00  0.00     0.098 A 
ATOM     11  O   UNL d   1      48.409  34.573  50.934  0.00  0.00    -0.286 OA
ENDROOT
BRANCH   4  12
ATOM     12  C   UNL d   1      50.623  34.193  52.695  0.00  0.00     0.023 A 
ATOM     13  C   UNL d   1      50.664  33.541  53.187  0.00  0.00     0.002 A 
ATOM     14  C   UNL d   1      51.392  33.190  53.353  0.00  0.00     0.000 A 
ATOM     15  C   UNL d   1      52.088  33.504  53.017  0.00  0.00     0.000 A 
ATOM     16  C   UNL d   1      52.036  34.156  52.526  0.00  0.00     0.000 A 
ATOM     17  C   UNL d   1      51.308  34.507  52.360  0.00  0.00     0.002 A 
ENDBRANCH   4  12
BRANCH   7  18
ATOM     18  O   UNL d   1      47.329  35.408  51.320  0.00  0.00    -0.328 OA
ATOM     19  C   UNL d   1      46.555  35.654  51.205  0.00  0.00     0.181 C 
ENDBRANCH   7  18
BRANCH  10  20
ATOM     20  O   UNL d   1      47.370  36.708  53.859  0.00  0.00    -0.328 OA
ATOM     21  C   UNL d   1      47.175  36.408  54.602  0.00  0.00     0.181 C 
ENDBRANCH  10  20
TORSDOF 3
ENDMDL
