MODEL 1
REMARK VINA RESULT:      -6.3      0.000      0.000
REMARK  5 active torsions:
REMARK  status: ('A' for Active; 'I' for Inactive)
REMARK    1  A    between atoms: N_2  and  S_1 
REMARK    2  A    between atoms: C_5  and  S_1 
REMARK    3  A    between atoms: C_3  and  N_2 
REMARK    4  A    between atoms: C_4  and  C_3 
REMARK       I    between atoms: N_8  and  C_4 
REMARK    5  A    between atoms: C_13  and  N_8 
ROOT
ATOM      1  N   UNL d   1     -41.532-122.563 -51.417  0.00  0.00    -0.223 N 
ATOM      2  C   UNL d   1     -41.585-121.781 -51.160  0.00  0.00     0.112 C 
ENDROOT
BRANCH   1   3
ATOM      3  S   UNL d   1     -41.878-123.162 -50.974  0.00  0.00     0.272 S 
ATOM      4  O   UNL d   1     -42.235-123.803 -51.351  0.00  0.00    -0.200 OA
ATOM      5  O   UNL d   1     -41.483-122.461 -50.794  0.00  0.00    -0.200 OA
BRANCH   3   6
ATOM      6  C   UNL d   1     -41.869-123.126 -50.151  0.00  0.00     0.104 A 
ATOM      7  C   UNL d   1     -42.531-122.848 -49.741  0.00  0.00     0.013 A 
ATOM      8  C   UNL d   1     -42.514-122.815 -48.915  0.00  0.00     0.001 A 
ATOM      9  C   UNL d   1     -41.844-123.056 -48.499  0.00  0.00     0.000 A 
ATOM     10  C   UNL d   1     -41.184-123.332 -48.904  0.00  0.00     0.001 A 
ATOM     11  C   UNL d   1     -41.838-123.018 -47.669  0.00  0.00     0.000 C 
ATOM     12  C   UNL d   1     -41.192-123.369 -49.731  0.00  0.00     0.013 A 
ENDBRANCH   3   6
ENDBRANCH   1   3
BRANCH   1  13
ATOM     13  C   UNL d   1     -41.135-122.742 -52.115  0.00  0.00     0.154 C 
BRANCH  13  14
ATOM     14  C   UNL d   1     -41.339-122.370 -52.823  0.00  0.00     0.298 C 
ATOM     15  N   UNL d   1     -41.554-122.813 -53.484  0.00  0.00    -0.207 NA
ATOM     16  O   UNL d   1     -41.326-121.546 -52.865  0.00  0.00    -0.264 OA
BRANCH  15  17
ATOM     17  C   UNL d   1     -41.756-122.432 -54.185  0.00  0.00     0.088 A 
ATOM     18  C   UNL d   1     -42.424-121.957 -54.209  0.00  0.00     0.040 A 
ATOM     19  C   UNL d   1     -42.626-121.576 -54.911  0.00  0.00     0.101 A 
ATOM     20  N   UNL d   1     -42.156-121.674 -55.579  0.00  0.00    -0.242 NA
ATOM     21  C   UNL d   1     -41.486-122.152 -55.547  0.00  0.00     0.101 A 
ATOM     22  C   UNL d   1     -41.288-122.531 -54.846  0.00  0.00     0.040 A 
ENDBRANCH  15  17
ENDBRANCH  13  14
ENDBRANCH   1  13
TORSDOF 5
ENDMDL
MODEL 2
REMARK VINA RESULT:      -5.5      1.134      4.784
REMARK  5 active torsions:
REMARK  status: ('A' for Active; 'I' for Inactive)
REMARK    1  A    between atoms: N_2  and  S_1 
REMARK    2  A    between atoms: C_5  and  S_1 
REMARK    3  A    between atoms: C_3  and  N_2 
REMARK    4  A    between atoms: C_4  and  C_3 
REMARK       I    between atoms: N_8  and  C_4 
REMARK    5  A    between atoms: C_13  and  N_8 
ROOT
ATOM      1  N   UNL d   1     -41.438-122.531 -52.431  0.00  0.00    -0.223 N 
ATOM      2  C   UNL d   1     -41.668-121.739 -52.451  0.00  0.00     0.112 C 
ENDROOT
BRANCH   1   3
ATOM      3  S   UNL d   1     -41.525-122.998 -53.100  0.00  0.00     0.272 S 
ATOM      4  O   UNL d   1     -41.441-123.817 -53.048  0.00  0.00    -0.200 OA
ATOM      5  O   UNL d   1     -41.568-122.190 -52.947  0.00  0.00    -0.200 OA
BRANCH   3   6
ATOM      6  C   UNL d   1     -41.696-122.651 -53.827  0.00  0.00     0.104 A 
ATOM      7  C   UNL d   1     -42.435-122.304 -53.957  0.00  0.00     0.013 A 
ATOM      8  C   UNL d   1     -42.599-121.958 -54.690  0.00  0.00     0.001 A 
ATOM      9  C   UNL d   1     -42.033-121.956 -55.290  0.00  0.00     0.000 A 
ATOM     10  C   UNL d   1     -41.296-122.301 -55.163  0.00  0.00     0.001 A 
ATOM     11  C   UNL d   1     -42.208-121.605 -56.022  0.00  0.00     0.000 C 
ATOM     12  C   UNL d   1     -41.124-122.650 -54.433  0.00  0.00     0.013 A 
ENDBRANCH   3   6
ENDBRANCH   1   3
BRANCH   1  13
ATOM     13  C   UNL d   1     -41.123-122.852 -51.741  0.00  0.00     0.154 C 
BRANCH  13  14
ATOM     14  C   UNL d   1     -41.501-122.743 -51.015  0.00  0.00     0.298 C 
ATOM     15  N   UNL d   1     -41.637-123.381 -50.512  0.00  0.00    -0.207 NA
ATOM     16  O   UNL d   1     -41.742-121.985 -50.795  0.00  0.00    -0.264 OA
BRANCH  15  17
ATOM     17  C   UNL d   1     -42.015-123.261 -49.791  0.00  0.00     0.088 A 
ATOM     18  C   UNL d   1     -41.577-123.018 -49.141  0.00  0.00     0.040 A 
ATOM     19  C   UNL d   1     -41.956-122.898 -48.419  0.00  0.00     0.101 A 
ATOM     20  N   UNL d   1     -42.767-123.022 -48.357  0.00  0.00    -0.242 NA
ATOM     21  C   UNL d   1     -43.200-123.266 -49.014  0.00  0.00     0.101 A 
ATOM     22  C   UNL d   1     -42.820-123.385 -49.732  0.00  0.00     0.040 A 
ENDBRANCH  15  17
ENDBRANCH  13  14
ENDBRANCH   1  13
TORSDOF 5
ENDMDL
