MODEL 1
REMARK VINA RESULT:      63.1      0.000      0.000
REMARK  3 active torsions:
REMARK  status: ('A' for Active; 'I' for Inactive)
REMARK    1  A    between atoms: C_12  and  C_3 
REMARK       I    between atoms: C_6  and  N_9 
REMARK    2  A    between atoms: C_7  and  C_6 
REMARK    3  A    between atoms: N_9  and  C_22 
ROOT
ATOM      1  C   UNL d   1     -51.144  25.888  33.670  0.00  0.00     0.019 A 
ATOM      2  C   UNL d   1     -51.477  26.619  33.861  0.00  0.00     0.003 A 
ATOM      3  C   UNL d   1     -50.327  25.820  33.571  0.00  0.00     0.003 A 
ATOM      4  C   UNL d   1     -50.178  27.213  33.853  0.00  0.00     0.085 A 
ATOM      5  C   UNL d   1     -49.844  26.483  33.662  0.00  0.00     0.019 A 
ATOM      6  C   UNL d   1     -50.994  27.281  33.952  0.00  0.00     0.019 A 
ENDROOT
BRANCH   4   7
ATOM      7  N   UNL d   1     -49.697  27.872  33.943  0.00  0.00    -0.208 NA
ATOM      8  C   UNL d   1     -49.199  27.933  34.589  0.00  0.00     0.279 C 
ATOM      9  O   UNL d   1     -49.177  27.326  35.158  0.00  0.00    -0.265 OA
BRANCH   8  10
ATOM     10  C   UNL d   1     -48.716  28.596  34.680  0.00  0.00     0.060 A 
ATOM     11  C   UNL d   1     -48.273  28.693  35.365  0.00  0.00     0.031 A 
ATOM     12  C   UNL d   1     -47.790  29.356  35.456  0.00  0.00     0.119 A 
ATOM     13  O   UNL d   1     -47.292  29.593  36.074  0.00  0.00    -0.300 OA
ATOM     14  C   UNL d   1     -47.750  29.921  34.862  0.00  0.00     0.119 A 
ATOM     15  C   UNL d   1     -46.943  30.309  35.860  0.00  0.00     0.304 A 
ATOM     16  O   UNL d   1     -47.226  30.515  35.108  0.00  0.00    -0.300 OA
ATOM     17  C   UNL d   1     -48.194  29.827  34.172  0.00  0.00     0.026 A 
ATOM     18  C   UNL d   1     -48.677  29.164  34.081  0.00  0.00     0.007 A 
ENDBRANCH   8  10
ENDBRANCH   4   7
BRANCH   1  19
ATOM     19  C   UNL d   1     -51.627  25.225  33.579  0.00  0.00     0.101 A 
ATOM     20  N   UNL d   1     -51.408  24.445  33.484  0.00  0.00    -0.221 NA
ATOM     21  C   UNL d   1     -52.103  23.991  33.416  0.00  0.00     0.179 A 
ATOM     22  N   UNL d   1     -52.740  24.483  33.467  0.00  0.00    -0.282 N 
ATOM     23  S   UNL d   1     -52.374  23.222  33.315  0.00  0.00    -0.048 SA
ATOM     24  C   UNL d   1     -52.455  25.254  33.569  0.00  0.00     0.101 A 
ATOM     25  C   UNL d   1     -53.416  24.021  33.398  0.00  0.00     0.089 A 
ATOM     26  C   UNL d   1     -53.197  23.257  33.306  0.00  0.00     0.057 A 
ENDBRANCH   1  19
TORSDOF 3
ENDMDL
