MODEL 1
REMARK VINA RESULT:      -3.3      0.000      0.000
REMARK  3 active torsions:
REMARK  status: ('A' for Active; 'I' for Inactive)
REMARK    1  A    between atoms: C_7  and  C_1 
REMARK    2  A    between atoms: N_5  and  C_9 
REMARK    3  A    between atoms: C_14  and  C_7 
ROOT
ATOM      1  C   UNL d   1      33.010  18.813 -23.509  0.00  0.00     0.139 A 
ATOM      2  C   UNL d   1      33.142  20.015 -22.949  0.00  0.00     0.064 A 
ATOM      3  C   UNL d   1      33.122  19.617 -23.670  0.00  0.00     0.220 A 
ATOM      4  C   UNL d   1      33.043  19.464 -22.340  0.00  0.00     0.106 A 
ATOM      5  O   UNL d   1      32.962  18.717 -22.690  0.00  0.00    -0.304 OA
ATOM      6  C   UNL d   1      33.042  19.714 -21.563  0.00  0.00     0.067 A 
ATOM      7  C   UNL d   1      33.238  20.814 -22.771  0.00  0.00     0.009 A 
ATOM      8  O   UNL d   1      33.198  19.950 -24.423  0.00  0.00    -0.284 OA
ATOM      9  C   UNL d   1      33.138  20.514 -21.385  0.00  0.00     0.198 A 
ATOM     10  C   UNL d   1      33.235  21.060 -21.987  0.00  0.00     0.042 A 
ATOM     11  O   UNL d   1      33.135  20.762 -20.598  0.00  0.00    -0.286 OA
ENDROOT
BRANCH   1  12
ATOM     12  C   UNL d   1      32.956  18.206 -24.067  0.00  0.00     0.028 C 
BRANCH  12  13
ATOM     13  C   UNL d   1      32.351  17.642 -24.020  0.00  0.00     0.002 A 
ATOM     14  C   UNL d   1      32.499  16.925 -23.646  0.00  0.00     0.002 A 
ATOM     15  C   UNL d   1      31.909  16.357 -23.592  0.00  0.00     0.024 A 
ATOM     16  C   UNL d   1      31.155  16.509 -23.917  0.00  0.00     0.127 A 
ATOM     17  C   UNL d   1      31.009  17.233 -24.293  0.00  0.00     0.024 A 
ATOM     18  C   UNL d   1      31.614  17.797 -24.341  0.00  0.00     0.002 A 
BRANCH  16  19
ATOM     19  N   UNL d   1      30.562  15.934 -23.860  0.00  0.00    -0.114 N 
ATOM     20  O   UNL d   1      30.307  15.547 -24.545  0.00  0.00    -0.532 OA
ATOM     21  O   UNL d   1      30.225  15.742 -23.137  0.00  0.00    -0.532 OA
ENDBRANCH  16  19
ENDBRANCH  12  13
ENDBRANCH   1  12
TORSDOF 3
ENDMDL
MODEL 2
REMARK VINA RESULT:      -3.3      1.886      4.597
REMARK  3 active torsions:
REMARK  status: ('A' for Active; 'I' for Inactive)
REMARK    1  A    between atoms: C_7  and  C_1 
REMARK    2  A    between atoms: N_5  and  C_9 
REMARK    3  A    between atoms: C_14  and  C_7 
ROOT
ATOM      1  C   UNL d   1      31.278  16.553 -24.004  0.00  0.00     0.139 A 
ATOM      2  C   UNL d   1      30.183  15.994 -23.488  0.00  0.00     0.064 A 
ATOM      3  C   UNL d   1      31.007  15.967 -23.486  0.00  0.00     0.220 A 
ATOM      4  C   UNL d   1      29.940  16.593 -24.004  0.00  0.00     0.106 A 
ATOM      5  O   UNL d   1      30.621  16.939 -24.324  0.00  0.00    -0.304 OA
ATOM      6  C   UNL d   1      29.143  16.738 -24.110  0.00  0.00     0.067 A 
ATOM      7  C   UNL d   1      29.623  15.546 -23.082  0.00  0.00     0.009 A 
ATOM      8  O   UNL d   1      31.485  15.453 -23.049  0.00  0.00    -0.284 OA
ATOM      9  C   UNL d   1      28.583  16.289 -23.704  0.00  0.00     0.198 A 
ATOM     10  C   UNL d   1      28.823  15.697 -23.193  0.00  0.00     0.042 A 
ATOM     11  O   UNL d   1      27.779  16.439 -23.814  0.00  0.00    -0.286 OA
ENDROOT
BRANCH   1  12
ATOM     12  C   UNL d   1      32.067  16.726 -24.175  0.00  0.00     0.028 C 
BRANCH  12  13
ATOM     13  C   UNL d   1      32.326  17.512 -24.223  0.00  0.00     0.002 A 
ATOM     14  C   UNL d   1      32.613  17.882 -23.548  0.00  0.00     0.002 A 
ATOM     15  C   UNL d   1      32.873  18.660 -23.582  0.00  0.00     0.024 A 
ATOM     16  C   UNL d   1      32.845  19.077 -24.305  0.00  0.00     0.127 A 
ATOM     17  C   UNL d   1      32.555  18.700 -24.983  0.00  0.00     0.024 A 
ATOM     18  C   UNL d   1      32.296  17.914 -24.936  0.00  0.00     0.002 A 
BRANCH  16  19
ATOM     19  N   UNL d   1      33.107  19.861 -24.335  0.00  0.00    -0.114 N 
ATOM     20  O   UNL d   1      33.237  20.271 -23.629  0.00  0.00    -0.532 OA
ATOM     21  O   UNL d   1      33.241  20.237 -25.052  0.00  0.00    -0.532 OA
ENDBRANCH  16  19
ENDBRANCH  12  13
ENDBRANCH   1  12
TORSDOF 3
ENDMDL
MODEL 3
REMARK VINA RESULT:      -3.2      1.656      4.433
REMARK  3 active torsions:
REMARK  status: ('A' for Active; 'I' for Inactive)
REMARK    1  A    between atoms: C_7  and  C_1 
REMARK    2  A    between atoms: N_5  and  C_9 
REMARK    3  A    between atoms: C_14  and  C_7 
ROOT
ATOM      1  C   UNL d   1      32.461  17.412 -23.794  0.00  0.00     0.139 A 
ATOM      2  C   UNL d   1      31.526  16.478 -23.973  0.00  0.00     0.064 A 
ATOM      3  C   UNL d   1      32.312  16.599 -23.754  0.00  0.00     0.220 A 
ATOM      4  C   UNL d   1      31.186  17.211 -24.149  0.00  0.00     0.106 A 
ATOM      5  O   UNL d   1      31.768  17.790 -24.037  0.00  0.00    -0.304 OA
ATOM      6  C   UNL d   1      30.405  17.249 -24.383  0.00  0.00     0.067 A 
ATOM      7  C   UNL d   1      31.078  15.789 -24.034  0.00  0.00     0.009 A 
ATOM      8  O   UNL d   1      32.859  16.020 -23.533  0.00  0.00    -0.284 OA
ATOM      9  C   UNL d   1      29.956  16.559 -24.444  0.00  0.00     0.198 A 
ATOM     10  C   UNL d   1      30.293  15.834 -24.270  0.00  0.00     0.042 A 
ATOM     11  O   UNL d   1      29.167  16.603 -24.681  0.00  0.00    -0.286 OA
ENDROOT
BRANCH   1  12
ATOM     12  C   UNL d   1      33.177  17.786 -23.621  0.00  0.00     0.028 C 
BRANCH  12  13
ATOM     13  C   UNL d   1      33.187  18.519 -23.234  0.00  0.00     0.002 A 
ATOM     14  C   UNL d   1      33.230  18.539 -22.414  0.00  0.00     0.002 A 
ATOM     15  C   UNL d   1      33.241  19.257 -22.017  0.00  0.00     0.024 A 
ATOM     16  C   UNL d   1      33.209  19.971 -22.450  0.00  0.00     0.127 A 
ATOM     17  C   UNL d   1      33.166  19.947 -23.277  0.00  0.00     0.024 A 
ATOM     18  C   UNL d   1      33.156  19.215 -23.665  0.00  0.00     0.002 A 
BRANCH  16  19
ATOM     19  N   UNL d   1      33.221  20.694 -22.046  0.00  0.00    -0.114 N 
ATOM     20  O   UNL d   1      33.241  21.398 -22.479  0.00  0.00    -0.532 OA
ATOM     21  O   UNL d   1      33.212  20.723 -21.226  0.00  0.00    -0.532 OA
ENDBRANCH  16  19
ENDBRANCH  12  13
ENDBRANCH   1  12
TORSDOF 3
ENDMDL
MODEL 4
REMARK VINA RESULT:      -2.6      2.130      3.306
REMARK  3 active torsions:
REMARK  status: ('A' for Active; 'I' for Inactive)
REMARK    1  A    between atoms: C_7  and  C_1 
REMARK    2  A    between atoms: N_5  and  C_9 
REMARK    3  A    between atoms: C_14  and  C_7 
ROOT
ATOM      1  C   UNL d   1      31.359  16.366 -24.425  0.00  0.00     0.139 A 
ATOM      2  C   UNL d   1      32.394  17.147 -24.734  0.00  0.00     0.064 A 
ATOM      3  C   UNL d   1      32.111  16.373 -24.770  0.00  0.00     0.220 A 
ATOM      4  C   UNL d   1      31.822  17.620 -24.368  0.00  0.00     0.106 A 
ATOM      5  O   UNL d   1      31.180  17.133 -24.177  0.00  0.00    -0.304 OA
ATOM      6  C   UNL d   1      31.964  18.417 -24.262  0.00  0.00     0.067 A 
ATOM      7  C   UNL d   1      33.103  17.479 -24.989  0.00  0.00     0.009 A 
ATOM      8  O   UNL d   1      32.499  15.718 -25.091  0.00  0.00    -0.284 OA
ATOM      9  C   UNL d   1      32.675  18.749 -24.518  0.00  0.00     0.198 A 
ATOM     10  C   UNL d   1      33.240  18.281 -24.879  0.00  0.00     0.042 A 
ATOM     11  O   UNL d   1      32.814  19.555 -24.408  0.00  0.00    -0.286 OA
ENDROOT
BRANCH   1  12
ATOM     12  C   UNL d   1      30.868  15.707 -24.340  0.00  0.00     0.028 C 
BRANCH  12  13
ATOM     13  C   UNL d   1      30.074  15.798 -24.118  0.00  0.00     0.002 A 
ATOM     14  C   UNL d   1      29.879  15.803 -23.320  0.00  0.00     0.002 A 
ATOM     15  C   UNL d   1      29.098  15.892 -23.085  0.00  0.00     0.024 A 
ATOM     16  C   UNL d   1      28.499  15.979 -23.661  0.00  0.00     0.127 A 
ATOM     17  C   UNL d   1      28.699  15.974 -24.464  0.00  0.00     0.024 A 
ATOM     18  C   UNL d   1      29.492  15.883 -24.688  0.00  0.00     0.002 A 
BRANCH  16  19
ATOM     19  N   UNL d   1      27.712  16.069 -23.420  0.00  0.00    -0.114 N 
ATOM     20  O   UNL d   1      27.465  16.793 -23.106  0.00  0.00    -0.532 OA
ATOM     21  O   UNL d   1      27.174  15.453 -23.489  0.00  0.00    -0.532 OA
ENDBRANCH  16  19
ENDBRANCH  12  13
ENDBRANCH   1  12
TORSDOF 3
ENDMDL
MODEL 5
REMARK VINA RESULT:      -2.2      2.066      4.708
REMARK  3 active torsions:
REMARK  status: ('A' for Active; 'I' for Inactive)
REMARK    1  A    between atoms: C_7  and  C_1 
REMARK    2  A    between atoms: N_5  and  C_9 
REMARK    3  A    between atoms: C_14  and  C_7 
ROOT
ATOM      1  C   UNL d   1      32.890  19.184 -22.382  0.00  0.00     0.139 A 
ATOM      2  C   UNL d   1      32.475  18.082 -23.007  0.00  0.00     0.064 A 
ATOM      3  C   UNL d   1      32.881  18.357 -22.345  0.00  0.00     0.220 A 
ATOM      4  C   UNL d   1      32.231  18.733 -23.456  0.00  0.00     0.106 A 
ATOM      5  O   UNL d   1      32.490  19.417 -23.065  0.00  0.00    -0.304 OA
ATOM      6  C   UNL d   1      31.812  18.615 -24.147  0.00  0.00     0.067 A 
ATOM      7  C   UNL d   1      32.296  17.318 -23.258  0.00  0.00     0.009 A 
ATOM      8  O   UNL d   1      33.222  17.898 -21.748  0.00  0.00    -0.284 OA
ATOM      9  C   UNL d   1      31.634  17.849 -24.398  0.00  0.00     0.198 A 
ATOM     10  C   UNL d   1      31.875  17.206 -23.954  0.00  0.00     0.042 A 
ATOM     11  O   UNL d   1      31.211  17.735 -25.097  0.00  0.00    -0.286 OA
ENDROOT
BRANCH   1  12
ATOM     12  C   UNL d   1      33.239  19.692 -21.832  0.00  0.00     0.028 C 
BRANCH  12  13
ATOM     13  C   UNL d   1      32.954  20.465 -21.733  0.00  0.00     0.002 A 
ATOM     14  C   UNL d   1      32.401  20.617 -21.146  0.00  0.00     0.002 A 
ATOM     15  C   UNL d   1      32.111  21.377 -21.037  0.00  0.00     0.024 A 
ATOM     16  C   UNL d   1      32.380  21.998 -21.526  0.00  0.00     0.127 A 
ATOM     17  C   UNL d   1      32.939  21.841 -22.118  0.00  0.00     0.024 A 
ATOM     18  C   UNL d   1      33.223  21.069 -22.217  0.00  0.00     0.002 A 
BRANCH  16  19
ATOM     19  N   UNL d   1      32.086  22.764 -21.414  0.00  0.00    -0.114 N 
ATOM     20  O   UNL d   1      31.923  23.026 -20.646  0.00  0.00    -0.532 OA
ATOM     21  O   UNL d   1      31.953  23.265 -22.050  0.00  0.00    -0.532 OA
ENDBRANCH  16  19
ENDBRANCH  12  13
ENDBRANCH   1  12
TORSDOF 3
ENDMDL
MODEL 6
REMARK VINA RESULT:      -1.6      3.897      6.714
REMARK  3 active torsions:
REMARK  status: ('A' for Active; 'I' for Inactive)
REMARK    1  A    between atoms: C_7  and  C_1 
REMARK    2  A    between atoms: N_5  and  C_9 
REMARK    3  A    between atoms: C_14  and  C_7 
ROOT
ATOM      1  C   UNL d   1      32.496  22.679 -20.219  0.00  0.00     0.139 A 
ATOM      2  C   UNL d   1      32.809  21.991 -21.317  0.00  0.00     0.064 A 
ATOM      3  C   UNL d   1      32.658  22.748 -21.028  0.00  0.00     0.220 A 
ATOM      4  C   UNL d   1      32.743  21.452 -20.694  0.00  0.00     0.106 A 
ATOM      5  O   UNL d   1      32.548  21.881 -20.012  0.00  0.00    -0.304 OA
ATOM      6  C   UNL d   1      32.867  20.657 -20.831  0.00  0.00     0.067 A 
ATOM      7  C   UNL d   1      33.000  21.726 -22.074  0.00  0.00     0.009 A 
ATOM      8  O   UNL d   1      32.664  23.454 -21.458  0.00  0.00    -0.284 OA
ATOM      9  C   UNL d   1      33.058  20.391 -21.589  0.00  0.00     0.198 A 
ATOM     10  C   UNL d   1      33.124  20.925 -22.206  0.00  0.00     0.042 A 
ATOM     11  O   UNL d   1      33.182  19.586 -21.722  0.00  0.00    -0.286 OA
ENDROOT
BRANCH   1  12
ATOM     12  C   UNL d   1      32.314  23.298 -19.704  0.00  0.00     0.028 C 
BRANCH  12  13
ATOM     13  C   UNL d   1      32.467  23.230 -18.891  0.00  0.00     0.002 A 
ATOM     14  C   UNL d   1      33.077  23.669 -18.560  0.00  0.00     0.002 A 
ATOM     15  C   UNL d   1      33.240  23.611 -17.758  0.00  0.00     0.024 A 
ATOM     16  C   UNL d   1      32.784  23.104 -17.277  0.00  0.00     0.127 A 
ATOM     17  C   UNL d   1      32.170  22.662 -17.614  0.00  0.00     0.024 A 
ATOM     18  C   UNL d   1      32.015  22.730 -18.426  0.00  0.00     0.002 A 
BRANCH  16  19
ATOM     19  N   UNL d   1      32.951  23.048 -16.468  0.00  0.00    -0.114 N 
ATOM     20  O   UNL d   1      32.847  22.324 -16.082  0.00  0.00    -0.532 OA
ATOM     21  O   UNL d   1      33.219  23.698 -16.044  0.00  0.00    -0.532 OA
ENDBRANCH  16  19
ENDBRANCH  12  13
ENDBRANCH   1  12
TORSDOF 3
ENDMDL
MODEL 7
REMARK VINA RESULT:      -1.3      1.266      2.005
REMARK  3 active torsions:
REMARK  status: ('A' for Active; 'I' for Inactive)
REMARK    1  A    between atoms: C_7  and  C_1 
REMARK    2  A    between atoms: N_5  and  C_9 
REMARK    3  A    between atoms: C_14  and  C_7 
ROOT
ATOM      1  C   UNL d   1      32.777  17.759 -23.986  0.00  0.00     0.139 A 
ATOM      2  C   UNL d   1      33.016  19.031 -23.668  0.00  0.00     0.064 A 
ATOM      3  C   UNL d   1      32.920  18.275 -23.355  0.00  0.00     0.220 A 
ATOM      4  C   UNL d   1      32.934  18.988 -24.490  0.00  0.00     0.106 A 
ATOM      5  O   UNL d   1      32.786  18.197 -24.686  0.00  0.00    -0.304 OA
ATOM      6  C   UNL d   1      33.005  19.666 -24.940  0.00  0.00     0.067 A 
ATOM      7  C   UNL d   1      33.168  19.755 -23.306  0.00  0.00     0.009 A 
ATOM      8  O   UNL d   1      32.957  18.060 -22.557  0.00  0.00    -0.284 OA
ATOM      9  C   UNL d   1      33.158  20.391 -24.576  0.00  0.00     0.198 A 
ATOM     10  C   UNL d   1      33.239  20.433 -23.763  0.00  0.00     0.042 A 
ATOM     11  O   UNL d   1      33.229  21.073 -25.035  0.00  0.00    -0.286 OA
ENDROOT
BRANCH   1  12
ATOM     12  C   UNL d   1      32.648  16.945 -23.931  0.00  0.00     0.028 C 
BRANCH  12  13
ATOM     13  C   UNL d   1      31.883  16.633 -24.008  0.00  0.00     0.002 A 
ATOM     14  C   UNL d   1      31.525  16.283 -23.357  0.00  0.00     0.002 A 
ATOM     15  C   UNL d   1      30.769  15.970 -23.420  0.00  0.00     0.024 A 
ATOM     16  C   UNL d   1      30.362  16.008 -24.148  0.00  0.00     0.127 A 
ATOM     17  C   UNL d   1      30.727  16.362 -24.802  0.00  0.00     0.024 A 
ATOM     18  C   UNL d   1      31.491  16.674 -24.726  0.00  0.00     0.002 A 
BRANCH  16  19
ATOM     19  N   UNL d   1      29.599  15.691 -24.207  0.00  0.00    -0.114 N 
ATOM     20  O   UNL d   1      29.155  15.574 -23.520  0.00  0.00    -0.532 OA
ATOM     21  O   UNL d   1      29.278  15.492 -24.936  0.00  0.00    -0.532 OA
ENDBRANCH  16  19
ENDBRANCH  12  13
ENDBRANCH   1  12
TORSDOF 3
ENDMDL
