MODEL 1
REMARK VINA RESULT:     -10.0      0.000      0.000
REMARK  2 active torsions:
REMARK  status: ('A' for Active; 'I' for Inactive)
REMARK    1  A    between atoms: C_9  and  C_4 
REMARK    2  A    between atoms: N_6  and  C_8 
ROOT
ATOM      1  N   UNL d   1      52.584  32.739  53.251  0.00  0.00    -0.211 NA
ATOM      2  C   UNL d   1      53.264  32.461  53.625  0.00  0.00     0.140 A 
ATOM      3  C   UNL d   1      53.659  32.946  54.156  0.00  0.00     0.051 A 
ATOM      4  C   UNL d   1      52.301  33.495  53.408  0.00  0.00     0.183 A 
ATOM      5  C   UNL d   1      53.382  33.708  54.321  0.00  0.00     0.104 A 
ATOM      6  O   UNL d   1      52.694  33.988  53.942  0.00  0.00    -0.289 OA
ATOM      7  S   UNL d   1      53.545  31.705  53.467  0.00  0.00    -0.057 SA
ATOM      8  C   UNL d   1      54.339  32.672  54.532  0.00  0.00     0.004 A 
ATOM      9  C   UNL d   1      53.776  34.193  54.851  0.00  0.00     0.025 A 
ATOM     10  C   UNL d   1      54.744  33.154  55.070  0.00  0.00     0.000 A 
ATOM     11  C   UNL d   1      54.460  33.911  55.226  0.00  0.00     0.002 A 
ENDROOT
BRANCH   4  12
ATOM     12  C   UNL d   1      51.616  33.766  53.027  0.00  0.00     0.041 A 
ATOM     13  C   UNL d   1      50.889  33.706  53.419  0.00  0.00     0.005 A 
ATOM     14  C   UNL d   1      50.208  33.975  53.041  0.00  0.00     0.024 A 
ATOM     15  C   UNL d   1      50.246  34.300  52.281  0.00  0.00     0.127 A 
ATOM     16  C   UNL d   1      50.983  34.354  51.897  0.00  0.00     0.024 A 
ATOM     17  C   UNL d   1      51.664  34.086  52.274  0.00  0.00     0.005 A 
BRANCH  15  18
ATOM     18  N   UNL d   1      49.559  34.566  51.910  0.00  0.00    -0.114 N 
ATOM     19  O   UNL d   1      49.426  34.404  51.114  0.00  0.00    -0.532 OA
ATOM     20  O   UNL d   1      48.998  35.000  52.336  0.00  0.00    -0.532 OA
ENDBRANCH  15  18
ENDBRANCH   4  12
TORSDOF 2
ENDMDL
MODEL 2
REMARK VINA RESULT:      -9.5      1.211      1.867
REMARK  2 active torsions:
REMARK  status: ('A' for Active; 'I' for Inactive)
REMARK    1  A    between atoms: C_9  and  C_4 
REMARK    2  A    between atoms: N_6  and  C_8 
ROOT
ATOM      1  N   UNL d   1      52.902  33.065  53.507  0.00  0.00    -0.211 NA
ATOM      2  C   UNL d   1      53.530  32.559  53.680  0.00  0.00     0.140 A 
ATOM      3  C   UNL d   1      53.468  31.761  53.500  0.00  0.00     0.051 A 
ATOM      4  C   UNL d   1      52.217  32.773  53.157  0.00  0.00     0.183 A 
ATOM      5  C   UNL d   1      52.783  31.459  53.148  0.00  0.00     0.104 A 
ATOM      6  O   UNL d   1      52.148  31.971  52.973  0.00  0.00    -0.289 OA
ATOM      7  S   UNL d   1      54.214  32.853  54.030  0.00  0.00    -0.057 SA
ATOM      8  C   UNL d   1      54.094  31.253  53.671  0.00  0.00     0.004 A 
ATOM      9  C   UNL d   1      52.719  30.662  52.967  0.00  0.00     0.025 A 
ATOM     10  C   UNL d   1      54.039  30.447  53.493  0.00  0.00     0.000 A 
ATOM     11  C   UNL d   1      53.353  30.156  53.142  0.00  0.00     0.002 A 
ENDROOT
BRANCH   4  12
ATOM     12  C   UNL d   1      51.590  33.289  52.987  0.00  0.00     0.041 A 
ATOM     13  C   UNL d   1      50.918  33.277  53.471  0.00  0.00     0.005 A 
ATOM     14  C   UNL d   1      50.295  33.789  53.302  0.00  0.00     0.024 A 
ATOM     15  C   UNL d   1      50.337  34.309  52.660  0.00  0.00     0.127 A 
ATOM     16  C   UNL d   1      51.018  34.312  52.181  0.00  0.00     0.024 A 
ATOM     17  C   UNL d   1      51.641  33.800  52.349  0.00  0.00     0.005 A 
BRANCH  15  18
ATOM     18  N   UNL d   1      49.709  34.819  52.498  0.00  0.00    -0.114 N 
ATOM     19  O   UNL d   1      49.292  34.755  51.791  0.00  0.00    -0.532 OA
ATOM     20  O   UNL d   1      49.493  35.399  53.048  0.00  0.00    -0.532 OA
ENDBRANCH  15  18
ENDBRANCH   4  12
TORSDOF 2
ENDMDL
MODEL 3
REMARK VINA RESULT:      -9.0      2.282      3.741
REMARK  2 active torsions:
REMARK  status: ('A' for Active; 'I' for Inactive)
REMARK    1  A    between atoms: C_9  and  C_4 
REMARK    2  A    between atoms: N_6  and  C_8 
ROOT
ATOM      1  N   UNL d   1      52.374  32.978  52.923  0.00  0.00    -0.211 NA
ATOM      2  C   UNL d   1      52.312  33.801  52.921  0.00  0.00     0.140 A 
ATOM      3  C   UNL d   1      52.663  34.234  53.523  0.00  0.00     0.051 A 
ATOM      4  C   UNL d   1      52.784  32.593  53.524  0.00  0.00     0.183 A 
ATOM      5  C   UNL d   1      53.077  33.856  54.131  0.00  0.00     0.104 A 
ATOM      6  O   UNL d   1      53.139  33.024  54.133  0.00  0.00    -0.289 OA
ATOM      7  S   UNL d   1      51.902  34.183  52.320  0.00  0.00    -0.057 SA
ATOM      8  C   UNL d   1      52.602  35.056  53.524  0.00  0.00     0.004 A 
ATOM      9  C   UNL d   1      53.427  34.287  54.733  0.00  0.00     0.025 A 
ATOM     10  C   UNL d   1      52.953  35.501  54.128  0.00  0.00     0.000 A 
ATOM     11  C   UNL d   1      53.363  35.114  54.728  0.00  0.00     0.002 A 
ENDROOT
BRANCH   4  12
ATOM     12  C   UNL d   1      52.842  31.767  53.518  0.00  0.00     0.041 A 
ATOM     13  C   UNL d   1      52.166  31.318  53.349  0.00  0.00     0.005 A 
ATOM     14  C   UNL d   1      52.222  30.497  53.343  0.00  0.00     0.024 A 
ATOM     15  C   UNL d   1      52.942  30.121  53.503  0.00  0.00     0.127 A 
ATOM     16  C   UNL d   1      53.614  30.582  53.672  0.00  0.00     0.024 A 
ATOM     17  C   UNL d   1      53.559  31.404  53.678  0.00  0.00     0.005 A 
BRANCH  15  18
ATOM     18  N   UNL d   1      52.990  29.297  53.495  0.00  0.00    -0.114 N 
ATOM     19  O   UNL d   1      52.616  28.864  52.904  0.00  0.00    -0.532 OA
ATOM     20  O   UNL d   1      53.416  28.900  54.084  0.00  0.00    -0.532 OA
ENDBRANCH  15  18
ENDBRANCH   4  12
TORSDOF 2
ENDMDL
MODEL 4
REMARK VINA RESULT:      -7.7      2.249      4.776
REMARK  2 active torsions:
REMARK  status: ('A' for Active; 'I' for Inactive)
REMARK    1  A    between atoms: C_9  and  C_4 
REMARK    2  A    between atoms: N_6  and  C_8 
ROOT
ATOM      1  N   UNL d   1      49.469  34.450  51.732  0.00  0.00    -0.211 NA
ATOM      2  C   UNL d   1      48.764  34.835  51.546  0.00  0.00     0.140 A 
ATOM      3  C   UNL d   1      48.415  35.328  52.100  0.00  0.00     0.051 A 
ATOM      4  C   UNL d   1      49.822  34.558  52.468  0.00  0.00     0.183 A 
ATOM      5  C   UNL d   1      48.761  35.443  52.843  0.00  0.00     0.104 A 
ATOM      6  O   UNL d   1      49.474  35.053  53.030  0.00  0.00    -0.289 OA
ATOM      7  S   UNL d   1      48.414  34.725  50.810  0.00  0.00    -0.057 SA
ATOM      8  C   UNL d   1      47.710  35.714  51.918  0.00  0.00     0.004 A 
ATOM      9  C   UNL d   1      48.413  35.936  53.398  0.00  0.00     0.025 A 
ATOM     10  C   UNL d   1      47.351  36.214  52.472  0.00  0.00     0.000 A 
ATOM     11  C   UNL d   1      47.704  36.321  53.208  0.00  0.00     0.002 A 
ENDROOT
BRANCH   4  12
ATOM     12  C   UNL d   1      50.530  34.168  52.646  0.00  0.00     0.041 A 
ATOM     13  C   UNL d   1      50.513  33.520  53.163  0.00  0.00     0.005 A 
ATOM     14  C   UNL d   1      51.217  33.131  53.341  0.00  0.00     0.024 A 
ATOM     15  C   UNL d   1      51.933  33.381  53.010  0.00  0.00     0.127 A 
ATOM     16  C   UNL d   1      51.938  34.032  52.492  0.00  0.00     0.024 A 
ATOM     17  C   UNL d   1      51.234  34.422  52.313  0.00  0.00     0.005 A 
BRANCH  15  18
ATOM     18  N   UNL d   1      52.634  32.985  53.193  0.00  0.00    -0.114 N 
ATOM     19  O   UNL d   1      52.923  32.397  52.695  0.00  0.00    -0.532 OA
ATOM     20  O   UNL d   1      53.052  33.179  53.881  0.00  0.00    -0.532 OA
ENDBRANCH  15  18
ENDBRANCH   4  12
TORSDOF 2
ENDMDL
MODEL 5
REMARK VINA RESULT:      -7.6      2.456      3.600
REMARK  2 active torsions:
REMARK  status: ('A' for Active; 'I' for Inactive)
REMARK    1  A    between atoms: C_9  and  C_4 
REMARK    2  A    between atoms: N_6  and  C_8 
ROOT
ATOM      1  N   UNL d   1      53.185  31.509  53.272  0.00  0.00    -0.211 NA
ATOM      2  C   UNL d   1      53.154  30.703  53.100  0.00  0.00     0.140 A 
ATOM      3  C   UNL d   1      53.228  30.158  53.708  0.00  0.00     0.051 A 
ATOM      4  C   UNL d   1      53.289  31.766  54.047  0.00  0.00     0.183 A 
ATOM      5  C   UNL d   1      53.333  30.406  54.491  0.00  0.00     0.104 A 
ATOM      6  O   UNL d   1      53.364  31.222  54.663  0.00  0.00    -0.289 OA
ATOM      7  S   UNL d   1      53.050  30.449  52.325  0.00  0.00    -0.057 SA
ATOM      8  C   UNL d   1      53.197  29.351  53.540  0.00  0.00     0.004 A 
ATOM      9  C   UNL d   1      53.406  29.862  55.099  0.00  0.00     0.025 A 
ATOM     10  C   UNL d   1      53.271  28.794  54.148  0.00  0.00     0.000 A 
ATOM     11  C   UNL d   1      53.375  29.052  54.923  0.00  0.00     0.002 A 
ENDROOT
BRANCH   4  12
ATOM     12  C   UNL d   1      53.319  32.578  54.211  0.00  0.00     0.041 A 
ATOM     13  C   UNL d   1      52.700  33.063  53.951  0.00  0.00     0.005 A 
ATOM     14  C   UNL d   1      52.729  33.870  54.113  0.00  0.00     0.024 A 
ATOM     15  C   UNL d   1      53.367  34.195  54.529  0.00  0.00     0.127 A 
ATOM     16  C   UNL d   1      53.983  33.698  54.784  0.00  0.00     0.024 A 
ATOM     17  C   UNL d   1      53.955  32.891  54.623  0.00  0.00     0.005 A 
BRANCH  15  18
ATOM     18  N   UNL d   1      53.388  35.005  54.687  0.00  0.00    -0.114 N 
ATOM     19  O   UNL d   1      53.500  35.546  54.077  0.00  0.00    -0.532 OA
ATOM     20  O   UNL d   1      53.297  35.279  55.463  0.00  0.00    -0.532 OA
ENDBRANCH  15  18
ENDBRANCH   4  12
TORSDOF 2
ENDMDL
