MODEL 1
REMARK VINA RESULT:      74.0      0.000      0.000
REMARK  10 active torsions:
REMARK  status: ('A' for Active; 'I' for Inactive)
REMARK    1  A    between atoms: S_6  and  C_1 
REMARK    2  A    between atoms: C_12  and  N_2 
REMARK    3  A    between atoms: C_11  and  C_4 
REMARK    4  A    between atoms: C_10  and  S_6 
REMARK       I    between atoms: C_7  and  N_9 
REMARK    5  A    between atoms: C_13  and  C_7 
REMARK    6  A    between atoms: C_8  and  C_10 
REMARK    7  A    between atoms: O_18  and  C_8 
REMARK    8  A    between atoms: N_9  and  C_11 
REMARK    9  A    between atoms: C_26  and  O_18 
REMARK   10  A    between atoms: O_22  and  C_19 
ROOT
ATOM      1  C   UNL d   1     -54.870-100.149 -42.423  0.00  0.00     0.201 A 
ATOM      2  N   UNL d   1     -54.936-100.969 -42.478  0.00  0.00    -0.268 N 
ATOM      3  N   UNL d   1     -54.943 -99.933 -41.626  0.00  0.00    -0.121 NA
ATOM      4  C   UNL d   1     -55.052-101.257 -41.705  0.00  0.00     0.190 A 
ATOM      5  N   UNL d   1     -55.054-100.608 -41.185  0.00  0.00    -0.126 NA
ENDROOT
BRANCH   4   6
ATOM      6  C   UNL d   1     -55.147-102.049 -41.490  0.00  0.00     0.141 C 
BRANCH   6   7
ATOM      7  N   UNL d   1     -55.083-102.031 -40.663  0.00  0.00    -0.203 NA
ATOM      8  C   UNL d   1     -55.729-102.257 -40.198  0.00  0.00     0.279 C 
ATOM      9  O   UNL d   1     -56.430-102.498 -40.549  0.00  0.00    -0.265 OA
BRANCH   8  10
ATOM     10  C   UNL d   1     -55.657-102.236 -39.376  0.00  0.00     0.058 A 
ATOM     11  C   UNL d   1     -55.046-101.824 -39.020  0.00  0.00     0.007 A 
ATOM     12  C   UNL d   1     -54.976-101.804 -38.198  0.00  0.00     0.024 A 
ATOM     13  C   UNL d   1     -55.532-102.206 -37.735  0.00  0.00     0.094 A 
ATOM     14  C   UNL d   1     -56.143-102.617 -38.092  0.00  0.00     0.024 A 
ATOM     15  C   UNL d   1     -56.213-102.638 -38.913  0.00  0.00     0.007 A 
BRANCH  13  16
ATOM     16  O   UNL d   1     -55.461-102.185 -36.914  0.00  0.00    -0.328 OA
ATOM     17  C   UNL d   1     -55.875-101.625 -36.484  0.00  0.00     0.181 C 
ENDBRANCH  13  16
ENDBRANCH   8  10
ENDBRANCH   6   7
ENDBRANCH   4   6
BRANCH   2  18
ATOM     18  C   UNL d   1     -54.897-101.412 -43.160  0.00  0.00     0.067 A 
ATOM     19  C   UNL d   1     -55.001-101.057 -43.895  0.00  0.00     0.018 A 
ATOM     20  C   UNL d   1     -54.961-101.502 -44.581  0.00  0.00     0.002 A 
ATOM     21  C   UNL d   1     -54.816-102.309 -44.542  0.00  0.00     0.000 A 
ATOM     22  C   UNL d   1     -54.711-102.670 -43.808  0.00  0.00     0.002 A 
ATOM     23  C   UNL d   1     -54.752-102.221 -43.115  0.00  0.00     0.018 A 
ENDBRANCH   2  18
BRANCH   1  24
ATOM     24  S   UNL d   1     -54.750 -99.627 -43.054  0.00  0.00    -0.043 SA
BRANCH  24  25
ATOM     25  C   UNL d   1     -55.395 -99.297 -43.451  0.00  0.00     0.096 C 
ATOM     26  C   UNL d   1     -55.273 -98.757 -44.054  0.00  0.00     0.013 C 
BRANCH  25  27
ATOM     27  C   UNL d   1     -56.168 -99.508 -43.243  0.00  0.00     0.306 C 
ATOM     28  O   UNL d   1     -56.331-100.267 -42.975  0.00  0.00    -0.258 OA
BRANCH  27  29
ATOM     29  O   UNL d   1     -56.763 -98.951 -43.308  0.00  0.00    -0.271 OA
BRANCH  29  30
ATOM     30  C   UNL d   1     -57.428 -99.108 -43.784  0.00  0.00     0.126 C 
ATOM     31  C   UNL d   1     -57.345 -99.368 -44.540  0.00  0.00     0.029 C 
ENDBRANCH  29  30
ENDBRANCH  27  29
ENDBRANCH  25  27
ENDBRANCH  24  25
ENDBRANCH   1  24
TORSDOF 10
ENDMDL
