MODEL 1
REMARK VINA RESULT:      22.9      0.000      0.000
REMARK  4 active torsions:
REMARK  status: ('A' for Active; 'I' for Inactive)
REMARK    1  A    between atoms: S_7  and  C_2 
REMARK    2  A    between atoms: C_20  and  S_7 
REMARK    3  A    between atoms: C_10  and  C_20 
REMARK       I    between atoms: N_12  and  C_10 
REMARK    4  A    between atoms: C_15  and  N_12 
ROOT
ATOM      1  C   UNL d   1      13.834  12.048  -2.026  0.00  0.00     0.286 C 
ATOM      2  N   UNL d   1      14.128  11.796  -2.756  0.00  0.00    -0.207 NA
ATOM      3  O   UNL d   1      13.185  12.549  -1.994  0.00  0.00    -0.265 OA
ENDROOT
BRANCH   1   4
ATOM      4  C   UNL d   1      14.205  11.786  -1.343  0.00  0.00     0.101 C 
BRANCH   4   5
ATOM      5  S   UNL d   1      14.129  12.221  -0.649  0.00  0.00    -0.041 SA
BRANCH   5   6
ATOM      6  C   UNL d   1      14.709  12.767  -0.438  0.00  0.00     0.220 A 
ATOM      7  N   UNL d   1      14.511  13.561  -0.333  0.00  0.00    -0.148 N 
ATOM      8  C   UNL d   1      15.089  14.119  -0.120  0.00  0.00     0.305 A 
ATOM      9  N   UNL d   1      13.733  13.810  -0.439  0.00  0.00    -0.037 N 
ATOM     10  C   UNL d   1      15.870  13.857  -0.016  0.00  0.00     0.185 A 
ATOM     11  O   UNL d   1      14.893  14.905  -0.017  0.00  0.00    -0.263 OA
ATOM     12  N   UNL d   1      16.067  13.063  -0.121  0.00  0.00    -0.139 NA
ATOM     13  N   UNL d   1      15.486  12.521  -0.332  0.00  0.00    -0.121 NA
ENDBRANCH   5   6
ENDBRANCH   4   5
ENDBRANCH   1   4
BRANCH   2  14
ATOM     14  C   UNL d   1      13.763  12.052  -3.454  0.00  0.00     0.087 A 
ATOM     15  C   UNL d   1      14.038  11.779  -4.183  0.00  0.00     0.045 A 
ATOM     16  C   UNL d   1      13.678  12.032  -4.874  0.00  0.00     0.121 A 
ATOM     17  O   UNL d   1      13.821  11.863  -5.675  0.00  0.00    -0.299 OA
ATOM     18  C   UNL d   1      13.043  12.558  -4.844  0.00  0.00     0.119 A 
ATOM     19  C   UNL d   1      13.282  12.278  -6.133  0.00  0.00     0.304 A 
ATOM     20  O   UNL d   1      12.800  12.709  -5.620  0.00  0.00    -0.300 OA
ATOM     21  C   UNL d   1      12.769  12.831  -4.116  0.00  0.00     0.028 A 
ATOM     22  C   UNL d   1      13.131  12.576  -3.413  0.00  0.00     0.021 A 
ENDBRANCH   2  14
TORSDOF 4
ENDMDL
