MODEL 1
REMARK VINA RESULT:      -2.7      0.000      0.000
REMARK  5 active torsions:
REMARK  status: ('A' for Active; 'I' for Inactive)
REMARK    1  A    between atoms: S_6  and  C_2 
REMARK    2  A    between atoms: C_8  and  C_4 
REMARK    3  A    between atoms: C_11  and  S_6 
REMARK    4  A    between atoms: C_7  and  C_11 
REMARK       I    between atoms: N_9  and  C_7 
REMARK    5  A    between atoms: C_15  and  N_9 
ROOT
ATOM      1  N   UNL d   1      31.899  16.311 -23.970  0.00  0.00    -0.244 NA
ATOM      2  C   UNL d   1      31.852  17.137 -24.005  0.00  0.00     0.125 A 
ATOM      3  N   UNL d   1      32.902  16.816 -23.251  0.00  0.00    -0.250 NA
ATOM      4  C   UNL d   1      32.457  17.442 -23.572  0.00  0.00     0.101 A 
ATOM      5  C   UNL d   1      32.548  16.031 -23.504  0.00  0.00     0.168 A 
ATOM      6  C   UNL d   1      33.199  15.797 -23.035  0.00  0.00     0.050 C 
ATOM      7  C   UNL d   1      32.060  15.453 -23.853  0.00  0.00     0.050 C 
ENDROOT
BRANCH   2   8
ATOM      8  S   UNL d   1      31.279  17.578 -24.418  0.00  0.00    -0.061 SA
BRANCH   8   9
ATOM      9  C   UNL d   1      30.491  17.337 -24.412  0.00  0.00     0.099 C 
BRANCH   9  10
ATOM     10  C   UNL d   1      29.910  17.829 -24.709  0.00  0.00     0.286 C 
ATOM     11  N   UNL d   1      29.122  17.636 -24.621  0.00  0.00    -0.208 NA
ATOM     12  O   UNL d   1      30.124  18.518 -25.097  0.00  0.00    -0.265 OA
BRANCH  11  13
ATOM     13  C   UNL d   1      28.910  16.954 -24.237  0.00  0.00     0.085 A 
ATOM     14  C   UNL d   1      28.852  16.257 -24.655  0.00  0.00     0.019 A 
ATOM     15  C   UNL d   1      28.636  15.554 -24.274  0.00  0.00     0.002 A 
ATOM     16  C   UNL d   1      28.480  15.566 -23.470  0.00  0.00     0.000 A 
ATOM     17  C   UNL d   1      28.537  16.268 -23.044  0.00  0.00     0.002 A 
ATOM     18  C   UNL d   1      28.751  16.958 -23.428  0.00  0.00     0.019 A 
ENDBRANCH  11  13
ENDBRANCH   9  10
ENDBRANCH   8   9
ENDBRANCH   2   8
BRANCH   4  19
ATOM     19  C   UNL d   1      32.651  18.233 -23.433  0.00  0.00     0.019 A 
ATOM     20  C   UNL d   1      33.041  18.673 -24.017  0.00  0.00     0.002 A 
ATOM     21  C   UNL d   1      33.232  19.453 -23.881  0.00  0.00     0.011 A 
ATOM     22  C   UNL d   1      33.037  19.819 -23.148  0.00  0.00     0.058 A 
ATOM     23  C   UNL d   1      32.661  19.389 -22.589  0.00  0.00     0.011 A 
ATOM     24 CL   UNL d   1      33.234  20.619 -23.009  0.00  0.00    -0.082 Cl
ATOM     25  C   UNL d   1      32.458  18.590 -22.713  0.00  0.00     0.002 A 
ENDBRANCH   4  19
TORSDOF 5
ENDMDL
MODEL 2
REMARK VINA RESULT:      -0.4      3.518      5.353
REMARK  5 active torsions:
REMARK  status: ('A' for Active; 'I' for Inactive)
REMARK    1  A    between atoms: S_6  and  C_2 
REMARK    2  A    between atoms: C_8  and  C_4 
REMARK    3  A    between atoms: C_11  and  S_6 
REMARK    4  A    between atoms: C_7  and  C_11 
REMARK       I    between atoms: N_9  and  C_7 
REMARK    5  A    between atoms: C_15  and  N_9 
ROOT
ATOM      1  N   UNL d   1      33.148  22.085 -23.527  0.00  0.00    -0.244 NA
ATOM      2  C   UNL d   1      33.030  22.031 -22.709  0.00  0.00     0.125 A 
ATOM      3  N   UNL d   1      32.793  23.289 -23.077  0.00  0.00    -0.250 NA
ATOM      4  C   UNL d   1      32.816  22.757 -22.438  0.00  0.00     0.101 A 
ATOM      5  C   UNL d   1      33.015  22.862 -23.835  0.00  0.00     0.168 A 
ATOM      6  C   UNL d   1      32.873  23.643 -24.098  0.00  0.00     0.050 C 
ATOM      7  C   UNL d   1      33.240  22.276 -24.382  0.00  0.00     0.050 C 
ENDROOT
BRANCH   2   8
ATOM      8  S   UNL d   1      33.118  21.345 -22.246  0.00  0.00    -0.061 SA
BRANCH   8   9
ATOM      9  C   UNL d   1      32.930  20.607 -22.562  0.00  0.00     0.099 C 
BRANCH   9  10
ATOM     10  C   UNL d   1      33.020  19.932 -22.110  0.00  0.00     0.286 C 
ATOM     11  N   UNL d   1      32.890  19.197 -22.438  0.00  0.00    -0.208 NA
ATOM     12  O   UNL d   1      33.240  20.000 -21.324  0.00  0.00    -0.265 OA
BRANCH  11  13
ATOM     13  C   UNL d   1      32.672  19.130 -23.216  0.00  0.00     0.085 A 
ATOM     14  C   UNL d   1      31.885  19.178 -23.420  0.00  0.00     0.019 A 
ATOM     15  C   UNL d   1      31.649  19.111 -24.211  0.00  0.00     0.002 A 
ATOM     16  C   UNL d   1      32.217  18.995 -24.790  0.00  0.00     0.000 A 
ATOM     17  C   UNL d   1      33.013  18.946 -24.588  0.00  0.00     0.002 A 
ATOM     18  C   UNL d   1      33.238  19.013 -23.805  0.00  0.00     0.019 A 
ENDBRANCH  11  13
ENDBRANCH   9  10
ENDBRANCH   8   9
ENDBRANCH   2   8
BRANCH   4  19
ATOM     19  C   UNL d   1      32.638  22.992 -21.666  0.00  0.00     0.019 A 
ATOM     20  C   UNL d   1      33.237  23.269 -21.166  0.00  0.00     0.002 A 
ATOM     21  C   UNL d   1      33.062  23.501 -20.406  0.00  0.00     0.011 A 
ATOM     22  C   UNL d   1      32.271  23.462 -20.120  0.00  0.00     0.058 A 
ATOM     23  C   UNL d   1      31.696  23.194 -20.606  0.00  0.00     0.011 A 
ATOM     24 CL   UNL d   1      32.091  23.700 -19.339  0.00  0.00    -0.082 Cl
ATOM     25  C   UNL d   1      31.860  22.953 -21.387  0.00  0.00     0.002 A 
ENDBRANCH   4  19
TORSDOF 5
ENDMDL
