MODEL 1
REMARK VINA RESULT:      66.5      0.000      0.000
REMARK  3 active torsions:
REMARK  status: ('A' for Active; 'I' for Inactive)
REMARK    1  A    between atoms: C_5  and  C_1 
REMARK    2  A    between atoms: C_2  and  C_5 
REMARK    3  A    between atoms: C_12  and  C_5 
ROOT
ATOM      1  C   UNL d   1      44.770 -13.563  43.720  0.00  0.00     0.021 C 
ENDROOT
BRANCH   1   2
ATOM      2  C   UNL d   1      44.524 -14.333  43.886  0.00  0.00     0.021 A 
ATOM      3  C   UNL d   1      43.813 -14.627  44.218  0.00  0.00     0.082 A 
ATOM      4  N   UNL d   1      43.888 -15.447  44.249  0.00  0.00    -0.246 NA
ATOM      5  C   UNL d   1      43.154 -14.189  44.469  0.00  0.00     0.021 C 
ATOM      6  C   UNL d   1      44.623 -15.662  43.948  0.00  0.00     0.081 A 
ATOM      7  C   UNL d   1      45.009 -14.968  43.726  0.00  0.00     0.019 A 
ATOM      8  C   UNL d   1      45.006 -16.389  43.839  0.00  0.00     0.019 A 
ATOM      9  C   UNL d   1      45.767 -14.999  43.400  0.00  0.00     0.002 A 
ATOM     10  C   UNL d   1      46.150 -15.722  43.291  0.00  0.00     0.000 A 
ATOM     11  C   UNL d   1      45.767 -16.395  43.509  0.00  0.00     0.002 A 
ENDBRANCH   1   2
BRANCH   1  12
ATOM     12  C   UNL d   1      44.389 -13.117  43.126  0.00  0.00     0.021 A 
ATOM     13  C   UNL d   1      43.605 -12.882  43.152  0.00  0.00     0.082 A 
ATOM     14  N   UNL d   1      43.448 -12.456  42.464  0.00  0.00    -0.246 NA
ATOM     15  C   UNL d   1      43.053 -13.047  43.773  0.00  0.00     0.021 C 
ATOM     16  C   UNL d   1      44.137 -12.430  42.018  0.00  0.00     0.081 A 
ATOM     17  C   UNL d   1      44.718 -12.838  42.427  0.00  0.00     0.019 A 
ATOM     18  C   UNL d   1      44.312 -12.086  41.288  0.00  0.00     0.019 A 
ATOM     19  C   UNL d   1      45.478 -12.905  42.109  0.00  0.00     0.002 A 
ATOM     20  C   UNL d   1      45.653 -12.560  41.377  0.00  0.00     0.000 A 
ATOM     21  C   UNL d   1      45.072 -12.152  40.968  0.00  0.00     0.002 A 
ENDBRANCH   1  12
BRANCH   1  22
ATOM     22  C   UNL d   1      45.389 -13.225  44.132  0.00  0.00     0.082 A 
ATOM     23  N   UNL d   1      46.005 -13.686  44.401  0.00  0.00    -0.244 NA
ATOM     24  C   UNL d   1      46.627 -13.351  44.815  0.00  0.00     0.099 A 
ATOM     25  C   UNL d   1      46.615 -12.522  44.954  0.00  0.00     0.021 A 
ATOM     26  C   UNL d   1      46.015 -12.080  44.690  0.00  0.00     0.003 A 
ATOM     27  C   UNL d   1      45.392 -12.408  44.277  0.00  0.00     0.019 A 
ENDBRANCH   1  22
TORSDOF 3
ENDMDL
