MODEL 1
REMARK VINA RESULT:      27.4      0.000      0.000
REMARK  2 active torsions:
REMARK  status: ('A' for Active; 'I' for Inactive)
REMARK    1  A    between atoms: C_6  and  N_1 
REMARK    2  A    between atoms: C_7  and  C_6 
ROOT
ATOM      1  N   UNL d   1     -51.502  25.359  33.381  0.00  0.00    -0.287 N 
ATOM      2  N   UNL d   1     -50.778  24.259  33.307  0.00  0.00    -0.224 NA
ATOM      3  C   UNL d   1     -50.730  25.083  33.341  0.00  0.00     0.183 A 
ATOM      4  C   UNL d   1     -52.011  24.733  33.371  0.00  0.00     0.083 A 
ATOM      5  C   UNL d   1     -51.558  24.045  33.325  0.00  0.00     0.099 A 
ATOM      6  C   UNL d   1     -52.833  24.684  33.399  0.00  0.00     0.019 A 
ATOM      7  C   UNL d   1     -51.927  23.308  33.306  0.00  0.00     0.021 A 
ATOM      8  C   UNL d   1     -53.204  23.947  33.380  0.00  0.00     0.002 A 
ATOM      9  C   UNL d   1     -52.751  23.259  33.333  0.00  0.00     0.002 A 
ENDROOT
BRANCH   1  10
ATOM     10  C   UNL d   1     -51.555  26.188  33.419  0.00  0.00     0.082 C 
BRANCH  10  11
ATOM     11  C   UNL d   1     -50.909  26.627  33.658  0.00  0.00     0.018 A 
ATOM     12  C   UNL d   1     -50.418  26.339  34.254  0.00  0.00     0.002 A 
ATOM     13  C   UNL d   1     -49.764  26.779  34.499  0.00  0.00     0.011 A 
ATOM     14  C   UNL d   1     -49.603  27.508  34.148  0.00  0.00     0.058 A 
ATOM     15  C   UNL d   1     -50.102  27.770  33.564  0.00  0.00     0.011 A 
ATOM     16 CL   UNL d   1     -48.952  27.923  34.408  0.00  0.00    -0.082 Cl
ATOM     17  C   UNL d   1     -50.748  27.356  33.307  0.00  0.00     0.002 A 
ENDBRANCH  10  11
ENDBRANCH   1  10
TORSDOF 2
ENDMDL
MODEL 2
REMARK VINA RESULT:      28.6      1.831      3.627
REMARK  2 active torsions:
REMARK  status: ('A' for Active; 'I' for Inactive)
REMARK    1  A    between atoms: C_6  and  N_1 
REMARK    2  A    between atoms: C_7  and  C_6 
ROOT
ATOM      1  N   UNL d   1     -50.925  25.035  33.395  0.00  0.00    -0.287 N 
ATOM      2  N   UNL d   1     -49.934  25.883  33.590  0.00  0.00    -0.224 NA
ATOM      3  C   UNL d   1     -50.115  25.081  33.513  0.00  0.00     0.183 A 
ATOM      4  C   UNL d   1     -51.239  25.778  33.398  0.00  0.00     0.083 A 
ATOM      5  C   UNL d   1     -50.619  26.309  33.519  0.00  0.00     0.099 A 
ATOM      6  C   UNL d   1     -52.009  26.058  33.306  0.00  0.00     0.019 A 
ATOM      7  C   UNL d   1     -50.769  27.119  33.549  0.00  0.00     0.021 A 
ATOM      8  C   UNL d   1     -52.160  26.869  33.336  0.00  0.00     0.002 A 
ATOM      9  C   UNL d   1     -51.540  27.399  33.457  0.00  0.00     0.002 A 
ENDROOT
BRANCH   1  10
ATOM     10  C   UNL d   1     -51.202  24.256  33.307  0.00  0.00     0.082 C 
BRANCH  10  11
ATOM     11  C   UNL d   1     -51.978  24.076  33.488  0.00  0.00     0.018 A 
ATOM     12  C   UNL d   1     -52.572  24.628  33.338  0.00  0.00     0.002 A 
ATOM     13  C   UNL d   1     -53.357  24.450  33.520  0.00  0.00     0.011 A 
ATOM     14  C   UNL d   1     -53.547  23.719  33.851  0.00  0.00     0.058 A 
ATOM     15  C   UNL d   1     -52.946  23.192  33.989  0.00  0.00     0.011 A 
ATOM     16 CL   UNL d   1     -54.330  23.567  34.021  0.00  0.00    -0.082 Cl
ATOM     17  C   UNL d   1     -52.168  23.345  33.819  0.00  0.00     0.002 A 
ENDBRANCH  10  11
ENDBRANCH   1  10
TORSDOF 2
ENDMDL
