MODEL 1
REMARK VINA RESULT:      -2.1      0.000      0.000
REMARK  4 active torsions:
REMARK  status: ('A' for Active; 'I' for Inactive)
REMARK       I    between atoms: N_3  and  C_1 
REMARK    1  A    between atoms: O_5  and  C_1 
REMARK    2  A    between atoms: C_2  and  O_8 
REMARK       I    between atoms: N_4  and  C_2 
REMARK    3  A    between atoms: C_6  and  O_5 
REMARK    4  A    between atoms: O_8  and  C_12 
ROOT
ATOM      1  C   UNL d   1      31.189  16.828 -24.277  0.00  0.00     0.105 A 
ATOM      2  C   UNL d   1      31.870  17.288 -24.220  0.00  0.00     0.025 A 
ATOM      3  C   UNL d   1      31.859  17.984 -23.781  0.00  0.00     0.027 A 
ATOM      4  C   UNL d   1      32.548  18.461 -23.717  0.00  0.00     0.105 A 
ATOM      5  C   UNL d   1      32.551  17.055 -24.597  0.00  0.00     0.002 A 
ATOM      6  C   UNL d   1      33.239  17.513 -24.545  0.00  0.00     0.002 A 
ATOM      7  C   UNL d   1      33.230  18.228 -24.094  0.00  0.00     0.025 A 
ATOM      8  C   UNL d   1      31.200  16.132 -24.716  0.00  0.00     0.025 A 
ATOM      9  C   UNL d   1      31.882  15.899 -25.093  0.00  0.00     0.002 A 
ATOM     10  C   UNL d   1      32.569  16.356 -25.041  0.00  0.00     0.000 A 
ENDROOT
BRANCH   1  11
ATOM     11  O   UNL d   1      30.498  17.064 -23.895  0.00  0.00    -0.259 OA
BRANCH  11  12
ATOM     12  C   UNL d   1      29.926  16.503 -23.690  0.00  0.00     0.378 C 
ATOM     13  N   UNL d   1      29.129  16.729 -23.572  0.00  0.00    -0.247 N 
ATOM     14  C   UNL d   1      28.563  16.157 -23.367  0.00  0.00     0.112 A 
ATOM     15  C   UNL d   1      28.916  17.520 -23.662  0.00  0.00     0.112 A 
ATOM     16  C   UNL d   1      27.772  16.391 -23.252  0.00  0.00     0.142 A 
ATOM     17  O   UNL d   1      27.558  17.195 -23.343  0.00  0.00    -0.300 OA
ATOM     18  C   UNL d   1      28.132  17.752 -23.548  0.00  0.00     0.142 A 
ATOM     19  O   UNL d   1      30.134  15.706 -23.598  0.00  0.00    -0.237 OA
ENDBRANCH  11  12
ENDBRANCH   1  11
BRANCH   4  20
ATOM     20  O   UNL d   1      32.535  19.158 -23.276  0.00  0.00    -0.259 OA
BRANCH  20  21
ATOM     21  C   UNL d   1      32.861  19.177 -22.526  0.00  0.00     0.378 C 
ATOM     22  N   UNL d   1      32.870  19.880 -22.089  0.00  0.00    -0.247 N 
ATOM     23  C   UNL d   1      33.204  19.879 -21.334  0.00  0.00     0.112 A 
ATOM     24  C   UNL d   1      32.550  20.559 -22.410  0.00  0.00     0.112 A 
ATOM     25  C   UNL d   1      33.212  20.579 -20.900  0.00  0.00     0.142 A 
ATOM     26  O   UNL d   1      32.891  21.269 -21.218  0.00  0.00    -0.300 OA
ATOM     27  C   UNL d   1      32.560  21.258 -21.972  0.00  0.00     0.142 A 
ATOM     28  O   UNL d   1      33.182  18.485 -22.211  0.00  0.00    -0.237 OA
ENDBRANCH  20  21
ENDBRANCH   4  20
TORSDOF 4
ENDMDL
MODEL 2
REMARK VINA RESULT:      -1.7      2.365      5.776
REMARK  4 active torsions:
REMARK  status: ('A' for Active; 'I' for Inactive)
REMARK       I    between atoms: N_3  and  C_1 
REMARK    1  A    between atoms: O_5  and  C_1 
REMARK    2  A    between atoms: C_2  and  O_8 
REMARK       I    between atoms: N_4  and  C_2 
REMARK    3  A    between atoms: C_6  and  O_5 
REMARK    4  A    between atoms: O_8  and  C_12 
ROOT
ATOM      1  C   UNL d   1      33.074  22.502 -23.181  0.00  0.00     0.105 A 
ATOM      2  C   UNL d   1      33.129  21.898 -23.738  0.00  0.00     0.025 A 
ATOM      3  C   UNL d   1      33.156  21.114 -23.492  0.00  0.00     0.027 A 
ATOM      4  C   UNL d   1      33.212  20.490 -24.053  0.00  0.00     0.105 A 
ATOM      5  C   UNL d   1      33.158  22.077 -24.530  0.00  0.00     0.002 A 
ATOM      6  C   UNL d   1      33.214  21.477 -25.096  0.00  0.00     0.002 A 
ATOM      7  C   UNL d   1      33.241  20.670 -24.846  0.00  0.00     0.025 A 
ATOM      8  C   UNL d   1      33.047  23.286 -23.427  0.00  0.00     0.025 A 
ATOM      9  C   UNL d   1      33.076  23.466 -24.219  0.00  0.00     0.002 A 
ATOM     10  C   UNL d   1      33.132  22.865 -24.785  0.00  0.00     0.000 A 
ENDROOT
BRANCH   1  11
ATOM     11  O   UNL d   1      33.045  22.320 -22.377  0.00  0.00    -0.259 OA
BRANCH  11  12
ATOM     12  C   UNL d   1      32.816  22.897 -21.831  0.00  0.00     0.378 C 
ATOM     13  N   UNL d   1      32.880  22.754 -21.008  0.00  0.00    -0.247 N 
ATOM     14  C   UNL d   1      32.648  23.341 -20.468  0.00  0.00     0.112 A 
ATOM     15  C   UNL d   1      33.174  22.031 -20.744  0.00  0.00     0.112 A 
ATOM     16  C   UNL d   1      32.715  23.191 -19.652  0.00  0.00     0.142 A 
ATOM     17  O   UNL d   1      33.013  22.456 -19.386  0.00  0.00    -0.300 OA
ATOM     18  C   UNL d   1      33.240  21.883 -19.935  0.00  0.00     0.142 A 
ATOM     19  O   UNL d   1      32.520  23.626 -22.088  0.00  0.00    -0.237 OA
ENDBRANCH  11  12
ENDBRANCH   1  11
BRANCH   4  20
ATOM     20  O   UNL d   1      33.239  19.704 -23.803  0.00  0.00    -0.259 OA
BRANCH  20  21
ATOM     21  C   UNL d   1      32.736  19.150 -24.135  0.00  0.00     0.378 C 
ATOM     22  N   UNL d   1      32.678  18.390 -23.813  0.00  0.00    -0.247 N 
ATOM     23  C   UNL d   1      32.165  17.844 -24.162  0.00  0.00     0.112 A 
ATOM     24  C   UNL d   1      33.127  18.192 -23.160  0.00  0.00     0.112 A 
ATOM     25  C   UNL d   1      32.108  17.088 -23.841  0.00  0.00     0.142 A 
ATOM     26  O   UNL d   1      32.558  16.881 -23.181  0.00  0.00    -0.300 OA
ATOM     27  C   UNL d   1      33.066  17.433 -22.842  0.00  0.00     0.142 A 
ATOM     28  O   UNL d   1      32.288  19.361 -24.795  0.00  0.00    -0.237 OA
ENDBRANCH  20  21
ENDBRANCH   4  20
TORSDOF 4
ENDMDL
MODEL 3
REMARK VINA RESULT:       0.7      2.239      5.806
REMARK  4 active torsions:
REMARK  status: ('A' for Active; 'I' for Inactive)
REMARK       I    between atoms: N_3  and  C_1 
REMARK    1  A    between atoms: O_5  and  C_1 
REMARK    2  A    between atoms: C_2  and  O_8 
REMARK       I    between atoms: N_4  and  C_2 
REMARK    3  A    between atoms: C_6  and  O_5 
REMARK    4  A    between atoms: O_8  and  C_12 
ROOT
ATOM      1  C   UNL d   1      33.024  22.263 -21.489  0.00  0.00     0.105 A 
ATOM      2  C   UNL d   1      33.029  21.475 -21.250  0.00  0.00     0.025 A 
ATOM      3  C   UNL d   1      33.132  20.878 -21.807  0.00  0.00     0.027 A 
ATOM      4  C   UNL d   1      33.137  20.071 -21.572  0.00  0.00     0.105 A 
ATOM      5  C   UNL d   1      32.931  21.288 -20.465  0.00  0.00     0.002 A 
ATOM      6  C   UNL d   1      32.934  20.499 -20.217  0.00  0.00     0.002 A 
ATOM      7  C   UNL d   1      33.040  19.883 -20.787  0.00  0.00     0.025 A 
ATOM      8  C   UNL d   1      32.921  22.860 -20.933  0.00  0.00     0.025 A 
ATOM      9  C   UNL d   1      32.824  22.673 -20.148  0.00  0.00     0.002 A 
ATOM     10  C   UNL d   1      32.827  21.884 -19.900  0.00  0.00     0.000 A 
ENDROOT
BRANCH   1  11
ATOM     11  O   UNL d   1      33.123  22.453 -22.286  0.00  0.00    -0.259 OA
BRANCH  11  12
ATOM     12  C   UNL d   1      32.666  23.051 -22.628  0.00  0.00     0.378 C 
ATOM     13  N   UNL d   1      32.550  23.078 -23.456  0.00  0.00    -0.247 N 
ATOM     14  C   UNL d   1      32.088  23.683 -23.789  0.00  0.00     0.112 A 
ATOM     15  C   UNL d   1      32.896  22.502 -23.933  0.00  0.00     0.112 A 
ATOM     16  C   UNL d   1      31.978  23.702 -24.615  0.00  0.00     0.142 A 
ATOM     17  O   UNL d   1      32.330  23.116 -25.096  0.00  0.00    -0.300 OA
ATOM     18  C   UNL d   1      32.786  22.521 -24.750  0.00  0.00     0.142 A 
ATOM     19  O   UNL d   1      32.315  23.634 -22.155  0.00  0.00    -0.237 OA
ENDBRANCH  11  12
ENDBRANCH   1  11
BRANCH   4  20
ATOM     20  O   UNL d   1      33.241  19.474 -22.133  0.00  0.00    -0.259 OA
BRANCH  20  21
ATOM     21  C   UNL d   1      32.608  19.221 -22.587  0.00  0.00     0.378 C 
ATOM     22  N   UNL d   1      32.581  18.446 -22.874  0.00  0.00    -0.247 N 
ATOM     23  C   UNL d   1      31.934  18.210 -23.331  0.00  0.00     0.112 A 
ATOM     24  C   UNL d   1      33.190  17.929 -22.704  0.00  0.00     0.112 A 
ATOM     25  C   UNL d   1      31.908  17.438 -23.616  0.00  0.00     0.142 A 
ATOM     26  O   UNL d   1      32.520  16.911 -23.448  0.00  0.00    -0.300 OA
ATOM     27  C   UNL d   1      33.159  17.157 -22.992  0.00  0.00     0.142 A 
ATOM     28  O   UNL d   1      31.998  19.752 -22.753  0.00  0.00    -0.237 OA
ENDBRANCH  20  21
ENDBRANCH   4  20
TORSDOF 4
ENDMDL
