MODEL 1
REMARK VINA RESULT:      21.6      0.000      0.000
REMARK  1 active torsions:
REMARK  status: ('A' for Active; 'I' for Inactive)
REMARK       I    between atoms: N_2  and  C_1 
REMARK       I    between atoms: N_3  and  C_1 
REMARK    1  A    between atoms: C_4  and  N_2 
ROOT
ATOM      1  C   UNL d   1      13.255  12.496  -3.483  0.00  0.00     0.086 A 
ATOM      2  C   UNL d   1      13.172  13.211  -3.892  0.00  0.00     0.018 A 
ATOM      3  C   UNL d   1      12.956  13.212  -4.687  0.00  0.00     0.002 A 
ATOM      4  C   UNL d   1      13.123  11.780  -3.867  0.00  0.00     0.019 A 
ATOM      5  C   UNL d   1      12.908  11.780  -4.661  0.00  0.00     0.002 A 
ATOM      6  C   UNL d   1      13.306  13.932  -3.501  0.00  0.00     0.002 A 
ATOM      7  C   UNL d   1      12.825  12.495  -5.071  0.00  0.00     0.000 A 
ATOM      8  C   UNL d   1      12.878  13.932  -5.080  0.00  0.00     0.000 A 
ATOM      9  C   UNL d   1      13.223  14.644  -3.909  0.00  0.00     0.000 A 
ATOM     10  C   UNL d   1      13.010  14.647  -4.695  0.00  0.00     0.000 A 
ENDROOT
BRANCH   1  11
ATOM     11  N   UNL d   1      13.472  12.484  -2.682  0.00  0.00    -0.192 NA
ATOM     12  C   UNL d   1      14.181  12.135  -2.436  0.00  0.00     0.354 C 
ATOM     13  N   UNL d   1      14.373  12.136  -1.640  0.00  0.00    -0.252 N 
ATOM     14  O   UNL d   1      14.691  11.787  -3.005  0.00  0.00    -0.244 OA
ATOM     15  C   UNL d   1      15.098  11.779  -1.390  0.00  0.00     0.111 A 
ATOM     16  C   UNL d   1      13.857  12.485  -1.096  0.00  0.00     0.111 A 
ATOM     17  C   UNL d   1      15.283  11.787  -0.575  0.00  0.00     0.142 A 
ATOM     18  O   UNL d   1      14.749  12.147  -0.014  0.00  0.00    -0.300 OA
ATOM     19  C   UNL d   1      14.052  12.488  -0.275  0.00  0.00     0.142 A 
ENDBRANCH   1  11
TORSDOF 1
ENDMDL
MODEL 2
REMARK VINA RESULT:      24.0      1.547      3.786
REMARK  1 active torsions:
REMARK  status: ('A' for Active; 'I' for Inactive)
REMARK       I    between atoms: N_2  and  C_1 
REMARK       I    between atoms: N_3  and  C_1 
REMARK    1  A    between atoms: C_4  and  N_2 
ROOT
ATOM      1  C   UNL d   1      14.457  13.037  -1.659  0.00  0.00     0.086 A 
ATOM      2  C   UNL d   1      14.750  13.659  -1.197  0.00  0.00     0.018 A 
ATOM      3  C   UNL d   1      15.091  13.507  -0.463  0.00  0.00     0.002 A 
ATOM      4  C   UNL d   1      14.505  12.261  -1.388  0.00  0.00     0.019 A 
ATOM      5  C   UNL d   1      14.845  12.109  -0.655  0.00  0.00     0.002 A 
ATOM      6  C   UNL d   1      14.700  14.442  -1.474  0.00  0.00     0.002 A 
ATOM      7  C   UNL d   1      15.138  12.731  -0.193  0.00  0.00     0.000 A 
ATOM      8  C   UNL d   1      15.377  14.138  -0.016  0.00  0.00     0.000 A 
ATOM      9  C   UNL d   1      14.991  15.061  -1.014  0.00  0.00     0.000 A 
ATOM     10  C   UNL d   1      15.328  14.913  -0.288  0.00  0.00     0.000 A 
ENDROOT
BRANCH   1  11
ATOM     11  N   UNL d   1      14.112  13.180  -2.400  0.00  0.00    -0.192 NA
ATOM     12  C   UNL d   1      13.787  12.563  -2.846  0.00  0.00     0.354 C 
ATOM     13  N   UNL d   1      13.452  12.729  -3.574  0.00  0.00    -0.252 N 
ATOM     14  O   UNL d   1      13.805  11.779  -2.545  0.00  0.00    -0.244 OA
ATOM     15  C   UNL d   1      13.119  12.098  -4.029  0.00  0.00     0.111 A 
ATOM     16  C   UNL d   1      13.444  13.508  -3.852  0.00  0.00     0.111 A 
ATOM     17  C   UNL d   1      12.780  12.279  -4.771  0.00  0.00     0.142 A 
ATOM     18  O   UNL d   1      12.773  13.084  -5.057  0.00  0.00    -0.300 OA
ATOM     19  C   UNL d   1      13.100  13.682  -4.603  0.00  0.00     0.142 A 
ENDBRANCH   1  11
TORSDOF 1
ENDMDL
