MODEL 1
REMARK VINA RESULT:      43.8      0.000      0.000
REMARK  3 active torsions:
REMARK  status: ('A' for Active; 'I' for Inactive)
REMARK    1  A    between atoms: N_2  and  C_1 
REMARK    2  A    between atoms: N_3  and  C_1 
REMARK       I    between atoms: C_4  and  N_3 
REMARK    3  A    between atoms: C_9  and  C_4 
ROOT
ATOM      1  C   UNL d   1      58.496  49.108  49.717  0.00  0.00     0.209 C 
ATOM      2  S   UNL d   1      58.829  49.025  48.975  0.00  0.00    -0.038 SA
ENDROOT
BRANCH   1   3
ATOM      3  N   UNL d   1      57.682  49.137  49.796  0.00  0.00    -0.282 N 
ATOM      4  C   UNL d   1      57.344  49.328  50.526  0.00  0.00     0.066 A 
ATOM      5  C   UNL d   1      56.523  49.355  50.596  0.00  0.00     0.016 A 
ATOM      6  C   UNL d   1      57.825  49.489  51.179  0.00  0.00     0.018 A 
ATOM      7  C   UNL d   1      56.179  49.543  51.318  0.00  0.00     0.001 A 
ATOM      8  C   UNL d   1      56.036  49.191  49.936  0.00  0.00     0.003 A 
ATOM      9  C   UNL d   1      56.654  49.703  51.963  0.00  0.00     0.000 A 
ATOM     10  C   UNL d   1      57.479  49.676  51.893  0.00  0.00     0.002 A 
ATOM     11  C   UNL d   1      56.375  49.002  49.213  0.00  0.00     0.019 A 
ATOM     12  C   UNL d   1      57.194  48.973  49.135  0.00  0.00     0.082 A 
ENDBRANCH   1   3
BRANCH   1  13
ATOM     13  N   UNL d   1      58.986  49.160  50.378  0.00  0.00    -0.180 NA
ATOM     14  C   UNL d   1      59.756  49.465  50.298  0.00  0.00     0.281 C 
ATOM     15  O   UNL d   1      60.021  49.707  49.574  0.00  0.00    -0.265 OA
BRANCH  14  16
ATOM     16  C   UNL d   1      60.236  49.511  50.970  0.00  0.00     0.058 A 
ATOM     17  C   UNL d   1      59.927  49.434  51.733  0.00  0.00     0.005 A 
ATOM     18  C   UNL d   1      60.405  49.481  52.396  0.00  0.00     0.000 A 
ATOM     19  C   UNL d   1      61.227  49.610  52.299  0.00  0.00     0.000 A 
ATOM     20  C   UNL d   1      61.538  49.687  51.548  0.00  0.00     0.000 A 
ATOM     21  C   UNL d   1      61.053  49.640  50.862  0.00  0.00     0.005 A 
ENDBRANCH  14  16
ENDBRANCH   1  13
TORSDOF 3
ENDMDL
