MODEL 1
REMARK VINA RESULT:      -3.4      0.000      0.000
REMARK  5 active torsions:
REMARK  status: ('A' for Active; 'I' for Inactive)
REMARK    1  A    between atoms: C_9  and  S_1 
REMARK    2  A    between atoms: C_2  and  C_10 
REMARK       I    between atoms: C_8  and  N_15 
REMARK    3  A    between atoms: C_10  and  C_8 
REMARK    4  A    between atoms: N_15  and  C_22 
REMARK    5  A    between atoms: O_26  and  C_21 
ROOT
ATOM      1  C   UNL d   1      33.241  20.562 -22.010  0.00  0.00     0.063 C 
ENDROOT
BRANCH   1   2
ATOM      2  C   UNL d   1      33.121  21.348 -22.220  0.00  0.00     0.012 A 
ATOM      3  C   UNL d   1      32.886  21.896 -21.650  0.00  0.00     0.023 A 
ATOM      4  C   UNL d   1      32.767  22.684 -21.866  0.00  0.00     0.105 A 
ATOM      5  C   UNL d   1      32.771  21.656 -20.874  0.00  0.00     0.004 A 
ATOM      6  C   UNL d   1      32.531  23.240 -21.298  0.00  0.00     0.049 A 
ATOM      7  O   UNL d   1      32.881  22.933 -22.645  0.00  0.00    -0.273 OA
ATOM      8  C   UNL d   1      32.417  22.992 -20.520  0.00  0.00     0.096 A 
ATOM      9  C   UNL d   1      32.537  22.203 -20.308  0.00  0.00     0.024 A 
ATOM     10  C   UNL d   1      33.119  22.375 -23.221  0.00  0.00     0.300 A 
ATOM     11  C   UNL d   1      33.239  21.586 -23.009  0.00  0.00     0.069 A 
ATOM     12  O   UNL d   1      33.235  22.611 -23.996  0.00  0.00    -0.259 OA
BRANCH   8  13
ATOM     13  O   UNL d   1      32.184  23.535 -19.952  0.00  0.00    -0.328 OA
ATOM     14  C   UNL d   1      32.515  23.507 -19.199  0.00  0.00     0.181 C 
ENDBRANCH   8  13
ENDBRANCH   1   2
BRANCH   1  15
ATOM     15  C   UNL d   1      33.104  19.957 -22.553  0.00  0.00     0.279 C 
ATOM     16  N   UNL d   1      32.951  19.191 -22.296  0.00  0.00    -0.208 NA
ATOM     17  O   UNL d   1      33.122  20.125 -23.357  0.00  0.00    -0.265 OA
BRANCH  16  18
ATOM     18  C   UNL d   1      32.816  18.592 -22.843  0.00  0.00     0.085 A 
ATOM     19  C   UNL d   1      33.150  17.848 -22.716  0.00  0.00     0.020 A 
ATOM     20  C   UNL d   1      33.012  17.247 -23.269  0.00  0.00     0.015 A 
ATOM     21  C   UNL d   1      32.551  17.386 -23.932  0.00  0.00     0.107 A 
ATOM     22  C   UNL d   1      32.219  18.129 -24.056  0.00  0.00     0.015 A 
ATOM     23  C   UNL d   1      32.351  18.734 -23.510  0.00  0.00     0.020 A 
BRANCH  21  24
ATOM     24  S   UNL d   1      32.417  16.785 -24.479  0.00  0.00     0.302 S 
ATOM     25  O   UNL d   1      32.469  16.243 -25.087  0.00  0.00    -0.197 OA
ATOM     26  O   UNL d   1      33.153  17.078 -24.661  0.00  0.00    -0.197 OA
ATOM     27  N   UNL d   1      31.710  16.364 -24.451  0.00  0.00    -0.043 N 
ENDBRANCH  21  24
ENDBRANCH  16  18
ENDBRANCH   1  15
TORSDOF 5
ENDMDL
MODEL 2
REMARK VINA RESULT:      -3.1      1.340      2.013
REMARK  5 active torsions:
REMARK  status: ('A' for Active; 'I' for Inactive)
REMARK    1  A    between atoms: C_9  and  S_1 
REMARK    2  A    between atoms: C_2  and  C_10 
REMARK       I    between atoms: C_8  and  N_15 
REMARK    3  A    between atoms: C_10  and  C_8 
REMARK    4  A    between atoms: N_15  and  C_22 
REMARK    5  A    between atoms: O_26  and  C_21 
ROOT
ATOM      1  C   UNL d   1      33.239  21.453 -20.676  0.00  0.00     0.063 C 
ENDROOT
BRANCH   1   2
ATOM      2  C   UNL d   1      32.874  22.185 -20.596  0.00  0.00     0.012 A 
ATOM      3  C   UNL d   1      32.868  22.565 -19.864  0.00  0.00     0.023 A 
ATOM      4  C   UNL d   1      32.499  23.301 -19.789  0.00  0.00     0.105 A 
ATOM      5  C   UNL d   1      33.227  22.211 -19.216  0.00  0.00     0.004 A 
ATOM      6  C   UNL d   1      32.490  23.688 -19.056  0.00  0.00     0.049 A 
ATOM      7  O   UNL d   1      32.137  23.662 -20.436  0.00  0.00    -0.273 OA
ATOM      8  C   UNL d   1      32.852  23.327 -18.409  0.00  0.00     0.096 A 
ATOM      9  C   UNL d   1      33.220  22.591 -18.489  0.00  0.00     0.024 A 
ATOM     10  C   UNL d   1      32.144  23.274 -21.177  0.00  0.00     0.300 A 
ATOM     11  C   UNL d   1      32.512  22.539 -21.257  0.00  0.00     0.069 A 
ATOM     12  O   UNL d   1      31.788  23.624 -21.825  0.00  0.00    -0.259 OA
BRANCH   8  13
ATOM     13  O   UNL d   1      32.848  23.702 -17.680  0.00  0.00    -0.328 OA
ATOM     14  C   UNL d   1      33.074  23.289 -17.006  0.00  0.00     0.181 C 
ENDBRANCH   8  13
ENDBRANCH   1   2
BRANCH   1  15
ATOM     15  C   UNL d   1      33.207  21.043 -21.391  0.00  0.00     0.279 C 
ATOM     16  N   UNL d   1      33.200  20.221 -21.402  0.00  0.00    -0.208 NA
ATOM     17  O   UNL d   1      33.181  21.464 -22.096  0.00  0.00    -0.265 OA
BRANCH  16  18
ATOM     18  C   UNL d   1      33.168  19.819 -22.118  0.00  0.00     0.085 A 
ATOM     19  C   UNL d   1      33.079  18.998 -22.115  0.00  0.00     0.020 A 
ATOM     20  C   UNL d   1      33.047  18.596 -22.839  0.00  0.00     0.015 A 
ATOM     21  C   UNL d   1      33.102  19.004 -23.548  0.00  0.00     0.107 A 
ATOM     22  C   UNL d   1      33.190  19.822 -23.547  0.00  0.00     0.015 A 
ATOM     23  C   UNL d   1      33.223  20.231 -22.831  0.00  0.00     0.020 A 
BRANCH  21  24
ATOM     24  S   UNL d   1      33.069  18.599 -24.264  0.00  0.00     0.302 S 
ATOM     25  O   UNL d   1      33.023  18.034 -24.852  0.00  0.00    -0.197 OA
ATOM     26  O   UNL d   1      33.022  18.023 -23.692  0.00  0.00    -0.197 OA
ATOM     27  N   UNL d   1      33.104  19.022 -24.969  0.00  0.00    -0.043 N 
ENDBRANCH  21  24
ENDBRANCH  16  18
ENDBRANCH   1  15
TORSDOF 5
ENDMDL
MODEL 3
REMARK VINA RESULT:      -1.5      2.214      5.553
REMARK  5 active torsions:
REMARK  status: ('A' for Active; 'I' for Inactive)
REMARK    1  A    between atoms: C_9  and  S_1 
REMARK    2  A    between atoms: C_2  and  C_10 
REMARK       I    between atoms: C_8  and  N_15 
REMARK    3  A    between atoms: C_10  and  C_8 
REMARK    4  A    between atoms: N_15  and  C_22 
REMARK    5  A    between atoms: O_26  and  C_21 
ROOT
ATOM      1  C   UNL d   1      32.273  19.291 -22.405  0.00  0.00     0.063 C 
ENDROOT
BRANCH   1   2
ATOM      2  C   UNL d   1      32.563  19.118 -23.155  0.00  0.00     0.012 A 
ATOM      3  C   UNL d   1      32.663  18.333 -23.387  0.00  0.00     0.023 A 
ATOM      4  C   UNL d   1      32.954  18.164 -24.142  0.00  0.00     0.105 A 
ATOM      5  C   UNL d   1      32.472  17.725 -22.869  0.00  0.00     0.004 A 
ATOM      6  C   UNL d   1      33.057  17.377 -24.381  0.00  0.00     0.049 A 
ATOM      7  O   UNL d   1      33.148  18.770 -24.667  0.00  0.00    -0.273 OA
ATOM      8  C   UNL d   1      32.864  16.771 -23.856  0.00  0.00     0.096 A 
ATOM      9  C   UNL d   1      32.572  16.945 -23.103  0.00  0.00     0.024 A 
ATOM     10  C   UNL d   1      33.046  19.565 -24.429  0.00  0.00     0.300 A 
ATOM     11  C   UNL d   1      32.754  19.739 -23.675  0.00  0.00     0.069 A 
ATOM     12  O   UNL d   1      33.234  20.174 -24.942  0.00  0.00    -0.259 OA
BRANCH   8  13
ATOM     13  O   UNL d   1      32.962  15.991 -24.085  0.00  0.00    -0.328 OA
ATOM     14  C   UNL d   1      32.307  15.495 -24.139  0.00  0.00     0.181 C 
ENDBRANCH   8  13
ENDBRANCH   1   2
BRANCH   1  15
ATOM     15  C   UNL d   1      32.515  19.972 -22.008  0.00  0.00     0.279 C 
ATOM     16  N   UNL d   1      32.038  20.312 -21.431  0.00  0.00    -0.208 NA
ATOM     17  O   UNL d   1      33.241  20.309 -22.192  0.00  0.00    -0.265 OA
BRANCH  16  18
ATOM     18  C   UNL d   1      32.286  20.990 -21.039  0.00  0.00     0.085 A 
ATOM     19  C   UNL d   1      31.896  21.704 -21.182  0.00  0.00     0.020 A 
ATOM     20  C   UNL d   1      32.148  22.386 -20.785  0.00  0.00     0.015 A 
ATOM     21  C   UNL d   1      32.776  22.355 -20.257  0.00  0.00     0.107 A 
ATOM     22  C   UNL d   1      33.162  21.642 -20.117  0.00  0.00     0.015 A 
ATOM     23  C   UNL d   1      32.918  20.958 -20.508  0.00  0.00     0.020 A 
BRANCH  21  24
ATOM     24  S   UNL d   1      33.022  23.036 -19.866  0.00  0.00     0.302 S 
ATOM     25  O   UNL d   1      33.234  23.597 -19.311  0.00  0.00    -0.197 OA
ATOM     26  O   UNL d   1      32.862  22.498 -19.277  0.00  0.00    -0.197 OA
ATOM     27  N   UNL d   1      33.231  23.701 -20.304  0.00  0.00    -0.043 N 
ENDBRANCH  21  24
ENDBRANCH  16  18
ENDBRANCH   1  15
TORSDOF 5
ENDMDL
