MODEL 1
REMARK VINA RESULT:      -8.7      0.000      0.000
REMARK  4 active torsions:
REMARK  status: ('A' for Active; 'I' for Inactive)
REMARK       I    between atoms: N_3  and  C_1 
REMARK    1  A    between atoms: C_9  and  C_1 
REMARK    2  A    between atoms: C_2  and  N_3 
REMARK    3  A    between atoms: O_15  and  C_6 
REMARK    4  A    between atoms: O_16  and  C_8 
ROOT
ATOM      1  C   UNL d   1      53.085  33.273  54.107  0.00  0.00     0.109 A 
ATOM      2  C   UNL d   1      52.536  33.691  53.662  0.00  0.00     0.046 A 
ATOM      3  C   UNL d   1      53.672  34.505  54.545  0.00  0.00     0.039 A 
ATOM      4  C   UNL d   1      53.657  33.688  54.550  0.00  0.00     0.113 A 
ATOM      5  C   UNL d   1      53.112  34.930  54.092  0.00  0.00     0.082 A 
ATOM      6  C   UNL d   1      52.548  34.516  53.654  0.00  0.00     0.106 A 
ATOM      7 CL   UNL d   1      53.128  35.757  54.086  0.00  0.00    -0.080 Cl
ENDROOT
BRANCH   1   8
ATOM      8  N   UNL d   1      53.071  32.451  54.113  0.00  0.00    -0.206 NA
ATOM      9  C   UNL d   1      53.111  32.034  53.405  0.00  0.00     0.279 C 
ATOM     10  O   UNL d   1      53.165  32.441  52.689  0.00  0.00    -0.265 OA
BRANCH   9  11
ATOM     11  C   UNL d   1      53.097  31.212  53.402  0.00  0.00     0.058 A 
ATOM     12  C   UNL d   1      53.754  30.785  53.659  0.00  0.00     0.006 A 
ATOM     13  C   UNL d   1      53.743  29.959  53.658  0.00  0.00     0.012 A 
ATOM     14  C   UNL d   1      53.066  29.566  53.396  0.00  0.00     0.058 A 
ATOM     15  C   UNL d   1      52.406  29.991  53.139  0.00  0.00     0.012 A 
ATOM     16 CL   UNL d   1      53.045  28.740  53.392  0.00  0.00    -0.082 Cl
ATOM     17  C   UNL d   1      52.428  30.814  53.145  0.00  0.00     0.006 A 
ENDBRANCH   9  11
ENDBRANCH   1   8
BRANCH   4  18
ATOM     18  O   UNL d   1      54.207  33.265  54.996  0.00  0.00    -0.327 OA
ATOM     19  C   UNL d   1      54.812  33.669  55.389  0.00  0.00     0.181 C 
ENDBRANCH   4  18
BRANCH   6  20
ATOM     20  O   UNL d   1      51.990  34.940  53.203  0.00  0.00    -0.327 OA
ATOM     21  C   UNL d   1      51.216  34.669  53.167  0.00  0.00     0.181 C 
ENDBRANCH   6  20
TORSDOF 4
ENDMDL
MODEL 2
REMARK VINA RESULT:      -8.6      1.783      3.841
REMARK  4 active torsions:
REMARK  status: ('A' for Active; 'I' for Inactive)
REMARK       I    between atoms: N_3  and  C_1 
REMARK    1  A    between atoms: C_9  and  C_1 
REMARK    2  A    between atoms: C_2  and  N_3 
REMARK    3  A    between atoms: O_15  and  C_6 
REMARK    4  A    between atoms: O_16  and  C_8 
ROOT
ATOM      1  C   UNL d   1      52.564  33.314  53.462  0.00  0.00     0.109 A 
ATOM      2  C   UNL d   1      52.905  33.884  53.943  0.00  0.00     0.046 A 
ATOM      3  C   UNL d   1      53.723  32.485  53.614  0.00  0.00     0.039 A 
ATOM      4  C   UNL d   1      52.980  32.610  53.298  0.00  0.00     0.113 A 
ATOM      5  C   UNL d   1      54.071  33.067  54.105  0.00  0.00     0.082 A 
ATOM      6  C   UNL d   1      53.656  33.762  54.264  0.00  0.00     0.106 A 
ATOM      7 CL   UNL d   1      54.823  32.941  54.424  0.00  0.00    -0.080 Cl
ENDROOT
BRANCH   1   8
ATOM      8  N   UNL d   1      51.816  33.438  53.143  0.00  0.00    -0.206 NA
ATOM      9  C   UNL d   1      51.654  34.134  52.736  0.00  0.00     0.279 C 
ATOM     10  O   UNL d   1      52.241  34.706  52.647  0.00  0.00    -0.265 OA
BRANCH   9  11
ATOM     11  C   UNL d   1      50.908  34.266  52.414  0.00  0.00     0.058 A 
ATOM     12  C   UNL d   1      50.278  34.479  52.902  0.00  0.00     0.006 A 
ATOM     13  C   UNL d   1      49.528  34.612  52.581  0.00  0.00     0.012 A 
ATOM     14  C   UNL d   1      49.417  34.529  51.768  0.00  0.00     0.058 A 
ATOM     15  C   UNL d   1      50.047  34.315  51.277  0.00  0.00     0.012 A 
ATOM     16 CL   UNL d   1      48.670  34.660  51.439  0.00  0.00    -0.082 Cl
ATOM     17  C   UNL d   1      50.789  34.185  51.607  0.00  0.00     0.006 A 
ENDBRANCH   9  11
ENDBRANCH   1   8
BRANCH   4  18
ATOM     18  O   UNL d   1      52.633  32.039  52.814  0.00  0.00    -0.327 OA
ATOM     19  C   UNL d   1      52.871  31.250  52.877  0.00  0.00     0.181 C 
ENDBRANCH   4  18
BRANCH   6  20
ATOM     20  O   UNL d   1      54.003  34.341  54.752  0.00  0.00    -0.327 OA
ATOM     21  C   UNL d   1      53.583  34.623  55.399  0.00  0.00     0.181 C 
ENDBRANCH   6  20
TORSDOF 4
ENDMDL
MODEL 3
REMARK VINA RESULT:      -8.5      1.871      3.749
REMARK  4 active torsions:
REMARK  status: ('A' for Active; 'I' for Inactive)
REMARK       I    between atoms: N_3  and  C_1 
REMARK    1  A    between atoms: C_9  and  C_1 
REMARK    2  A    between atoms: C_2  and  N_3 
REMARK    3  A    between atoms: O_15  and  C_6 
REMARK    4  A    between atoms: O_16  and  C_8 
ROOT
ATOM      1  C   UNL d   1      52.724  33.979  53.734  0.00  0.00     0.109 A 
ATOM      2  C   UNL d   1      52.986  33.201  53.711  0.00  0.00     0.046 A 
ATOM      3  C   UNL d   1      53.668  34.270  54.772  0.00  0.00     0.039 A 
ATOM      4  C   UNL d   1      53.070  34.515  54.271  0.00  0.00     0.113 A 
ATOM      5  C   UNL d   1      53.935  33.477  54.748  0.00  0.00     0.082 A 
ATOM      6  C   UNL d   1      53.589  32.950  54.216  0.00  0.00     0.106 A 
ATOM      7 CL   UNL d   1      54.539  33.230  55.255  0.00  0.00    -0.080 Cl
ENDROOT
BRANCH   1   8
ATOM      8  N   UNL d   1      52.123  34.227  53.230  0.00  0.00    -0.206 NA
ATOM      9  C   UNL d   1      51.405  33.824  53.218  0.00  0.00     0.279 C 
ATOM     10  O   UNL d   1      51.289  33.173  53.711  0.00  0.00    -0.265 OA
BRANCH   9  11
ATOM     11  C   UNL d   1      50.799  34.065  52.717  0.00  0.00     0.058 A 
ATOM     12  C   UNL d   1      50.881  33.987  51.900  0.00  0.00     0.006 A 
ATOM     13  C   UNL d   1      50.273  34.229  51.395  0.00  0.00     0.012 A 
ATOM     14  C   UNL d   1      49.584  34.548  51.717  0.00  0.00     0.058 A 
ATOM     15  C   UNL d   1      49.500  34.627  52.535  0.00  0.00     0.012 A 
ATOM     16 CL   UNL d   1      48.971  34.792  51.219  0.00  0.00    -0.082 Cl
ATOM     17  C   UNL d   1      50.111  34.383  53.029  0.00  0.00     0.006 A 
ENDBRANCH   9  11
ENDBRANCH   1   8
BRANCH   4  18
ATOM     18  O   UNL d   1      52.805  35.296  54.291  0.00  0.00    -0.327 OA
ATOM     19  C   UNL d   1      53.264  35.874  54.660  0.00  0.00     0.181 C 
ENDBRANCH   4  18
BRANCH   6  20
ATOM     20  O   UNL d   1      53.854  32.161  54.192  0.00  0.00    -0.327 OA
ATOM     21  C   UNL d   1      54.060  31.830  53.469  0.00  0.00     0.181 C 
ENDBRANCH   6  20
TORSDOF 4
ENDMDL
MODEL 4
REMARK VINA RESULT:      -7.1      1.550      3.941
REMARK  4 active torsions:
REMARK  status: ('A' for Active; 'I' for Inactive)
REMARK       I    between atoms: N_3  and  C_1 
REMARK    1  A    between atoms: C_9  and  C_1 
REMARK    2  A    between atoms: C_2  and  N_3 
REMARK    3  A    between atoms: O_15  and  C_6 
REMARK    4  A    between atoms: O_16  and  C_8 
ROOT
ATOM      1  C   UNL d   1      52.858  32.082  53.496  0.00  0.00     0.109 A 
ATOM      2  C   UNL d   1      52.670  31.332  53.219  0.00  0.00     0.046 A 
ATOM      3  C   UNL d   1      54.202  31.654  53.752  0.00  0.00     0.039 A 
ATOM      4  C   UNL d   1      53.632  32.240  53.764  0.00  0.00     0.113 A 
ATOM      5  C   UNL d   1      54.010  30.890  53.470  0.00  0.00     0.082 A 
ATOM      6  C   UNL d   1      53.243  30.738  53.206  0.00  0.00     0.106 A 
ATOM      7 CL   UNL d   1      54.586  30.298  53.457  0.00  0.00    -0.080 Cl
ENDROOT
BRANCH   1   8
ATOM      8  N   UNL d   1      52.286  32.672  53.509  0.00  0.00    -0.206 NA
ATOM      9  C   UNL d   1      51.883  32.867  52.818  0.00  0.00     0.279 C 
ATOM     10  O   UNL d   1      52.052  32.471  52.115  0.00  0.00    -0.265 OA
BRANCH   9  11
ATOM     11  C   UNL d   1      51.309  33.456  52.822  0.00  0.00     0.058 A 
ATOM     12  C   UNL d   1      51.343  34.072  52.275  0.00  0.00     0.006 A 
ATOM     13  C   UNL d   1      50.767  34.665  52.277  0.00  0.00     0.012 A 
ATOM     14  C   UNL d   1      50.158  34.634  52.832  0.00  0.00     0.058 A 
ATOM     15  C   UNL d   1      50.122  34.018  53.382  0.00  0.00     0.012 A 
ATOM     16 CL   UNL d   1      49.578  35.223  52.841  0.00  0.00    -0.082 Cl
ATOM     17  C   UNL d   1      50.700  33.433  53.371  0.00  0.00     0.006 A 
ENDBRANCH   9  11
ENDBRANCH   1   8
BRANCH   4  18
ATOM     18  O   UNL d   1      53.818  32.994  54.041  0.00  0.00    -0.327 OA
ATOM     19  C   UNL d   1      54.477  33.100  54.527  0.00  0.00     0.181 C 
ENDBRANCH   4  18
BRANCH   6  20
ATOM     20  O   UNL d   1      53.051  29.977  52.925  0.00  0.00    -0.327 OA
ATOM     21  C   UNL d   1      52.543  29.505  53.363  0.00  0.00     0.181 C 
ENDBRANCH   6  20
TORSDOF 4
ENDMDL
MODEL 5
REMARK VINA RESULT:      -6.5      3.155      4.938
REMARK  4 active torsions:
REMARK  status: ('A' for Active; 'I' for Inactive)
REMARK       I    between atoms: N_3  and  C_1 
REMARK    1  A    between atoms: C_9  and  C_1 
REMARK    2  A    between atoms: C_2  and  N_3 
REMARK    3  A    between atoms: O_15  and  C_6 
REMARK    4  A    between atoms: O_16  and  C_8 
ROOT
ATOM      1  C   UNL d   1      48.958  35.032  52.589  0.00  0.00     0.109 A 
ATOM      2  C   UNL d   1      48.788  35.460  53.269  0.00  0.00     0.046 A 
ATOM      3  C   UNL d   1      47.894  35.697  51.898  0.00  0.00     0.039 A 
ATOM      4  C   UNL d   1      48.505  35.155  51.900  0.00  0.00     0.113 A 
ATOM      5  C   UNL d   1      47.720  36.134  52.591  0.00  0.00     0.082 A 
ATOM      6  C   UNL d   1      48.171  36.009  53.271  0.00  0.00     0.106 A 
ATOM      7 CL   UNL d   1      47.102  36.682  52.589  0.00  0.00    -0.080 Cl
ENDROOT
BRANCH   1   8
ATOM      8  N   UNL d   1      49.573  34.486  52.590  0.00  0.00    -0.206 NA
ATOM      9  C   UNL d   1      50.286  34.671  52.956  0.00  0.00     0.279 C 
ATOM     10  O   UNL d   1      50.384  35.404  53.322  0.00  0.00    -0.265 OA
BRANCH   9  11
ATOM     11  C   UNL d   1      50.906  34.131  52.962  0.00  0.00     0.058 A 
ATOM     12  C   UNL d   1      50.815  33.399  53.332  0.00  0.00     0.006 A 
ATOM     13  C   UNL d   1      51.437  32.854  53.338  0.00  0.00     0.012 A 
ATOM     14  C   UNL d   1      52.149  33.051  52.971  0.00  0.00     0.058 A 
ATOM     15  C   UNL d   1      52.242  33.784  52.600  0.00  0.00     0.012 A 
ATOM     16 CL   UNL d   1      52.776  32.512  52.973  0.00  0.00    -0.082 Cl
ATOM     17  C   UNL d   1      51.617  34.318  52.599  0.00  0.00     0.006 A 
ENDBRANCH   9  11
ENDBRANCH   1   8
BRANCH   4  18
ATOM     18  O   UNL d   1      48.679  34.723  51.220  0.00  0.00    -0.327 OA
ATOM     19  C   UNL d   1      48.081  34.565  50.672  0.00  0.00     0.181 C 
ENDBRANCH   4  18
BRANCH   6  20
ATOM     20  O   UNL d   1      47.998  36.444  53.960  0.00  0.00    -0.327 OA
ATOM     21  C   UNL d   1      47.504  36.114  54.527  0.00  0.00     0.181 C 
ENDBRANCH   6  20
TORSDOF 4
ENDMDL
MODEL 6
REMARK VINA RESULT:      -6.0      1.673      4.387
REMARK  4 active torsions:
REMARK  status: ('A' for Active; 'I' for Inactive)
REMARK       I    between atoms: N_3  and  C_1 
REMARK    1  A    between atoms: C_9  and  C_1 
REMARK    2  A    between atoms: C_2  and  N_3 
REMARK    3  A    between atoms: O_15  and  C_6 
REMARK    4  A    between atoms: O_16  and  C_8 
ROOT
ATOM      1  C   UNL d   1      53.440  31.156  53.531  0.00  0.00     0.109 A 
ATOM      2  C   UNL d   1      53.643  30.427  53.851  0.00  0.00     0.046 A 
ATOM      3  C   UNL d   1      52.318  30.559  52.869  0.00  0.00     0.039 A 
ATOM      4  C   UNL d   1      52.772  31.218  53.036  0.00  0.00     0.113 A 
ATOM      5  C   UNL d   1      52.524  29.816  53.196  0.00  0.00     0.082 A 
ATOM      6  C   UNL d   1      53.187  29.759  53.684  0.00  0.00     0.106 A 
ATOM      7 CL   UNL d   1      52.066  29.149  53.027  0.00  0.00    -0.080 Cl
ENDROOT
BRANCH   1   8
ATOM      8  N   UNL d   1      53.896  31.820  53.698  0.00  0.00    -0.206 NA
ATOM      9  C   UNL d   1      53.980  32.075  54.476  0.00  0.00     0.279 C 
ATOM     10  O   UNL d   1      53.607  31.664  55.087  0.00  0.00    -0.265 OA
BRANCH   9  11
ATOM     11  C   UNL d   1      54.433  32.737  54.652  0.00  0.00     0.058 A 
ATOM     12  C   UNL d   1      54.358  33.110  55.384  0.00  0.00     0.006 A 
ATOM     13  C   UNL d   1      54.813  33.776  55.563  0.00  0.00     0.012 A 
ATOM     14  C   UNL d   1      55.343  34.065  55.001  0.00  0.00     0.058 A 
ATOM     15  C   UNL d   1      55.421  33.693  54.267  0.00  0.00     0.012 A 
ATOM     16 CL   UNL d   1      55.802  34.730  55.172  0.00  0.00    -0.082 Cl
ATOM     17  C   UNL d   1      54.963  33.031  54.099  0.00  0.00     0.006 A 
ENDBRANCH   9  11
ENDBRANCH   1   8
BRANCH   4  18
ATOM     18  O   UNL d   1      52.572  31.952  52.717  0.00  0.00    -0.327 OA
ATOM     19  C   UNL d   1      51.780  32.128  52.564  0.00  0.00     0.181 C 
ENDBRANCH   4  18
BRANCH   6  20
ATOM     20  O   UNL d   1      53.392  29.020  54.009  0.00  0.00    -0.327 OA
ATOM     21  C   UNL d   1      53.316  28.903  54.818  0.00  0.00     0.181 C 
ENDBRANCH   6  20
TORSDOF 4
ENDMDL
MODEL 7
REMARK VINA RESULT:      -5.8     10.064     10.624
REMARK  4 active torsions:
REMARK  status: ('A' for Active; 'I' for Inactive)
REMARK       I    between atoms: N_3  and  C_1 
REMARK    1  A    between atoms: C_9  and  C_1 
REMARK    2  A    between atoms: C_2  and  N_3 
REMARK    3  A    between atoms: O_15  and  C_6 
REMARK    4  A    between atoms: O_16  and  C_8 
ROOT
ATOM      1  C   UNL d   1      44.570  29.148  59.492  0.00  0.00     0.109 A 
ATOM      2  C   UNL d   1      44.670  29.922  59.238  0.00  0.00     0.046 A 
ATOM      3  C   UNL d   1      44.577  29.590  60.855  0.00  0.00     0.039 A 
ATOM      4  C   UNL d   1      44.524  28.985  60.308  0.00  0.00     0.113 A 
ATOM      5  C   UNL d   1      44.679  30.379  60.596  0.00  0.00     0.082 A 
ATOM      6  C   UNL d   1      44.725  30.537  59.787  0.00  0.00     0.106 A 
ATOM      7 CL   UNL d   1      44.733  30.992  61.149  0.00  0.00    -0.080 Cl
ENDROOT
BRANCH   1   8
ATOM      8  N   UNL d   1      44.516  28.538  58.942  0.00  0.00    -0.206 NA
ATOM      9  C   UNL d   1      45.096  28.454  58.365  0.00  0.00     0.279 C 
ATOM     10  O   UNL d   1      45.731  28.980  58.337  0.00  0.00    -0.265 OA
BRANCH   9  11
ATOM     11  C   UNL d   1      45.050  27.847  57.812  0.00  0.00     0.058 A 
ATOM     12  C   UNL d   1      44.483  27.873  57.213  0.00  0.00     0.006 A 
ATOM     13  C   UNL d   1      44.435  27.264  56.657  0.00  0.00     0.012 A 
ATOM     14  C   UNL d   1      44.960  26.630  56.706  0.00  0.00     0.058 A 
ATOM     15  C   UNL d   1      45.528  26.601  57.306  0.00  0.00     0.012 A 
ATOM     16 CL   UNL d   1      44.918  26.017  56.154  0.00  0.00    -0.082 Cl
ATOM     17  C   UNL d   1      45.568  27.213  57.855  0.00  0.00     0.006 A 
ENDBRANCH   9  11
ENDBRANCH   1   8
BRANCH   4  18
ATOM     18  O   UNL d   1      44.423  28.206  60.559  0.00  0.00    -0.327 OA
ATOM     19  C   UNL d   1      44.314  28.046  61.363  0.00  0.00     0.181 C 
ENDBRANCH   4  18
BRANCH   6  20
ATOM     20  O   UNL d   1      44.826  31.322  59.529  0.00  0.00    -0.327 OA
ATOM     21  C   UNL d   1      44.327  31.621  58.950  0.00  0.00     0.181 C 
ENDBRANCH   6  20
TORSDOF 4
ENDMDL
MODEL 8
REMARK VINA RESULT:      -5.8     10.302     10.950
REMARK  4 active torsions:
REMARK  status: ('A' for Active; 'I' for Inactive)
REMARK       I    between atoms: N_3  and  C_1 
REMARK    1  A    between atoms: C_9  and  C_1 
REMARK    2  A    between atoms: C_2  and  N_3 
REMARK    3  A    between atoms: O_15  and  C_6 
REMARK    4  A    between atoms: O_16  and  C_8 
ROOT
ATOM      1  C   UNL d   1      44.458  29.511  59.934  0.00  0.00     0.109 A 
ATOM      2  C   UNL d   1      44.560  30.178  60.402  0.00  0.00     0.046 A 
ATOM      3  C   UNL d   1      44.606  28.675  61.089  0.00  0.00     0.039 A 
ATOM      4  C   UNL d   1      44.482  28.755  60.285  0.00  0.00     0.113 A 
ATOM      5  C   UNL d   1      44.710  29.356  61.565  0.00  0.00     0.082 A 
ATOM      6  C   UNL d   1      44.686  30.102  61.214  0.00  0.00     0.106 A 
ATOM      7 CL   UNL d   1      44.835  29.276  62.378  0.00  0.00    -0.080 Cl
ENDROOT
BRANCH   1   8
ATOM      8  N   UNL d   1      44.334  29.590  59.125  0.00  0.00    -0.206 NA
ATOM      9  C   UNL d   1      44.882  29.993  58.663  0.00  0.00     0.279 C 
ATOM     10  O   UNL d   1      45.555  30.319  59.011  0.00  0.00    -0.265 OA
BRANCH   9  11
ATOM     11  C   UNL d   1      44.765  30.076  57.854  0.00  0.00     0.058 A 
ATOM     12  C   UNL d   1      44.434  30.769  57.551  0.00  0.00     0.006 A 
ATOM     13  C   UNL d   1      44.316  30.855  56.738  0.00  0.00     0.012 A 
ATOM     14  C   UNL d   1      44.532  30.240  56.231  0.00  0.00     0.058 A 
ATOM     15  C   UNL d   1      44.863  29.545  56.532  0.00  0.00     0.012 A 
ATOM     16 CL   UNL d   1      44.417  30.317  55.417  0.00  0.00    -0.082 Cl
ATOM     17  C   UNL d   1      44.977  29.470  57.344  0.00  0.00     0.006 A 
ENDBRANCH   9  11
ENDBRANCH   1   8
BRANCH   4  18
ATOM     18  O   UNL d   1      44.379  28.087  59.813  0.00  0.00    -0.327 OA
ATOM     19  C   UNL d   1      44.315  27.343  60.166  0.00  0.00     0.181 C 
ENDBRANCH   4  18
BRANCH   6  20
ATOM     20  O   UNL d   1      44.789  30.780  61.688  0.00  0.00    -0.327 OA
ATOM     21  C   UNL d   1      44.324  31.441  61.547  0.00  0.00     0.181 C 
ENDBRANCH   6  20
TORSDOF 4
ENDMDL
