MODEL 1
REMARK VINA RESULT:      -8.5      0.000      0.000
REMARK  3 active torsions:
REMARK  status: ('A' for Active; 'I' for Inactive)
REMARK    1  A    between atoms: C_6  and  C_1 
REMARK    2  A    between atoms: C_7  and  C_2 
REMARK    3  A    between atoms: O_14  and  C_12 
ROOT
ATOM      1  C   UNL d   1     -48.049  12.526  22.866  0.00  0.00     0.084 A 
ATOM      2  C   UNL d   1     -48.668  13.072  22.860  0.00  0.00     0.105 A 
ATOM      3  C   UNL d   1     -47.344  12.944  22.809  0.00  0.00     0.031 A 
ATOM      4  O   UNL d   1     -48.343  13.828  22.798  0.00  0.00    -0.307 OA
ATOM      5  C   UNL d   1     -47.524  13.743  22.767  0.00  0.00     0.100 A 
ATOM      6  C   UNL d   1     -46.561  12.702  22.789  0.00  0.00     0.026 A 
ATOM      7  C   UNL d   1     -46.923  14.308  22.705  0.00  0.00     0.027 A 
ATOM      8  C   UNL d   1     -45.951  13.254  22.727  0.00  0.00     0.094 A 
ATOM      9  C   UNL d   1     -46.134  14.067  22.685  0.00  0.00     0.026 A 
ENDROOT
BRANCH   2  10
ATOM     10  C   UNL d   1     -49.475  12.888  22.907  0.00  0.00     0.023 A 
ATOM     11  C   UNL d   1     -49.837  12.844  23.647  0.00  0.00     0.002 A 
ATOM     12  C   UNL d   1     -50.629  12.664  23.698  0.00  0.00     0.000 A 
ATOM     13  C   UNL d   1     -51.060  12.528  23.008  0.00  0.00     0.000 A 
ATOM     14  C   UNL d   1     -50.684  12.575  22.272  0.00  0.00     0.000 A 
ATOM     15  C   UNL d   1     -49.907  12.752  22.222  0.00  0.00     0.002 A 
ENDBRANCH   2  10
BRANCH   1  16
ATOM     16  C   UNL d   1     -48.122  11.705  22.920  0.00  0.00     0.299 C 
ATOM     17  O   UNL d   1     -48.247  11.259  22.245  0.00  0.00    -0.264 OA
ATOM     18  N   UNL d   1     -48.071  11.330  23.644  0.00  0.00    -0.102 N 
ENDBRANCH   1  16
BRANCH   8  19
ATOM     19  O   UNL d   1     -45.166  13.012  22.707  0.00  0.00    -0.328 OA
ATOM     20  C   UNL d   1     -44.742  13.051  21.996  0.00  0.00     0.181 C 
ENDBRANCH   8  19
TORSDOF 3
ENDMDL
MODEL 2
REMARK VINA RESULT:      -8.0      1.043      1.552
REMARK  3 active torsions:
REMARK  status: ('A' for Active; 'I' for Inactive)
REMARK    1  A    between atoms: C_6  and  C_1 
REMARK    2  A    between atoms: C_7  and  C_2 
REMARK    3  A    between atoms: O_14  and  C_12 
ROOT
ATOM      1  C   UNL d   1     -48.128  13.159  22.704  0.00  0.00     0.084 A 
ATOM      2  C   UNL d   1     -48.606  12.617  23.103  0.00  0.00     0.105 A 
ATOM      3  C   UNL d   1     -47.345  12.953  22.844  0.00  0.00     0.031 A 
ATOM      4  O   UNL d   1     -48.116  12.077  23.490  0.00  0.00    -0.307 OA
ATOM      5  C   UNL d   1     -47.337  12.290  23.326  0.00  0.00     0.100 A 
ATOM      6  C   UNL d   1     -46.637  13.284  22.595  0.00  0.00     0.026 A 
ATOM      7  C   UNL d   1     -46.621  11.950  23.564  0.00  0.00     0.027 A 
ATOM      8  C   UNL d   1     -45.915  12.956  22.824  0.00  0.00     0.094 A 
ATOM      9  C   UNL d   1     -45.907  12.281  23.315  0.00  0.00     0.026 A 
ENDROOT
BRANCH   2  10
ATOM     10  C   UNL d   1     -49.435  12.619  23.112  0.00  0.00     0.023 A 
ATOM     11  C   UNL d   1     -49.846  12.170  22.556  0.00  0.00     0.002 A 
ATOM     12  C   UNL d   1     -50.660  12.169  22.562  0.00  0.00     0.000 A 
ATOM     13  C   UNL d   1     -51.064  12.617  23.124  0.00  0.00     0.000 A 
ATOM     14  C   UNL d   1     -50.638  13.064  23.677  0.00  0.00     0.000 A 
ATOM     15  C   UNL d   1     -49.839  13.064  23.672  0.00  0.00     0.002 A 
ENDBRANCH   2  10
BRANCH   1  16
ATOM     16  C   UNL d   1     -48.388  13.794  22.246  0.00  0.00     0.299 C 
ATOM     17  O   UNL d   1     -48.563  13.683  21.454  0.00  0.00    -0.264 OA
ATOM     18  N   UNL d   1     -48.473  14.537  22.575  0.00  0.00    -0.102 N 
ENDBRANCH   1  16
BRANCH   8  19
ATOM     19  O   UNL d   1     -45.206  13.286  22.575  0.00  0.00    -0.328 OA
ATOM     20  C   UNL d   1     -44.822  12.981  21.907  0.00  0.00     0.181 C 
ENDBRANCH   8  19
TORSDOF 3
ENDMDL
MODEL 3
REMARK VINA RESULT:      -7.9      1.233      1.410
REMARK  3 active torsions:
REMARK  status: ('A' for Active; 'I' for Inactive)
REMARK    1  A    between atoms: C_6  and  C_1 
REMARK    2  A    between atoms: C_7  and  C_2 
REMARK    3  A    between atoms: O_14  and  C_12 
ROOT
ATOM      1  C   UNL d   1     -48.671  12.678  22.898  0.00  0.00     0.084 A 
ATOM      2  C   UNL d   1     -48.804  13.449  22.637  0.00  0.00     0.105 A 
ATOM      3  C   UNL d   1     -47.867  12.601  23.053  0.00  0.00     0.031 A 
ATOM      4  O   UNL d   1     -48.081  13.848  22.631  0.00  0.00    -0.307 OA
ATOM      5  C   UNL d   1     -47.506  13.318  22.888  0.00  0.00     0.100 A 
ATOM      6  C   UNL d   1     -47.417  11.970  23.321  0.00  0.00     0.026 A 
ATOM      7  C   UNL d   1     -46.690  13.412  22.992  0.00  0.00     0.027 A 
ATOM      8  C   UNL d   1     -46.603  12.050  23.429  0.00  0.00     0.094 A 
ATOM      9  C   UNL d   1     -46.235  12.779  23.262  0.00  0.00     0.026 A 
ENDROOT
BRANCH   2  10
ATOM     10  C   UNL d   1     -49.539  13.766  22.420  0.00  0.00     0.023 A 
ATOM     11  C   UNL d   1     -49.989  14.167  22.983  0.00  0.00     0.002 A 
ATOM     12  C   UNL d   1     -50.711  14.479  22.773  0.00  0.00     0.000 A 
ATOM     13  C   UNL d   1     -50.984  14.390  22.000  0.00  0.00     0.000 A 
ATOM     14  C   UNL d   1     -50.522  13.984  21.444  0.00  0.00     0.000 A 
ATOM     15  C   UNL d   1     -49.813  13.678  21.650  0.00  0.00     0.002 A 
ENDBRANCH   2  10
BRANCH   1  16
ATOM     16  C   UNL d   1     -49.240  12.088  22.989  0.00  0.00     0.299 C 
ATOM     17  O   UNL d   1     -49.407  11.580  22.369  0.00  0.00    -0.264 OA
ATOM     18  N   UNL d   1     -49.643  12.004  23.695  0.00  0.00    -0.102 N 
ENDBRANCH   1  16
BRANCH   8  19
ATOM     19  O   UNL d   1     -46.152  11.419  23.698  0.00  0.00    -0.328 OA
ATOM     20  C   UNL d   1     -45.420  11.256  23.344  0.00  0.00     0.181 C 
ENDBRANCH   8  19
TORSDOF 3
ENDMDL
MODEL 4
REMARK VINA RESULT:      -7.5      1.729      2.575
REMARK  3 active torsions:
REMARK  status: ('A' for Active; 'I' for Inactive)
REMARK    1  A    between atoms: C_6  and  C_1 
REMARK    2  A    between atoms: C_7  and  C_2 
REMARK    3  A    between atoms: O_14  and  C_12 
ROOT
ATOM      1  C   UNL d   1     -46.807  13.027  22.913  0.00  0.00     0.084 A 
ATOM      2  C   UNL d   1     -47.631  12.986  22.887  0.00  0.00     0.105 A 
ATOM      3  C   UNL d   1     -46.528  12.298  23.170  0.00  0.00     0.031 A 
ATOM      4  O   UNL d   1     -47.859  12.230  23.128  0.00  0.00    -0.307 OA
ATOM      5  C   UNL d   1     -47.173  11.809  23.301  0.00  0.00     0.100 A 
ATOM      6  C   UNL d   1     -45.770  12.015  23.301  0.00  0.00     0.026 A 
ATOM      7  C   UNL d   1     -47.066  11.032  23.565  0.00  0.00     0.027 A 
ATOM      8  C   UNL d   1     -45.648  11.242  23.564  0.00  0.00     0.094 A 
ATOM      9  C   UNL d   1     -46.304  10.745  23.698  0.00  0.00     0.026 A 
ENDROOT
BRANCH   2  10
ATOM     10  C   UNL d   1     -48.138  13.601  22.658  0.00  0.00     0.023 A 
ATOM     11  C   UNL d   1     -48.514  13.562  21.925  0.00  0.00     0.002 A 
ATOM     12  C   UNL d   1     -49.013  14.164  21.696  0.00  0.00     0.000 A 
ATOM     13  C   UNL d   1     -49.136  14.804  22.200  0.00  0.00     0.000 A 
ATOM     14  C   UNL d   1     -48.751  14.831  22.934  0.00  0.00     0.000 A 
ATOM     15  C   UNL d   1     -48.262  14.240  23.158  0.00  0.00     0.002 A 
ENDBRANCH   2  10
BRANCH   1  16
ATOM     16  C   UNL d   1     -46.344  13.681  22.718  0.00  0.00     0.299 C 
ATOM     17  O   UNL d   1     -46.154  14.235  23.290  0.00  0.00    -0.264 OA
ATOM     18  N   UNL d   1     -46.071  13.785  21.954  0.00  0.00    -0.102 N 
ENDBRANCH   1  16
BRANCH   8  19
ATOM     19  O   UNL d   1     -44.889  10.958  23.696  0.00  0.00    -0.328 OA
ATOM     20  C   UNL d   1     -44.733  10.148  23.610  0.00  0.00     0.181 C 
ENDBRANCH   8  19
TORSDOF 3
ENDMDL
MODEL 5
REMARK VINA RESULT:      -7.4      1.438      3.610
REMARK  3 active torsions:
REMARK  status: ('A' for Active; 'I' for Inactive)
REMARK    1  A    between atoms: C_6  and  C_1 
REMARK    2  A    between atoms: C_7  and  C_2 
REMARK    3  A    between atoms: O_14  and  C_12 
ROOT
ATOM      1  C   UNL d   1     -48.266  13.323  22.265  0.00  0.00     0.084 A 
ATOM      2  C   UNL d   1     -47.596  13.611  22.652  0.00  0.00     0.105 A 
ATOM      3  C   UNL d   1     -48.861  13.885  22.342  0.00  0.00     0.031 A 
ATOM      4  O   UNL d   1     -47.779  14.351  22.968  0.00  0.00    -0.307 OA
ATOM      5  C   UNL d   1     -48.562  14.516  22.774  0.00  0.00     0.100 A 
ATOM      6  C   UNL d   1     -49.636  13.905  22.076  0.00  0.00     0.026 A 
ATOM      7  C   UNL d   1     -49.036  15.172  22.943  0.00  0.00     0.027 A 
ATOM      8  C   UNL d   1     -50.120  14.554  22.238  0.00  0.00     0.094 A 
ATOM      9  C   UNL d   1     -49.817  15.195  22.677  0.00  0.00     0.026 A 
ENDROOT
BRANCH   2  10
ATOM     10  C   UNL d   1     -46.867  13.220  22.710  0.00  0.00     0.023 A 
ATOM     11  C   UNL d   1     -46.253  13.431  22.201  0.00  0.00     0.002 A 
ATOM     12  C   UNL d   1     -45.536  13.050  22.256  0.00  0.00     0.000 A 
ATOM     13  C   UNL d   1     -45.432  12.457  22.819  0.00  0.00     0.000 A 
ATOM     14  C   UNL d   1     -46.057  12.254  23.324  0.00  0.00     0.000 A 
ATOM     15  C   UNL d   1     -46.761  12.629  23.270  0.00  0.00     0.002 A 
ENDBRANCH   2  10
BRANCH   1  16
ATOM     16  C   UNL d   1     -48.330  12.602  21.870  0.00  0.00     0.299 C 
ATOM     17  O   UNL d   1     -48.135  12.549  21.077  0.00  0.00    -0.264 OA
ATOM     18  N   UNL d   1     -48.588  11.933  22.264  0.00  0.00    -0.102 N 
ENDBRANCH   1  16
BRANCH   8  19
ATOM     19  O   UNL d   1     -50.897  14.574  21.972  0.00  0.00    -0.328 OA
ATOM     20  C   UNL d   1     -51.062  14.425  21.173  0.00  0.00     0.181 C 
ENDBRANCH   8  19
TORSDOF 3
ENDMDL
MODEL 6
REMARK VINA RESULT:      -6.5      1.272      3.848
REMARK  3 active torsions:
REMARK  status: ('A' for Active; 'I' for Inactive)
REMARK    1  A    between atoms: C_6  and  C_1 
REMARK    2  A    between atoms: C_7  and  C_2 
REMARK    3  A    between atoms: O_14  and  C_12 
ROOT
ATOM      1  C   UNL d   1     -47.987  13.013  22.488  0.00  0.00     0.084 A 
ATOM      2  C   UNL d   1     -47.245  12.789  22.772  0.00  0.00     0.105 A 
ATOM      3  C   UNL d   1     -48.544  12.503  22.812  0.00  0.00     0.031 A 
ATOM      4  O   UNL d   1     -47.346  12.140  23.272  0.00  0.00    -0.307 OA
ATOM      5  C   UNL d   1     -48.151  11.967  23.293  0.00  0.00     0.100 A 
ATOM      6  C   UNL d   1     -49.358  12.455  22.731  0.00  0.00     0.026 A 
ATOM      7  C   UNL d   1     -48.568  11.380  23.698  0.00  0.00     0.027 A 
ATOM      8  C   UNL d   1     -49.788  11.874  23.130  0.00  0.00     0.094 A 
ATOM      9  C   UNL d   1     -49.388  11.330  23.619  0.00  0.00     0.026 A 
ENDROOT
BRANCH   2  10
ATOM     10  C   UNL d   1     -46.525  13.156  22.585  0.00  0.00     0.023 A 
ATOM     11  C   UNL d   1     -46.335  13.877  22.938  0.00  0.00     0.002 A 
ATOM     12  C   UNL d   1     -45.630  14.240  22.757  0.00  0.00     0.000 A 
ATOM     13  C   UNL d   1     -45.113  13.883  22.223  0.00  0.00     0.000 A 
ATOM     14  C   UNL d   1     -45.316  13.159  21.876  0.00  0.00     0.000 A 
ATOM     15  C   UNL d   1     -46.009  12.802  22.054  0.00  0.00     0.002 A 
ENDBRANCH   2  10
BRANCH   1  16
ATOM     16  C   UNL d   1     -48.144  13.637  21.971  0.00  0.00     0.299 C 
ATOM     17  O   UNL d   1     -48.183  13.501  21.164  0.00  0.00    -0.264 OA
ATOM     18  N   UNL d   1     -48.262  14.394  22.256  0.00  0.00    -0.102 N 
ENDBRANCH   1  16
BRANCH   8  19
ATOM     19  O   UNL d   1     -50.604  11.827  23.050  0.00  0.00    -0.328 OA
ATOM     20  C   UNL d   1     -51.064  12.512  23.120  0.00  0.00     0.181 C 
ENDBRANCH   8  19
TORSDOF 3
ENDMDL
MODEL 7
REMARK VINA RESULT:      -6.3      8.025      9.904
REMARK  3 active torsions:
REMARK  status: ('A' for Active; 'I' for Inactive)
REMARK    1  A    between atoms: C_6  and  C_1 
REMARK    2  A    between atoms: C_7  and  C_2 
REMARK    3  A    between atoms: O_14  and  C_12 
ROOT
ATOM      1  C   UNL d   1     -39.943  14.590  18.179  0.00  0.00     0.084 A 
ATOM      2  C   UNL d   1     -39.747  14.544  18.979  0.00  0.00     0.105 A 
ATOM      3  C   UNL d   1     -39.346  14.220  17.752  0.00  0.00     0.031 A 
ATOM      4  O   UNL d   1     -39.028  14.144  19.045  0.00  0.00    -0.307 OA
ATOM      5  C   UNL d   1     -38.785  13.946  18.283  0.00  0.00     0.100 A 
ATOM      6  C   UNL d   1     -39.241  14.096  16.948  0.00  0.00     0.026 A 
ATOM      7  C   UNL d   1     -38.112  13.546  18.016  0.00  0.00     0.027 A 
ATOM      8  C   UNL d   1     -38.575  13.698  16.667  0.00  0.00     0.094 A 
ATOM      9  C   UNL d   1     -38.003  13.420  17.207  0.00  0.00     0.026 A 
ENDROOT
BRANCH   2  10
ATOM     10  C   UNL d   1     -40.197  14.847  19.605  0.00  0.00     0.023 A 
ATOM     11  C   UNL d   1     -40.730  14.354  19.997  0.00  0.00     0.002 A 
ATOM     12  C   UNL d   1     -41.173  14.649  20.612  0.00  0.00     0.000 A 
ATOM     13  C   UNL d   1     -41.085  15.437  20.837  0.00  0.00     0.000 A 
ATOM     14  C   UNL d   1     -40.547  15.922  20.435  0.00  0.00     0.000 A 
ATOM     15  C   UNL d   1     -40.111  15.633  19.830  0.00  0.00     0.002 A 
ENDBRANCH   2  10
BRANCH   1  16
ATOM     16  C   UNL d   1     -40.618  14.945  17.861  0.00  0.00     0.299 C 
ATOM     17  O   UNL d   1     -41.300  14.505  17.755  0.00  0.00    -0.264 OA
ATOM     18  N   UNL d   1     -40.612  15.734  17.649  0.00  0.00    -0.102 N 
ENDBRANCH   1  16
BRANCH   8  19
ATOM     19  O   UNL d   1     -38.468  13.574  15.862  0.00  0.00    -0.328 OA
ATOM     20  C   UNL d   1     -37.940  14.052  15.439  0.00  0.00     0.181 C 
ENDBRANCH   8  19
TORSDOF 3
ENDMDL
MODEL 8
REMARK VINA RESULT:      -6.2      8.036      9.359
REMARK  3 active torsions:
REMARK  status: ('A' for Active; 'I' for Inactive)
REMARK    1  A    between atoms: C_6  and  C_1 
REMARK    2  A    between atoms: C_7  and  C_2 
REMARK    3  A    between atoms: O_14  and  C_12 
ROOT
ATOM      1  C   UNL d   1     -40.168  14.586  20.131  0.00  0.00     0.084 A 
ATOM      2  C   UNL d   1     -39.437  14.342  20.427  0.00  0.00     0.105 A 
ATOM      3  C   UNL d   1     -40.148  14.500  19.314  0.00  0.00     0.031 A 
ATOM      4  O   UNL d   1     -38.967  14.105  19.791  0.00  0.00    -0.307 OA
ATOM      5  C   UNL d   1     -39.412  14.205  19.105  0.00  0.00     0.100 A 
ATOM      6  C   UNL d   1     -40.705  14.652  18.731  0.00  0.00     0.026 A 
ATOM      7  C   UNL d   1     -39.226  14.059  18.313  0.00  0.00     0.027 A 
ATOM      8  C   UNL d   1     -40.533  14.511  17.937  0.00  0.00     0.094 A 
ATOM      9  C   UNL d   1     -39.785  14.211  17.725  0.00  0.00     0.026 A 
ENDROOT
BRANCH   2  10
ATOM     10  C   UNL d   1     -39.218  14.337  21.226  0.00  0.00     0.023 A 
ATOM     11  C   UNL d   1     -39.324  13.650  21.671  0.00  0.00     0.002 A 
ATOM     12  C   UNL d   1     -39.109  13.642  22.456  0.00  0.00     0.000 A 
ATOM     13  C   UNL d   1     -38.788  14.320  22.798  0.00  0.00     0.000 A 
ATOM     14  C   UNL d   1     -38.687  15.003  22.340  0.00  0.00     0.000 A 
ATOM     15  C   UNL d   1     -38.898  15.012  21.569  0.00  0.00     0.002 A 
ENDBRANCH   2  10
BRANCH   1  16
ATOM     16  C   UNL d   1     -40.805  14.867  20.573  0.00  0.00     0.299 C 
ATOM     17  O   UNL d   1     -41.356  14.343  20.876  0.00  0.00    -0.264 OA
ATOM     18  N   UNL d   1     -40.894  15.667  20.713  0.00  0.00    -0.102 N 
ENDBRANCH   1  16
BRANCH   8  19
ATOM     19  O   UNL d   1     -41.091  14.663  17.353  0.00  0.00    -0.328 OA
ATOM     20  C   UNL d   1     -41.050  15.368  16.920  0.00  0.00     0.181 C 
ENDBRANCH   8  19
TORSDOF 3
ENDMDL
MODEL 9
REMARK VINA RESULT:      -6.1      7.863     10.153
REMARK  3 active torsions:
REMARK  status: ('A' for Active; 'I' for Inactive)
REMARK    1  A    between atoms: C_6  and  C_1 
REMARK    2  A    between atoms: C_7  and  C_2 
REMARK    3  A    between atoms: O_14  and  C_12 
ROOT
ATOM      1  C   UNL d   1     -39.900  14.523  18.463  0.00  0.00     0.084 A 
ATOM      2  C   UNL d   1     -39.104  14.444  18.264  0.00  0.00     0.105 A 
ATOM      3  C   UNL d   1     -39.942  14.706  19.264  0.00  0.00     0.031 A 
ATOM      4  O   UNL d   1     -38.653  14.579  18.943  0.00  0.00    -0.307 OA
ATOM      5  C   UNL d   1     -39.177  14.740  19.558  0.00  0.00     0.100 A 
ATOM      6  C   UNL d   1     -40.577  14.846  19.763  0.00  0.00     0.026 A 
ATOM      7  C   UNL d   1     -39.040  14.915  20.354  0.00  0.00     0.027 A 
ATOM      8  C   UNL d   1     -40.455  15.022  20.561  0.00  0.00     0.094 A 
ATOM      9  C   UNL d   1     -39.677  15.057  20.860  0.00  0.00     0.026 A 
ENDROOT
BRANCH   2  10
ATOM     10  C   UNL d   1     -38.810  14.261  17.511  0.00  0.00     0.023 A 
ATOM     11  C   UNL d   1     -38.669  14.870  16.973  0.00  0.00     0.002 A 
ATOM     12  C   UNL d   1     -38.380  14.694  16.232  0.00  0.00     0.000 A 
ATOM     13  C   UNL d   1     -38.233  13.909  16.029  0.00  0.00     0.000 A 
ATOM     14  C   UNL d   1     -38.379  13.306  16.579  0.00  0.00     0.000 A 
ATOM     15  C   UNL d   1     -38.662  13.479  17.306  0.00  0.00     0.002 A 
ENDBRANCH   2  10
BRANCH   1  16
ATOM     16  C   UNL d   1     -40.543  14.434  17.953  0.00  0.00     0.299 C 
ATOM     17  O   UNL d   1     -40.890  13.699  17.856  0.00  0.00    -0.264 OA
ATOM     18  N   UNL d   1     -40.838  15.075  17.541  0.00  0.00    -0.102 N 
ENDBRANCH   1  16
BRANCH   8  19
ATOM     19  O   UNL d   1     -41.090  15.162  21.061  0.00  0.00    -0.328 OA
ATOM     20  C   UNL d   1     -41.450  15.909  21.069  0.00  0.00     0.181 C 
ENDBRANCH   8  19
TORSDOF 3
ENDMDL
