MODEL 1
REMARK VINA RESULT:      -7.3      0.000      0.000
REMARK  6 active torsions:
REMARK  status: ('A' for Active; 'I' for Inactive)
REMARK    1  A    between atoms: C_13  and  C_4 
REMARK    2  A    between atoms: C_20  and  C_7 
REMARK    3  A    between atoms: C_8  and  C_12 
REMARK       I    between atoms: N_9  and  C_8 
REMARK    4  A    between atoms: C_11  and  N_9 
REMARK       I    between atoms: C_12  and  N_19 
REMARK    5  A    between atoms: N_19  and  C_23 
REMARK    6  A    between atoms: C_23  and  C_20 
ROOT
ATOM      1  C   UNL d   1     -45.254  13.260  22.082  0.00  0.00     0.041 C 
ENDROOT
BRANCH   1   2
ATOM      2  C   UNL d   1     -45.859  12.959  22.557  0.00  0.00     0.093 A 
ATOM      3  N   UNL d   1     -46.626  13.248  22.609  0.00  0.00    -0.205 N 
ATOM      4  C   UNL d   1     -47.048  12.785  23.148  0.00  0.00     0.197 A 
ATOM      5  N   UNL d   1     -47.143  13.835  22.322  0.00  0.00    -0.144 NA
ATOM      6  N   UNL d   1     -47.818  13.082  23.195  0.00  0.00    -0.200 NA
ATOM      7  S   UNL d   1     -46.536  12.204  23.433  0.00  0.00    -0.046 SA
ATOM      8  C   UNL d   1     -47.879  13.727  22.687  0.00  0.00     0.184 A 
ATOM      9  C   UNL d   1     -45.801  12.312  23.067  0.00  0.00     0.058 A 
BRANCH   8  10
ATOM     10  C   UNL d   1     -48.554  14.185  22.566  0.00  0.00     0.038 A 
ATOM     11  C   UNL d   1     -49.100  13.966  21.993  0.00  0.00     0.003 A 
ATOM     12  C   UNL d   1     -48.973  13.292  21.542  0.00  0.00     0.000 C 
ATOM     13  C   UNL d   1     -49.778  14.426  21.872  0.00  0.00     0.000 A 
ATOM     14  C   UNL d   1     -49.898  15.106  22.332  0.00  0.00     0.000 A 
ATOM     15  C   UNL d   1     -49.352  15.324  22.905  0.00  0.00     0.000 A 
ATOM     16  C   UNL d   1     -48.673  14.863  23.026  0.00  0.00     0.003 A 
ENDBRANCH   8  10
ENDBRANCH   1   2
BRANCH   1  17
ATOM     17  C   UNL d   1     -44.539  12.856  22.019  0.00  0.00     0.104 C 
BRANCH  17  18
ATOM     18  N   UNL d   1     -43.923  13.179  21.592  0.00  0.00    -0.202 NA
ATOM     19  C   UNL d   1     -43.207  12.777  21.533  0.00  0.00     0.337 C 
ATOM     20  O   UNL d   1     -43.114  12.048  21.905  0.00  0.00    -0.260 OA
BRANCH  19  21
ATOM     21  C   UNL d   1     -42.590  13.101  21.106  0.00  0.00     0.337 C 
ATOM     22  N   UNL d   1     -42.031  13.593  21.473  0.00  0.00    -0.204 NA
ATOM     23  O   UNL d   1     -42.514  12.938  20.287  0.00  0.00    -0.260 OA
BRANCH  22  24
ATOM     24  C   UNL d   1     -41.409  13.920  21.041  0.00  0.00     0.085 A 
ATOM     25  C   UNL d   1     -40.650  13.966  21.384  0.00  0.00     0.018 A 
ATOM     26  C   UNL d   1     -40.020  14.283  20.978  0.00  0.00     0.002 A 
ATOM     27  C   UNL d   1     -40.527  13.685  22.147  0.00  0.00     0.002 C 
ATOM     28  C   UNL d   1     -40.133  14.573  20.198  0.00  0.00     0.000 A 
ATOM     29  C   UNL d   1     -40.900  14.527  19.852  0.00  0.00     0.002 A 
ATOM     30  C   UNL d   1     -41.532  14.198  20.285  0.00  0.00     0.019 A 
ATOM     31  C   UNL d   1     -41.021  14.806  19.093  0.00  0.00     0.000 C 
ENDBRANCH  22  24
ENDBRANCH  19  21
ENDBRANCH  17  18
ENDBRANCH   1  17
TORSDOF 6
ENDMDL
MODEL 2
REMARK VINA RESULT:      -7.2      1.895      7.090
REMARK  6 active torsions:
REMARK  status: ('A' for Active; 'I' for Inactive)
REMARK    1  A    between atoms: C_13  and  C_4 
REMARK    2  A    between atoms: C_20  and  C_7 
REMARK    3  A    between atoms: C_8  and  C_12 
REMARK       I    between atoms: N_9  and  C_8 
REMARK    4  A    between atoms: C_11  and  N_9 
REMARK       I    between atoms: C_12  and  N_19 
REMARK    5  A    between atoms: N_19  and  C_23 
REMARK    6  A    between atoms: C_23  and  C_20 
ROOT
ATOM      1  C   UNL d   1     -42.368  13.482  20.639  0.00  0.00     0.041 C 
ENDROOT
BRANCH   1   2
ATOM      2  C   UNL d   1     -41.634  13.856  20.675  0.00  0.00     0.093 A 
ATOM      3  N   UNL d   1     -41.144  14.029  20.038  0.00  0.00    -0.205 N 
ATOM      4  C   UNL d   1     -40.464  14.404  20.320  0.00  0.00     0.197 A 
ATOM      5  N   UNL d   1     -41.074  13.969  19.210  0.00  0.00    -0.144 NA
ATOM      6  N   UNL d   1     -39.977  14.575  19.674  0.00  0.00    -0.200 NA
ATOM      7  S   UNL d   1     -40.533  14.463  21.140  0.00  0.00    -0.046 SA
ATOM      8  C   UNL d   1     -40.350  14.308  18.991  0.00  0.00     0.184 A 
ATOM      9  C   UNL d   1     -41.256  14.124  21.359  0.00  0.00     0.058 A 
BRANCH   8  10
ATOM     10  C   UNL d   1     -40.054  14.369  18.224  0.00  0.00     0.038 A 
ATOM     11  C   UNL d   1     -40.272  15.002  17.749  0.00  0.00     0.003 A 
ATOM     12  C   UNL d   1     -40.784  15.575  18.039  0.00  0.00     0.000 C 
ATOM     13  C   UNL d   1     -39.974  15.063  16.978  0.00  0.00     0.000 A 
ATOM     14  C   UNL d   1     -39.458  14.480  16.694  0.00  0.00     0.000 A 
ATOM     15  C   UNL d   1     -39.240  13.846  17.168  0.00  0.00     0.000 A 
ATOM     16  C   UNL d   1     -39.538  13.786  17.940  0.00  0.00     0.003 A 
ENDBRANCH   8  10
ENDBRANCH   1   2
BRANCH   1  17
ATOM     17  C   UNL d   1     -42.703  13.163  21.322  0.00  0.00     0.104 C 
BRANCH  17  18
ATOM     18  N   UNL d   1     -43.497  13.269  21.476  0.00  0.00    -0.202 NA
ATOM     19  C   UNL d   1     -43.922  12.687  21.873  0.00  0.00     0.337 C 
ATOM     20  O   UNL d   1     -43.543  11.996  22.114  0.00  0.00    -0.260 OA
BRANCH  19  21
ATOM     21  C   UNL d   1     -44.717  12.793  22.027  0.00  0.00     0.337 C 
ATOM     22  N   UNL d   1     -45.031  12.626  22.777  0.00  0.00    -0.204 NA
ATOM     23  O   UNL d   1     -45.229  13.073  21.425  0.00  0.00    -0.260 OA
BRANCH  22  24
ATOM     24  C   UNL d   1     -45.834  12.734  22.933  0.00  0.00     0.085 A 
ATOM     25  C   UNL d   1     -46.274  12.114  23.276  0.00  0.00     0.018 A 
ATOM     26  C   UNL d   1     -47.066  12.196  23.438  0.00  0.00     0.002 A 
ATOM     27  C   UNL d   1     -45.905  11.402  23.457  0.00  0.00     0.002 C 
ATOM     28  C   UNL d   1     -47.454  12.919  23.258  0.00  0.00     0.000 A 
ATOM     29  C   UNL d   1     -47.010  13.546  22.911  0.00  0.00     0.002 A 
ATOM     30  C   UNL d   1     -46.198  13.441  22.752  0.00  0.00     0.019 A 
ATOM     31  C   UNL d   1     -47.377  14.254  22.732  0.00  0.00     0.000 C 
ENDBRANCH  22  24
ENDBRANCH  19  21
ENDBRANCH  17  18
ENDBRANCH   1  17
TORSDOF 6
ENDMDL
MODEL 3
REMARK VINA RESULT:      -5.6      1.573      2.809
REMARK  6 active torsions:
REMARK  status: ('A' for Active; 'I' for Inactive)
REMARK    1  A    between atoms: C_13  and  C_4 
REMARK    2  A    between atoms: C_20  and  C_7 
REMARK    3  A    between atoms: C_8  and  C_12 
REMARK       I    between atoms: N_9  and  C_8 
REMARK    4  A    between atoms: C_11  and  N_9 
REMARK       I    between atoms: C_12  and  N_19 
REMARK    5  A    between atoms: N_19  and  C_23 
REMARK    6  A    between atoms: C_23  and  C_20 
ROOT
ATOM      1  C   UNL d   1     -43.190  13.220  20.981  0.00  0.00     0.041 C 
ENDROOT
BRANCH   1   2
ATOM      2  C   UNL d   1     -43.531  12.754  21.570  0.00  0.00     0.093 A 
ATOM      3  N   UNL d   1     -44.292  12.829  21.872  0.00  0.00    -0.205 N 
ATOM      4  C   UNL d   1     -44.406  12.251  22.452  0.00  0.00     0.197 A 
ATOM      5  N   UNL d   1     -44.996  13.271  21.815  0.00  0.00    -0.144 NA
ATOM      6  N   UNL d   1     -45.172  12.333  22.750  0.00  0.00    -0.200 NA
ATOM      7  S   UNL d   1     -43.709  11.813  22.508  0.00  0.00    -0.046 SA
ATOM      8  C   UNL d   1     -45.536  12.960  22.360  0.00  0.00     0.184 A 
ATOM      9  C   UNL d   1     -43.168  12.124  21.963  0.00  0.00     0.058 A 
BRANCH   8  10
ATOM     10  C   UNL d   1     -46.305  13.229  22.490  0.00  0.00     0.038 A 
ATOM     11  C   UNL d   1     -46.431  13.991  22.770  0.00  0.00     0.003 A 
ATOM     12  C   UNL d   1     -45.791  14.484  22.920  0.00  0.00     0.000 C 
ATOM     13  C   UNL d   1     -47.203  14.261  22.901  0.00  0.00     0.000 A 
ATOM     14  C   UNL d   1     -47.843  13.756  22.747  0.00  0.00     0.000 A 
ATOM     15  C   UNL d   1     -47.717  12.995  22.467  0.00  0.00     0.000 A 
ATOM     16  C   UNL d   1     -46.944  12.725  22.336  0.00  0.00     0.003 A 
ENDBRANCH   8  10
ENDBRANCH   1   2
BRANCH   1  17
ATOM     17  C   UNL d   1     -42.374  13.325  20.958  0.00  0.00     0.104 C 
BRANCH  17  18
ATOM     18  N   UNL d   1     -42.022  13.653  20.299  0.00  0.00    -0.202 NA
ATOM     19  C   UNL d   1     -41.287  14.019  20.362  0.00  0.00     0.337 C 
ATOM     20  O   UNL d   1     -40.908  14.054  21.093  0.00  0.00    -0.260 OA
BRANCH  19  21
ATOM     21  C   UNL d   1     -40.935  14.348  19.702  0.00  0.00     0.337 C 
ATOM     22  N   UNL d   1     -40.621  13.865  19.104  0.00  0.00    -0.204 NA
ATOM     23  O   UNL d   1     -40.886  15.181  19.621  0.00  0.00    -0.260 OA
BRANCH  22  24
ATOM     24  C   UNL d   1     -40.265  14.197  18.438  0.00  0.00     0.085 A 
ATOM     25  C   UNL d   1     -39.489  13.972  18.230  0.00  0.00     0.018 A 
ATOM     26  C   UNL d   1     -39.118  14.285  17.578  0.00  0.00     0.002 A 
ATOM     27  C   UNL d   1     -39.085  13.424  18.689  0.00  0.00     0.002 C 
ATOM     28  C   UNL d   1     -39.520  14.847  17.101  0.00  0.00     0.000 A 
ATOM     29  C   UNL d   1     -40.305  15.074  17.310  0.00  0.00     0.002 A 
ATOM     30  C   UNL d   1     -40.668  14.741  17.983  0.00  0.00     0.019 A 
ATOM     31  C   UNL d   1     -40.706  15.620  16.852  0.00  0.00     0.000 C 
ENDBRANCH  22  24
ENDBRANCH  19  21
ENDBRANCH  17  18
ENDBRANCH   1  17
TORSDOF 6
ENDMDL
MODEL 4
REMARK VINA RESULT:      -5.2      1.490      6.769
REMARK  6 active torsions:
REMARK  status: ('A' for Active; 'I' for Inactive)
REMARK    1  A    between atoms: C_13  and  C_4 
REMARK    2  A    between atoms: C_20  and  C_7 
REMARK    3  A    between atoms: C_8  and  C_12 
REMARK       I    between atoms: N_9  and  C_8 
REMARK    4  A    between atoms: C_11  and  N_9 
REMARK       I    between atoms: C_12  and  N_19 
REMARK    5  A    between atoms: N_19  and  C_23 
REMARK    6  A    between atoms: C_23  and  C_20 
ROOT
ATOM      1  C   UNL d   1     -44.268  13.340  21.440  0.00  0.00     0.041 C 
ENDROOT
BRANCH   1   2
ATOM      2  C   UNL d   1     -43.497  13.054  21.511  0.00  0.00     0.093 A 
ATOM      3  N   UNL d   1     -42.808  13.456  21.315  0.00  0.00    -0.205 N 
ATOM      4  C   UNL d   1     -42.161  12.966  21.472  0.00  0.00     0.197 A 
ATOM      5  N   UNL d   1     -42.513  14.176  21.017  0.00  0.00    -0.144 NA
ATOM      6  N   UNL d   1     -41.472  13.378  21.273  0.00  0.00    -0.200 NA
ATOM      7  S   UNL d   1     -42.453  12.254  21.767  0.00  0.00    -0.046 SA
ATOM      8  C   UNL d   1     -41.687  14.122  20.993  0.00  0.00     0.184 A 
ATOM      9  C   UNL d   1     -43.279  12.308  21.791  0.00  0.00     0.058 A 
BRANCH   8  10
ATOM     10  C   UNL d   1     -41.169  14.709  20.735  0.00  0.00     0.038 A 
ATOM     11  C   UNL d   1     -40.854  14.674  19.977  0.00  0.00     0.003 A 
ATOM     12  C   UNL d   1     -41.056  14.054  19.478  0.00  0.00     0.000 C 
ATOM     13  C   UNL d   1     -40.333  15.264  19.718  0.00  0.00     0.000 A 
ATOM     14  C   UNL d   1     -40.135  15.886  20.229  0.00  0.00     0.000 A 
ATOM     15  C   UNL d   1     -40.449  15.921  20.987  0.00  0.00     0.000 A 
ATOM     16  C   UNL d   1     -40.971  15.330  21.245  0.00  0.00     0.003 A 
ENDBRANCH   8  10
ENDBRANCH   1   2
BRANCH   1  17
ATOM     17  C   UNL d   1     -44.812  13.214  22.046  0.00  0.00     0.104 C 
BRANCH  17  18
ATOM     18  N   UNL d   1     -45.557  13.546  22.002  0.00  0.00    -0.202 NA
ATOM     19  C   UNL d   1     -46.076  13.480  22.637  0.00  0.00     0.337 C 
ATOM     20  O   UNL d   1     -45.842  13.078  23.318  0.00  0.00    -0.260 OA
BRANCH  19  21
ATOM     21  C   UNL d   1     -46.821  13.812  22.594  0.00  0.00     0.337 C 
ATOM     22  N   UNL d   1     -47.485  13.346  22.418  0.00  0.00    -0.204 NA
ATOM     23  O   UNL d   1     -46.924  14.634  22.726  0.00  0.00    -0.260 OA
BRANCH  22  24
ATOM     24  C   UNL d   1     -48.237  13.681  22.374  0.00  0.00     0.085 A 
ATOM     25  C   UNL d   1     -48.783  13.396  21.812  0.00  0.00     0.018 A 
ATOM     26  C   UNL d   1     -49.530  13.711  21.750  0.00  0.00     0.002 A 
ATOM     27  C   UNL d   1     -48.569  12.785  21.307  0.00  0.00     0.002 C 
ATOM     28  C   UNL d   1     -49.761  14.337  22.261  0.00  0.00     0.000 A 
ATOM     29  C   UNL d   1     -49.209  14.625  22.829  0.00  0.00     0.002 A 
ATOM     30  C   UNL d   1     -48.448  14.288  22.877  0.00  0.00     0.019 A 
ATOM     31  C   UNL d   1     -49.424  15.233  23.332  0.00  0.00     0.000 C 
ENDBRANCH  22  24
ENDBRANCH  19  21
ENDBRANCH  17  18
ENDBRANCH   1  17
TORSDOF 6
ENDMDL
