MODEL 1
REMARK VINA RESULT:      22.4      0.000      0.000
REMARK  1 active torsions:
REMARK  status: ('A' for Active; 'I' for Inactive)
REMARK    1  A    between atoms: C_9  and  C_4 
ROOT
ATOM      1  S   UNL d   1      13.625  12.287  -2.731  0.00  0.00    -0.085 SA
ATOM      2  N   UNL d   1      13.674  13.826  -3.689  0.00  0.00    -0.207 NA
ATOM      3  C   UNL d   1      14.027  14.077  -3.004  0.00  0.00     0.280 A 
ATOM      4  C   UNL d   1      13.986  12.779  -2.197  0.00  0.00     0.034 A 
ATOM      5  C   UNL d   1      14.174  13.595  -2.313  0.00  0.00     0.069 A 
ATOM      6  C   UNL d   1      13.415  12.465  -3.367  0.00  0.00     0.047 A 
ATOM      7  C   UNL d   1      13.432  13.160  -3.811  0.00  0.00     0.091 A 
ATOM      8  O   UNL d   1      14.267  14.863  -2.972  0.00  0.00    -0.265 OA
ATOM      9  C   UNL d   1      13.087  11.780  -3.685  0.00  0.00     0.008 A 
ATOM     10  C   UNL d   1      13.121  13.170  -4.573  0.00  0.00     0.020 A 
ATOM     11  C   UNL d   1      12.790  12.481  -4.898  0.00  0.00     0.002 A 
ATOM     12  C   UNL d   1      12.773  11.786  -4.454  0.00  0.00     0.001 A 
ENDROOT
BRANCH   4  13
ATOM     13  C   UNL d   1      14.191  12.444  -1.466  0.00  0.00     0.006 A 
ATOM     14  C   UNL d   1      13.612  12.131  -0.978  0.00  0.00     0.001 A 
ATOM     15  C   UNL d   1      13.813  11.800  -0.257  0.00  0.00     0.000 A 
ATOM     16  C   UNL d   1      14.603  11.783  -0.020  0.00  0.00     0.000 A 
ATOM     17  C   UNL d   1      15.194  12.101  -0.515  0.00  0.00     0.000 A 
ATOM     18  C   UNL d   1      14.986  12.432  -1.239  0.00  0.00     0.001 A 
ENDBRANCH   4  13
TORSDOF 1
ENDMDL
