MODEL 1
REMARK VINA RESULT:      24.1      0.000      0.000
REMARK  1 active torsions:
REMARK  status: ('A' for Active; 'I' for Inactive)
REMARK    1  A    between atoms: N_8  and  C_7 
REMARK       I    between atoms: C_11  and  N_8 
ROOT
ATOM      1  N   UNL d   1      57.464  49.650  49.829  0.00  0.00    -0.273 N 
ATOM      2  C   UNL d   1      58.152  49.664  50.283  0.00  0.00     0.067 A 
ATOM      3  C   UNL d   1      58.889  49.692  49.914  0.00  0.00     0.019 A 
ATOM      4  C   UNL d   1      58.107  49.651  51.099  0.00  0.00     0.018 A 
ATOM      5  C   UNL d   1      56.730  49.622  50.190  0.00  0.00     0.265 A 
ATOM      6  C   UNL d   1      57.688  49.668  49.038  0.00  0.00     0.083 A 
ATOM      7  C   UNL d   1      59.528  49.693  51.193  0.00  0.00     0.085 A 
ATOM      8  C   UNL d   1      59.578  49.707  50.369  0.00  0.00     0.021 A 
ATOM      9  C   UNL d   1      58.795  49.665  51.554  0.00  0.00     0.021 A 
ATOM     10  C   UNL d   1      58.771  49.701  49.094  0.00  0.00     0.021 A 
ATOM     11  C   UNL d   1      57.365  49.623  51.476  0.00  0.00     0.006 A 
ATOM     12  C   UNL d   1      56.676  49.608  51.022  0.00  0.00     0.061 A 
ATOM     13  O   UNL d   1      56.042  49.607  49.736  0.00  0.00    -0.267 OA
ENDROOT
BRANCH   7  14
ATOM     14  N   UNL d   1      60.216  49.708  51.647  0.00  0.00    -0.208 NA
ATOM     15  C   UNL d   1      60.940  49.620  51.293  0.00  0.00     0.279 C 
ATOM     16  O   UNL d   1      61.000  49.514  50.466  0.00  0.00    -0.265 OA
ATOM     17  C   UNL d   1      61.632  49.634  51.743  0.00  0.00     0.068 C 
ENDBRANCH   7  14
TORSDOF 1
ENDMDL
