MODEL 1
REMARK VINA RESULT:      82.8      0.000      0.000
REMARK  4 active torsions:
REMARK  status: ('A' for Active; 'I' for Inactive)
REMARK    1  A    between atoms: C_2  and  C_1 
REMARK    2  A    between atoms: C_7  and  O_14 
REMARK       I    between atoms: N_12  and  C_7 
REMARK    3  A    between atoms: O_14  and  C_11 
REMARK    4  A    between atoms: C_24  and  C_18 
ROOT
ATOM      1  C   UNL d   1     -50.099  27.261  33.763  0.00  0.00     0.099 A 
ATOM      2  C   UNL d   1     -49.498  27.398  34.310  0.00  0.00     0.202 A 
ATOM      3  C   UNL d   1     -49.187  28.163  34.407  0.00  0.00     0.062 A 
ATOM      4  C   UNL d   1     -50.396  27.888  33.306  0.00  0.00     0.129 A 
ATOM      5  C   UNL d   1     -49.482  28.787  33.952  0.00  0.00     0.105 A 
ATOM      6  O   UNL d   1     -50.085  28.654  33.402  0.00  0.00    -0.305 OA
ATOM      7  C   UNL d   1     -48.578  29.672  34.593  0.00  0.00     0.107 A 
ATOM      8  C   UNL d   1     -48.585  28.301  34.954  0.00  0.00     0.007 A 
ATOM      9  C   UNL d   1     -49.177  29.547  34.045  0.00  0.00     0.050 A 
ATOM     10  C   UNL d   1     -48.285  29.055  35.043  0.00  0.00     0.023 A 
ATOM     11  O   UNL d   1     -49.204  26.778  34.762  0.00  0.00    -0.286 OA
ENDROOT
BRANCH   1  12
ATOM     12  C   UNL d   1     -50.408  26.502  33.666  0.00  0.00     0.168 A 
ATOM     13  N   UNL d   1     -49.975  25.813  33.539  0.00  0.00    -0.225 NA
ATOM     14  C   UNL d   1     -50.511  25.180  33.473  0.00  0.00     0.101 A 
ATOM     15  C   UNL d   1     -50.403  24.379  33.347  0.00  0.00     0.021 A 
ATOM     16  C   UNL d   1     -51.273  25.485  33.561  0.00  0.00     0.101 A 
ATOM     17  C   UNL d   1     -51.049  23.868  33.306  0.00  0.00     0.002 A 
ATOM     18  C   UNL d   1     -51.815  24.181  33.395  0.00  0.00     0.002 A 
ATOM     19  C   UNL d   1     -51.925  24.991  33.523  0.00  0.00     0.021 A 
ATOM     20  N   UNL d   1     -51.207  26.303  33.680  0.00  0.00    -0.225 NA
ENDBRANCH   1  12
BRANCH  10  21
ATOM     21  C   UNL d   1     -47.679  29.197  35.594  0.00  0.00     0.002 C 
ATOM     22  C   UNL d   1     -46.930  28.869  35.475  0.00  0.00     0.000 C 
ENDBRANCH  10  21
BRANCH   7  23
ATOM     23  O   UNL d   1     -48.270  30.444  34.686  0.00  0.00    -0.259 OA
BRANCH  23  24
ATOM     24  C   UNL d   1     -48.545  31.061  34.211  0.00  0.00     0.378 C 
ATOM     25  N   UNL d   1     -48.134  31.775  34.181  0.00  0.00    -0.247 N 
ATOM     26  C   UNL d   1     -48.415  32.388  33.704  0.00  0.00     0.112 A 
ATOM     27  C   UNL d   1     -47.446  31.871  34.627  0.00  0.00     0.112 A 
ATOM     28  C   UNL d   1     -48.007  33.099  33.673  0.00  0.00     0.142 A 
ATOM     29  O   UNL d   1     -47.318  33.201  34.118  0.00  0.00    -0.300 OA
ATOM     30  C   UNL d   1     -47.037  32.588  34.595  0.00  0.00     0.142 A 
ATOM     31  O   UNL d   1     -49.232  30.965  33.764  0.00  0.00    -0.237 OA
ENDBRANCH  23  24
ENDBRANCH   7  23
TORSDOF 4
ENDMDL
