MODEL 1
REMARK VINA RESULT:      49.4      0.000      0.000
REMARK  4 active torsions:
REMARK  status: ('A' for Active; 'I' for Inactive)
REMARK    1  A    between atoms: C_11  and  N_1 
REMARK    2  A    between atoms: S_7  and  C_2 
REMARK    3  A    between atoms: C_13  and  S_7 
REMARK    4  A    between atoms: C_8  and  C_13 
REMARK       I    between atoms: N_9  and  C_8 
ROOT
ATOM      1  N   UNL d   1      13.913  13.074  -2.848  0.00  0.00    -0.254 N 
ATOM      2  C   UNL d   1      13.994  13.881  -2.994  0.00  0.00     0.182 A 
ATOM      3  C   UNL d   1      13.556  12.587  -3.411  0.00  0.00     0.274 A 
ATOM      4  C   UNL d   1      13.284  12.909  -4.116  0.00  0.00     0.104 A 
ATOM      5  N   UNL d   1      13.720  14.202  -3.703  0.00  0.00    -0.222 NA
ATOM      6  C   UNL d   1      13.366  13.716  -4.262  0.00  0.00     0.095 A 
ATOM      7  S   UNL d   1      12.914  12.571  -4.768  0.00  0.00    -0.080 SA
ATOM      8  O   UNL d   1      13.475  11.779  -3.265  0.00  0.00    -0.266 OA
ATOM      9  C   UNL d   1      13.046  13.877  -5.004  0.00  0.00     0.027 A 
ATOM     10  C   UNL d   1      12.769  13.174  -5.316  0.00  0.00     0.037 A 
ENDROOT
BRANCH   2  11
ATOM     11  S   UNL d   1      14.353  14.378  -2.428  0.00  0.00    -0.044 SA
BRANCH  11  12
ATOM     12  C   UNL d   1      14.113  15.166  -2.367  0.00  0.00     0.099 C 
BRANCH  12  13
ATOM     13  C   UNL d   1      14.669  15.773  -2.428  0.00  0.00     0.271 C 
ATOM     14  N   UNL d   1      14.916  16.174  -1.752  0.00  0.00    -0.272 N 
ATOM     15  C   UNL d   1      14.706  16.089  -0.958  0.00  0.00     0.083 A 
ATOM     16  C   UNL d   1      15.470  16.779  -1.810  0.00  0.00     0.083 A 
ATOM     17  C   UNL d   1      15.142  16.653  -0.531  0.00  0.00     0.021 A 
ATOM     18  C   UNL d   1      15.607  17.073  -1.052  0.00  0.00     0.021 A 
ATOM     19  O   UNL d   1      14.977  15.977  -3.166  0.00  0.00    -0.266 OA
ENDBRANCH  12  13
ENDBRANCH  11  12
ENDBRANCH   2  11
BRANCH   1  20
ATOM     20  C   UNL d   1      14.183  12.752  -2.146  0.00  0.00     0.069 A 
ATOM     21  C   UNL d   1      13.736  12.184  -1.750  0.00  0.00     0.018 A 
ATOM     22  C   UNL d   1      14.012  11.861  -1.043  0.00  0.00     0.002 A 
ATOM     23  C   UNL d   1      14.736  12.107  -0.732  0.00  0.00     0.000 A 
ATOM     24  C   UNL d   1      15.183  12.675  -1.129  0.00  0.00     0.002 A 
ATOM     25  C   UNL d   1      15.023  11.784  -0.015  0.00  0.00     0.000 C 
ATOM     26  C   UNL d   1      14.907  12.998  -1.837  0.00  0.00     0.018 A 
ENDBRANCH   1  20
TORSDOF 4
ENDMDL
MODEL 2
REMARK VINA RESULT:      50.2      1.453      3.113
REMARK  4 active torsions:
REMARK  status: ('A' for Active; 'I' for Inactive)
REMARK    1  A    between atoms: C_11  and  N_1 
REMARK    2  A    between atoms: S_7  and  C_2 
REMARK    3  A    between atoms: C_13  and  S_7 
REMARK    4  A    between atoms: C_8  and  C_13 
REMARK       I    between atoms: N_9  and  C_8 
ROOT
ATOM      1  N   UNL d   1      14.108  13.093  -2.509  0.00  0.00    -0.254 N 
ATOM      2  C   UNL d   1      14.200  13.909  -2.438  0.00  0.00     0.182 A 
ATOM      3  C   UNL d   1      14.347  12.596  -1.894  0.00  0.00     0.274 A 
ATOM      4  C   UNL d   1      14.677  12.917  -1.214  0.00  0.00     0.104 A 
ATOM      5  N   UNL d   1      14.532  14.228  -1.754  0.00  0.00    -0.222 NA
ATOM      6  C   UNL d   1      14.769  13.733  -1.144  0.00  0.00     0.095 A 
ATOM      7  S   UNL d   1      14.961  12.571  -0.524  0.00  0.00    -0.080 SA
ATOM      8  O   UNL d   1      14.255  11.779  -1.965  0.00  0.00    -0.266 OA
ATOM      9  C   UNL d   1      15.110  13.891  -0.410  0.00  0.00     0.027 A 
ATOM     10  C   UNL d   1      15.228  13.178  -0.030  0.00  0.00     0.037 A 
ENDROOT
BRANCH   2  11
ATOM     11  S   UNL d   1      13.961  14.415  -3.056  0.00  0.00    -0.044 SA
BRANCH  11  12
ATOM     12  C   UNL d   1      14.157  15.217  -3.025  0.00  0.00     0.099 C 
BRANCH  12  13
ATOM     13  C   UNL d   1      14.091  15.684  -3.702  0.00  0.00     0.271 C 
ATOM     14  N   UNL d   1      14.654  16.265  -3.859  0.00  0.00    -0.272 N 
ATOM     15  C   UNL d   1      15.329  16.497  -3.445  0.00  0.00     0.083 A 
ATOM     16  C   UNL d   1      14.589  16.731  -4.532  0.00  0.00     0.083 A 
ATOM     17  C   UNL d   1      15.678  17.115  -3.877  0.00  0.00     0.021 A 
ATOM     18  C   UNL d   1      15.225  17.256  -4.540  0.00  0.00     0.021 A 
ATOM     19  O   UNL d   1      13.460  15.570  -4.222  0.00  0.00    -0.266 OA
ENDBRANCH  12  13
ENDBRANCH  11  12
ENDBRANCH   2  11
BRANCH   1  20
ATOM     20  C   UNL d   1      13.780  12.771  -3.185  0.00  0.00     0.069 A 
ATOM     21  C   UNL d   1      13.998  13.054  -3.929  0.00  0.00     0.018 A 
ATOM     22  C   UNL d   1      13.665  12.726  -4.608  0.00  0.00     0.002 A 
ATOM     23  C   UNL d   1      13.113  12.116  -4.545  0.00  0.00     0.000 A 
ATOM     24  C   UNL d   1      12.894  11.834  -3.801  0.00  0.00     0.002 A 
ATOM     25  C   UNL d   1      12.770  11.779  -5.231  0.00  0.00     0.000 C 
ATOM     26  C   UNL d   1      13.228  12.162  -3.121  0.00  0.00     0.018 A 
ENDBRANCH   1  20
TORSDOF 4
ENDMDL
MODEL 3
REMARK VINA RESULT:      52.0      0.917      2.867
REMARK  4 active torsions:
REMARK  status: ('A' for Active; 'I' for Inactive)
REMARK    1  A    between atoms: C_11  and  N_1 
REMARK    2  A    between atoms: S_7  and  C_2 
REMARK    3  A    between atoms: C_13  and  S_7 
REMARK    4  A    between atoms: C_8  and  C_13 
REMARK       I    between atoms: N_9  and  C_8 
ROOT
ATOM      1  N   UNL d   1      14.057  13.185  -2.365  0.00  0.00    -0.254 N 
ATOM      2  C   UNL d   1      14.345  13.863  -1.995  0.00  0.00     0.182 A 
ATOM      3  C   UNL d   1      14.086  12.458  -1.976  0.00  0.00     0.274 A 
ATOM      4  C   UNL d   1      14.404  12.412  -1.220  0.00  0.00     0.104 A 
ATOM      5  N   UNL d   1      14.664  13.813  -1.235  0.00  0.00    -0.222 NA
ATOM      6  C   UNL d   1      14.692  13.089  -0.850  0.00  0.00     0.095 A 
ATOM      7  S   UNL d   1      14.507  11.779  -0.704  0.00  0.00    -0.080 SA
ATOM      8  O   UNL d   1      13.798  11.779  -2.346  0.00  0.00    -0.266 OA
ATOM      9  C   UNL d   1      14.973  12.875  -0.105  0.00  0.00     0.027 A 
ATOM     10  C   UNL d   1      14.860  12.071  -0.015  0.00  0.00     0.037 A 
ENDROOT
BRANCH   2  11
ATOM     11  S   UNL d   1      14.317  14.600  -2.383  0.00  0.00    -0.044 SA
BRANCH  11  12
ATOM     12  C   UNL d   1      14.272  15.294  -1.937  0.00  0.00     0.099 C 
BRANCH  12  13
ATOM     13  C   UNL d   1      14.656  15.977  -2.198  0.00  0.00     0.271 C 
ATOM     14  N   UNL d   1      15.059  16.454  -1.660  0.00  0.00    -0.272 N 
ATOM     15  C   UNL d   1      15.169  16.385  -0.845  0.00  0.00     0.083 A 
ATOM     16  C   UNL d   1      15.441  17.134  -1.917  0.00  0.00     0.083 A 
ATOM     17  C   UNL d   1      15.626  17.036  -0.607  0.00  0.00     0.021 A 
ATOM     18  C   UNL d   1      15.791  17.492  -1.262  0.00  0.00     0.021 A 
ATOM     19  O   UNL d   1      14.635  16.182  -2.997  0.00  0.00    -0.266 OA
ENDBRANCH  12  13
ENDBRANCH  11  12
ENDBRANCH   2  11
BRANCH   1  20
ATOM     20  C   UNL d   1      13.740  13.229  -3.118  0.00  0.00     0.069 A 
ATOM     21  C   UNL d   1      13.840  12.606  -3.649  0.00  0.00     0.018 A 
ATOM     22  C   UNL d   1      13.519  12.655  -4.407  0.00  0.00     0.002 A 
ATOM     23  C   UNL d   1      13.098  13.326  -4.634  0.00  0.00     0.000 A 
ATOM     24  C   UNL d   1      12.997  13.949  -4.103  0.00  0.00     0.002 A 
ATOM     25  C   UNL d   1      12.769  13.382  -5.403  0.00  0.00     0.000 C 
ATOM     26  C   UNL d   1      13.319  13.901  -3.344  0.00  0.00     0.018 A 
ENDBRANCH   1  20
TORSDOF 4
ENDMDL
