MODEL 1
REMARK VINA RESULT:      31.4      0.000      0.000
REMARK  5 active torsions:
REMARK  status: ('A' for Active; 'I' for Inactive)
REMARK    1  A    between atoms: C_7  and  N_2 
REMARK    2  A    between atoms: C_8  and  C_7 
REMARK    3  A    between atoms: C_13  and  C_8 
REMARK    4  A    between atoms: C_9  and  O_11 
REMARK    5  A    between atoms: O_11  and  C_13 
ROOT
ATOM      1  C   UNL d   1     -50.490  24.910  33.428  0.00  0.00     0.378 A 
ATOM      2  N   UNL d   1     -51.296  25.113  33.422  0.00  0.00    -0.251 N 
ATOM      3  O   UNL d   1     -50.052  25.605  33.397  0.00  0.00    -0.258 OA
ATOM      4  C   UNL d   1     -51.345  25.942  33.387  0.00  0.00     0.092 A 
ATOM      5  C   UNL d   1     -50.577  26.244  33.372  0.00  0.00     0.121 A 
ATOM      6  O   UNL d   1     -50.191  24.144  33.460  0.00  0.00    -0.237 OA
ATOM      7  C   UNL d   1     -51.995  26.448  33.367  0.00  0.00     0.020 A 
ATOM      8  C   UNL d   1     -50.456  27.067  33.337  0.00  0.00     0.026 A 
ATOM      9  C   UNL d   1     -51.872  27.268  33.332  0.00  0.00     0.002 A 
ATOM     10  C   UNL d   1     -51.104  27.577  33.317  0.00  0.00     0.002 A 
ENDROOT
BRANCH   2  11
ATOM     11  C   UNL d   1     -51.925  24.591  33.446  0.00  0.00     0.087 C 
BRANCH  11  12
ATOM     12  C   UNL d   1     -51.807  23.785  33.335  0.00  0.00     0.046 C 
BRANCH  12  13
ATOM     13  C   UNL d   1     -52.429  23.261  33.394  0.00  0.00     0.124 C 
BRANCH  13  14
ATOM     14  O   UNL d   1     -53.176  23.519  33.624  0.00  0.00    -0.305 OA
BRANCH  14  15
ATOM     15  C   UNL d   1     -53.438  23.416  34.402  0.00  0.00     0.100 A 
ATOM     16  C   UNL d   1     -52.896  23.353  35.012  0.00  0.00     0.025 A 
ATOM     17  C   UNL d   1     -53.159  23.250  35.790  0.00  0.00     0.002 A 
ATOM     18  C   UNL d   1     -53.963  23.213  35.945  0.00  0.00     0.000 A 
ATOM     19  C   UNL d   1     -54.510  23.277  35.328  0.00  0.00     0.002 A 
ATOM     20  C   UNL d   1     -54.248  23.380  34.550  0.00  0.00     0.025 A 
ENDBRANCH  14  15
ENDBRANCH  13  14
ENDBRANCH  12  13
ENDBRANCH  11  12
ENDBRANCH   2  11
TORSDOF 5
ENDMDL
