MODEL 1
REMARK VINA RESULT:      -3.3      0.000      0.000
REMARK  6 active torsions:
REMARK  status: ('A' for Active; 'I' for Inactive)
REMARK    1  A    between atoms: C_2  and  S_1 
REMARK    2  A    between atoms: N_3  and  S_1 
REMARK    3  A    between atoms: C_10  and  N_3 
REMARK    4  A    between atoms: C_16  and  C_11 
REMARK    5  A    between atoms: C_17  and  C_16 
REMARK    6  A    between atoms: C_18  and  C_17 
ROOT
ATOM      1  C   UNL d   1      31.649  17.048 -24.123  0.00  0.00     0.094 A 
ATOM      2  C   UNL d   1      32.590  18.237 -23.515  0.00  0.00     0.000 A 
ATOM      3  C   UNL d   1      31.632  17.801 -24.463  0.00  0.00     0.020 A 
ATOM      4  C   UNL d   1      32.137  16.899 -23.482  0.00  0.00     0.020 A 
ATOM      5  C   UNL d   1      32.598  17.482 -23.183  0.00  0.00     0.002 A 
ATOM      6  C   UNL d   1      32.093  18.384 -24.164  0.00  0.00     0.002 A 
ENDROOT
BRANCH   1   7
ATOM      7  N   UNL d   1      31.151  16.419 -24.445  0.00  0.00    -0.158 NA
BRANCH   7   8
ATOM      8  S   UNL d   1      30.394  16.307 -24.143  0.00  0.00     0.291 S 
ATOM      9  O   UNL d   1      30.736  15.715 -23.636  0.00  0.00    -0.198 OA
ATOM     10  O   UNL d   1      30.111  16.907 -24.673  0.00  0.00    -0.198 OA
BRANCH   8  11
ATOM     11  C   UNL d   1      29.644  16.187 -23.835  0.00  0.00     0.135 A 
ATOM     12  S   UNL d   1      28.909  16.508 -23.997  0.00  0.00    -0.073 SA
ATOM     13  C   UNL d   1      28.349  16.162 -23.496  0.00  0.00     0.036 A 
ATOM     14  C   UNL d   1      28.722  15.642 -23.035  0.00  0.00     0.008 A 
ATOM     15  C   UNL d   1      29.526  15.640 -23.228  0.00  0.00     0.020 A 
ENDBRANCH   8  11
ENDBRANCH   7   8
ENDBRANCH   1   7
BRANCH   2  16
ATOM     16  C   UNL d   1      33.087  18.866 -23.193  0.00  0.00     0.000 C 
BRANCH  16  17
ATOM     17  C   UNL d   1      32.838  19.289 -22.528  0.00  0.00     0.000 C 
BRANCH  17  18
ATOM     18  C   UNL d   1      33.240  19.972 -22.301  0.00  0.00     0.000 C 
ATOM     19  C   UNL d   1      32.987  20.404 -21.652  0.00  0.00     0.000 C 
ENDBRANCH  17  18
ENDBRANCH  16  17
ENDBRANCH   2  16
TORSDOF 6
ENDMDL
MODEL 2
REMARK VINA RESULT:      -3.1      1.175      1.791
REMARK  6 active torsions:
REMARK  status: ('A' for Active; 'I' for Inactive)
REMARK    1  A    between atoms: C_2  and  S_1 
REMARK    2  A    between atoms: N_3  and  S_1 
REMARK    3  A    between atoms: C_10  and  N_3 
REMARK    4  A    between atoms: C_16  and  C_11 
REMARK    5  A    between atoms: C_17  and  C_16 
REMARK    6  A    between atoms: C_18  and  C_17 
ROOT
ATOM      1  C   UNL d   1      32.877  18.062 -23.578  0.00  0.00     0.094 A 
ATOM      2  C   UNL d   1      33.113  19.395 -22.663  0.00  0.00     0.000 A 
ATOM      3  C   UNL d   1      33.124  17.984 -22.793  0.00  0.00     0.020 A 
ATOM      4  C   UNL d   1      32.751  18.807 -23.895  0.00  0.00     0.020 A 
ATOM      5  C   UNL d   1      32.867  19.461 -23.447  0.00  0.00     0.002 A 
ATOM      6  C   UNL d   1      33.240  18.638 -22.345  0.00  0.00     0.002 A 
ENDROOT
BRANCH   1   7
ATOM      7  N   UNL d   1      32.751  17.357 -24.062  0.00  0.00    -0.158 NA
BRANCH   7   8
ATOM      8  S   UNL d   1      32.011  16.999 -24.072  0.00  0.00     0.291 S 
ATOM      9  O   UNL d   1      32.280  16.529 -23.417  0.00  0.00    -0.198 OA
ATOM     10  O   UNL d   1      31.798  17.497 -24.727  0.00  0.00    -0.198 OA
BRANCH   8  11
ATOM     11  C   UNL d   1      31.275  16.637 -24.075  0.00  0.00     0.135 A 
ATOM     12  S   UNL d   1      30.573  16.787 -24.465  0.00  0.00    -0.073 SA
ATOM     13  C   UNL d   1      30.013  16.221 -24.240  0.00  0.00     0.036 A 
ATOM     14  C   UNL d   1      30.356  15.732 -23.724  0.00  0.00     0.008 A 
ATOM     15  C   UNL d   1      31.139  15.971 -23.607  0.00  0.00     0.020 A 
ENDBRANCH   8  11
ENDBRANCH   7   8
ENDBRANCH   1   7
BRANCH   2  16
ATOM     16  C   UNL d   1      33.239  20.099 -22.179  0.00  0.00     0.000 C 
BRANCH  16  17
ATOM     17  C   UNL d   1      32.621  20.399 -21.720  0.00  0.00     0.000 C 
BRANCH  17  18
ATOM     18  C   UNL d   1      32.731  21.090 -21.282  0.00  0.00     0.000 C 
ATOM     19  C   UNL d   1      32.116  21.399 -20.837  0.00  0.00     0.000 C 
ENDBRANCH  17  18
ENDBRANCH  16  17
ENDBRANCH   2  16
TORSDOF 6
ENDMDL
MODEL 3
REMARK VINA RESULT:      -2.9      1.666      2.468
REMARK  6 active torsions:
REMARK  status: ('A' for Active; 'I' for Inactive)
REMARK    1  A    between atoms: C_2  and  S_1 
REMARK    2  A    between atoms: N_3  and  S_1 
REMARK    3  A    between atoms: C_10  and  N_3 
REMARK    4  A    between atoms: C_16  and  C_11 
REMARK    5  A    between atoms: C_17  and  C_16 
REMARK    6  A    between atoms: C_18  and  C_17 
ROOT
ATOM      1  C   UNL d   1      33.228  18.827 -23.254  0.00  0.00     0.094 A 
ATOM      2  C   UNL d   1      33.236  20.176 -22.331  0.00  0.00     0.000 A 
ATOM      3  C   UNL d   1      33.236  19.571 -23.612  0.00  0.00     0.020 A 
ATOM      4  C   UNL d   1      33.225  18.767 -22.436  0.00  0.00     0.020 A 
ATOM      5  C   UNL d   1      33.228  19.428 -21.984  0.00  0.00     0.002 A 
ATOM      6  C   UNL d   1      33.239  20.232 -23.160  0.00  0.00     0.002 A 
ENDROOT
BRANCH   1   7
ATOM      7  N   UNL d   1      33.224  18.114 -23.741  0.00  0.00    -0.158 NA
BRANCH   7   8
ATOM      8  S   UNL d   1      32.508  17.757 -23.932  0.00  0.00     0.291 S 
ATOM      9  O   UNL d   1      32.653  17.227 -23.283  0.00  0.00    -0.198 OA
ATOM     10  O   UNL d   1      32.418  18.315 -24.566  0.00  0.00    -0.198 OA
BRANCH   8  11
ATOM     11  C   UNL d   1      31.796  17.395 -24.113  0.00  0.00     0.135 A 
ATOM     12  S   UNL d   1      31.181  17.580 -24.620  0.00  0.00    -0.073 SA
ATOM     13  C   UNL d   1      30.600  16.994 -24.564  0.00  0.00     0.036 A 
ATOM     14  C   UNL d   1      30.845  16.459 -24.038  0.00  0.00     0.008 A 
ATOM     15  C   UNL d   1      31.583  16.688 -23.746  0.00  0.00     0.020 A 
ENDBRANCH   8  11
ENDBRANCH   7   8
ENDBRANCH   1   7
BRANCH   2  16
ATOM     16  C   UNL d   1      33.239  20.889 -21.843  0.00  0.00     0.000 C 
BRANCH  16  17
ATOM     17  C   UNL d   1      32.602  21.049 -21.342  0.00  0.00     0.000 C 
BRANCH  17  18
ATOM     18  C   UNL d   1      32.542  21.785 -20.976  0.00  0.00     0.000 C 
ATOM     19  C   UNL d   1      31.863  21.986 -20.562  0.00  0.00     0.000 C 
ENDBRANCH  17  18
ENDBRANCH  16  17
ENDBRANCH   2  16
TORSDOF 6
ENDMDL
MODEL 4
REMARK VINA RESULT:      -2.5      1.876      4.319
REMARK  6 active torsions:
REMARK  status: ('A' for Active; 'I' for Inactive)
REMARK    1  A    between atoms: C_2  and  S_1 
REMARK    2  A    between atoms: N_3  and  S_1 
REMARK    3  A    between atoms: C_10  and  N_3 
REMARK    4  A    between atoms: C_16  and  C_11 
REMARK    5  A    between atoms: C_17  and  C_16 
REMARK    6  A    between atoms: C_18  and  C_17 
ROOT
ATOM      1  C   UNL d   1      32.351  17.019 -24.069  0.00  0.00     0.094 A 
ATOM      2  C   UNL d   1      30.904  16.299 -24.307  0.00  0.00     0.000 A 
ATOM      3  C   UNL d   1      32.084  16.446 -23.538  0.00  0.00     0.020 A 
ATOM      4  C   UNL d   1      31.890  17.226 -24.714  0.00  0.00     0.020 A 
ATOM      5  C   UNL d   1      31.180  16.873 -24.831  0.00  0.00     0.002 A 
ATOM      6  C   UNL d   1      31.374  16.093 -23.655  0.00  0.00     0.002 A 
ENDROOT
BRANCH   1   7
ATOM      7  N   UNL d   1      33.116  17.400 -23.943  0.00  0.00    -0.158 NA
BRANCH   7   8
ATOM      8  S   UNL d   1      33.152  18.112 -23.533  0.00  0.00     0.291 S 
ATOM      9  O   UNL d   1      33.112  18.496 -24.290  0.00  0.00    -0.198 OA
ATOM     10  O   UNL d   1      33.188  17.674 -22.806  0.00  0.00    -0.198 OA
BRANCH   8  11
ATOM     11  C   UNL d   1      33.186  18.827 -23.133  0.00  0.00     0.135 A 
ATOM     12  S   UNL d   1      33.207  19.032 -22.342  0.00  0.00    -0.073 SA
ATOM     13  C   UNL d   1      33.241  19.856 -22.278  0.00  0.00     0.036 A 
ATOM     14  C   UNL d   1      33.241  20.157 -23.007  0.00  0.00     0.008 A 
ATOM     15  C   UNL d   1      33.207  19.537 -23.553  0.00  0.00     0.020 A 
ENDBRANCH   8  11
ENDBRANCH   7   8
ENDBRANCH   1   7
BRANCH   2  16
ATOM     16  C   UNL d   1      30.139  15.918 -24.433  0.00  0.00     0.000 C 
BRANCH  16  17
ATOM     17  C   UNL d   1      29.512  16.071 -23.917  0.00  0.00     0.000 C 
BRANCH  17  18
ATOM     18  C   UNL d   1      28.807  15.650 -23.989  0.00  0.00     0.000 C 
ATOM     19  C   UNL d   1      28.137  15.892 -23.584  0.00  0.00     0.000 C 
ENDBRANCH  17  18
ENDBRANCH  16  17
ENDBRANCH   2  16
TORSDOF 6
ENDMDL
MODEL 5
REMARK VINA RESULT:      -1.4      4.591      6.639
REMARK  6 active torsions:
REMARK  status: ('A' for Active; 'I' for Inactive)
REMARK    1  A    between atoms: C_2  and  S_1 
REMARK    2  A    between atoms: N_3  and  S_1 
REMARK    3  A    between atoms: C_10  and  N_3 
REMARK    4  A    between atoms: C_16  and  C_11 
REMARK    5  A    between atoms: C_17  and  C_16 
REMARK    6  A    between atoms: C_18  and  C_17 
ROOT
ATOM      1  C   UNL d   1      32.517  22.847 -20.370  0.00  0.00     0.094 A 
ATOM      2  C   UNL d   1      32.689  23.342 -18.822  0.00  0.00     0.000 A 
ATOM      3  C   UNL d   1      33.156  22.580 -19.920  0.00  0.00     0.020 A 
ATOM      4  C   UNL d   1      31.969  23.359 -20.038  0.00  0.00     0.020 A 
ATOM      5  C   UNL d   1      32.054  23.602 -19.279  0.00  0.00     0.002 A 
ATOM      6  C   UNL d   1      33.241  22.823 -19.162  0.00  0.00     0.002 A 
ENDROOT
BRANCH   1   7
ATOM      7  N   UNL d   1      32.426  22.585 -21.188  0.00  0.00    -0.158 NA
BRANCH   7   8
ATOM      8  S   UNL d   1      32.595  21.804 -21.384  0.00  0.00     0.291 S 
ATOM      9  O   UNL d   1      31.969  21.584 -20.852  0.00  0.00    -0.198 OA
ATOM     10  O   UNL d   1      33.207  22.084 -21.902  0.00  0.00    -0.198 OA
BRANCH   8  11
ATOM     11  C   UNL d   1      32.755  21.023 -21.573  0.00  0.00     0.135 A 
ATOM     12  S   UNL d   1      32.595  20.309 -21.208  0.00  0.00    -0.073 SA
ATOM     13  C   UNL d   1      32.900  19.695 -21.671  0.00  0.00     0.036 A 
ATOM     14  C   UNL d   1      33.241  20.016 -22.306  0.00  0.00     0.008 A 
ATOM     15  C   UNL d   1      33.163  20.838 -22.266  0.00  0.00     0.020 A 
ENDBRANCH   8  11
ENDBRANCH   7   8
ENDBRANCH   1   7
BRANCH   2  16
ATOM     16  C   UNL d   1      32.780  23.604 -18.004  0.00  0.00     0.000 C 
BRANCH  16  17
ATOM     17  C   UNL d   1      33.066  23.080 -17.433  0.00  0.00     0.000 C 
BRANCH  17  18
ATOM     18  C   UNL d   1      33.079  23.304 -16.639  0.00  0.00     0.000 C 
ATOM     19  C   UNL d   1      33.002  22.739 -16.049  0.00  0.00     0.000 C 
ENDBRANCH  17  18
ENDBRANCH  16  17
ENDBRANCH   2  16
TORSDOF 6
ENDMDL
MODEL 6
REMARK VINA RESULT:      -0.4      3.779      5.479
REMARK  6 active torsions:
REMARK  status: ('A' for Active; 'I' for Inactive)
REMARK    1  A    between atoms: C_2  and  S_1 
REMARK    2  A    between atoms: N_3  and  S_1 
REMARK    3  A    between atoms: C_10  and  N_3 
REMARK    4  A    between atoms: C_16  and  C_11 
REMARK    5  A    between atoms: C_17  and  C_16 
REMARK    6  A    between atoms: C_18  and  C_17 
ROOT
ATOM      1  C   UNL d   1      33.043  20.434 -21.873  0.00  0.00     0.094 A 
ATOM      2  C   UNL d   1      32.670  19.236 -22.919  0.00  0.00     0.000 A 
ATOM      3  C   UNL d   1      33.238  20.509 -22.672  0.00  0.00     0.020 A 
ATOM      4  C   UNL d   1      32.663  19.758 -21.606  0.00  0.00     0.020 A 
ATOM      5  C   UNL d   1      32.480  19.171 -22.119  0.00  0.00     0.002 A 
ATOM      6  C   UNL d   1      33.055  19.922 -23.185  0.00  0.00     0.002 A 
ENDROOT
BRANCH   1   7
ATOM      7  N   UNL d   1      33.241  21.067 -21.319  0.00  0.00    -0.158 NA
BRANCH   7   8
ATOM      8  S   UNL d   1      32.780  21.749 -21.303  0.00  0.00     0.291 S 
ATOM      9  O   UNL d   1      32.367  21.397 -20.648  0.00  0.00    -0.198 OA
ATOM     10  O   UNL d   1      33.229  22.048 -21.959  0.00  0.00    -0.198 OA
BRANCH   8  11
ATOM     11  C   UNL d   1      32.316  22.423 -21.278  0.00  0.00     0.135 A 
ATOM     12  S   UNL d   1      31.611  22.611 -20.908  0.00  0.00    -0.073 SA
ATOM     13  C   UNL d   1      31.410  23.392 -21.091  0.00  0.00     0.036 A 
ATOM     14  C   UNL d   1      31.972  23.683 -21.562  0.00  0.00     0.008 A 
ATOM     15  C   UNL d   1      32.544  23.100 -21.691  0.00  0.00     0.020 A 
ENDBRANCH   8  11
ENDBRANCH   7   8
ENDBRANCH   1   7
BRANCH   2  16
ATOM     16  C   UNL d   1      32.473  18.602 -23.472  0.00  0.00     0.000 C 
BRANCH  16  17
ATOM     17  C   UNL d   1      32.294  17.848 -23.188  0.00  0.00     0.000 C 
BRANCH  17  18
ATOM     18  C   UNL d   1      32.377  17.191 -23.681  0.00  0.00     0.000 C 
ATOM     19  C   UNL d   1      32.677  16.488 -23.386  0.00  0.00     0.000 C 
ENDBRANCH  17  18
ENDBRANCH  16  17
ENDBRANCH   2  16
TORSDOF 6
ENDMDL
