MODEL 1
REMARK VINA RESULT:      -8.6      0.000      0.000
REMARK  10 active torsions:
REMARK  status: ('A' for Active; 'I' for Inactive)
REMARK       I    between atoms: C_6  and  N_1 
REMARK    1  A    between atoms: C_7  and  C_3 
REMARK    2  A    between atoms: C_9  and  C_4 
REMARK    3  A    between atoms: C_19  and  C_6 
REMARK    4  A    between atoms: C_10  and  C_25 
REMARK    5  A    between atoms: O_23  and  C_10 
REMARK    6  A    between atoms: S_18  and  C_19 
REMARK    7  A    between atoms: C_25  and  S_18 
REMARK    8  A    between atoms: C_26  and  O_23 
REMARK    9  A    between atoms: C_27  and  C_26 
REMARK   10  A    between atoms: C_28  and  C_27 
ROOT
ATOM      1  N   UNL d   1      53.057  32.435  53.473  0.00  0.00    -0.195 N 
ATOM      2  N   UNL d   1      52.732  31.715  53.241  0.00  0.00    -0.162 NA
ATOM      3  C   UNL d   1      53.180  31.125  53.539  0.00  0.00     0.109 A 
ATOM      4  C   UNL d   1      53.723  32.265  53.925  0.00  0.00     0.088 A 
ATOM      5  C   UNL d   1      53.803  31.456  53.968  0.00  0.00     0.041 A 
ATOM      6  C   UNL d   1      52.768  33.192  53.286  0.00  0.00     0.275 C 
ATOM      7  O   UNL d   1      53.153  33.864  53.559  0.00  0.00    -0.266 OA
ENDROOT
BRANCH   4   8
ATOM      8  C   UNL d   1      54.237  32.794  54.284  0.00  0.00     0.018 A 
ATOM      9  C   UNL d   1      54.101  33.030  55.060  0.00  0.00     0.004 A 
ATOM     10  C   UNL d   1      54.615  33.559  55.418  0.00  0.00     0.030 A 
ATOM     11  C   UNL d   1      55.265  33.858  55.012  0.00  0.00     0.140 A 
ATOM     12  C   UNL d   1      55.395  33.613  54.225  0.00  0.00     0.030 A 
ATOM     13  F   UNL d   1      55.775  34.389  55.380  0.00  0.00    -0.204 F 
ATOM     14  C   UNL d   1      54.886  33.087  53.865  0.00  0.00     0.004 A 
ENDBRANCH   4   8
BRANCH   6  15
ATOM     15  C   UNL d   1      52.089  33.266  52.824  0.00  0.00     0.127 C 
BRANCH  15  16
ATOM     16  S   UNL d   1      51.604  33.924  52.901  0.00  0.00    -0.089 SA
BRANCH  16  17
ATOM     17  C   UNL d   1      51.014  34.063  52.348  0.00  0.00     0.103 C 
BRANCH  17  18
ATOM     18  C   UNL d   1      50.313  34.435  52.564  0.00  0.00     0.307 C 
ATOM     19  O   UNL d   1      50.253  34.786  53.311  0.00  0.00    -0.258 OA
BRANCH  18  20
ATOM     20  O   UNL d   1      49.668  34.462  52.043  0.00  0.00    -0.271 OA
BRANCH  20  21
ATOM     21  C   UNL d   1      49.036  34.961  52.195  0.00  0.00     0.126 C 
BRANCH  21  22
ATOM     22  C   UNL d   1      48.397  34.995  51.660  0.00  0.00     0.027 C 
BRANCH  22  23
ATOM     23  C   UNL d   1      47.811  35.568  51.755  0.00  0.00     0.002 C 
ATOM     24  C   UNL d   1      47.085  35.464  51.378  0.00  0.00     0.000 C 
ENDBRANCH  22  23
ENDBRANCH  21  22
ENDBRANCH  20  21
ENDBRANCH  18  20
ENDBRANCH  17  18
ENDBRANCH  16  17
ENDBRANCH  15  16
ENDBRANCH   6  15
BRANCH   3  25
ATOM     25  C   UNL d   1      53.012  30.327  53.412  0.00  0.00     0.049 A 
ATOM     26  S   UNL d   1      52.605  29.901  52.844  0.00  0.00    -0.085 SA
ATOM     27  C   UNL d   1      52.642  29.104  53.042  0.00  0.00     0.035 A 
ATOM     28  C   UNL d   1      53.075  29.029  53.742  0.00  0.00     0.007 A 
ATOM     29  C   UNL d   1      53.306  29.788  53.974  0.00  0.00     0.009 A 
ENDBRANCH   3  25
TORSDOF 10
ENDMDL
MODEL 2
REMARK VINA RESULT:      -7.8      1.719      3.195
REMARK  10 active torsions:
REMARK  status: ('A' for Active; 'I' for Inactive)
REMARK       I    between atoms: C_6  and  N_1 
REMARK    1  A    between atoms: C_7  and  C_3 
REMARK    2  A    between atoms: C_9  and  C_4 
REMARK    3  A    between atoms: C_19  and  C_6 
REMARK    4  A    between atoms: C_10  and  C_25 
REMARK    5  A    between atoms: O_23  and  C_10 
REMARK    6  A    between atoms: S_18  and  C_19 
REMARK    7  A    between atoms: C_25  and  S_18 
REMARK    8  A    between atoms: C_26  and  O_23 
REMARK    9  A    between atoms: C_27  and  C_26 
REMARK   10  A    between atoms: C_28  and  C_27 
ROOT
ATOM      1  N   UNL d   1      52.962  32.664  53.649  0.00  0.00    -0.195 N 
ATOM      2  N   UNL d   1      53.406  33.254  54.017  0.00  0.00    -0.162 NA
ATOM      3  C   UNL d   1      54.060  32.921  54.333  0.00  0.00     0.109 A 
ATOM      4  C   UNL d   1      53.369  31.957  53.752  0.00  0.00     0.088 A 
ATOM      5  C   UNL d   1      54.048  32.111  54.174  0.00  0.00     0.041 A 
ATOM      6  C   UNL d   1      52.240  32.765  53.250  0.00  0.00     0.275 C 
ATOM      7  O   UNL d   1      51.860  32.122  52.908  0.00  0.00    -0.266 OA
ENDROOT
BRANCH   4   8
ATOM      8  C   UNL d   1      53.155  31.211  53.488  0.00  0.00     0.018 A 
ATOM      9  C   UNL d   1      52.780  30.689  54.002  0.00  0.00     0.004 A 
ATOM     10  C   UNL d   1      52.567  29.943  53.738  0.00  0.00     0.030 A 
ATOM     11  C   UNL d   1      52.721  29.708  52.965  0.00  0.00     0.140 A 
ATOM     12  C   UNL d   1      53.102  30.243  52.450  0.00  0.00     0.030 A 
ATOM     13  F   UNL d   1      52.503  28.957  52.709  0.00  0.00    -0.204 F 
ATOM     14  C   UNL d   1      53.316  30.986  52.710  0.00  0.00     0.004 A 
ENDBRANCH   4   8
BRANCH   6  15
ATOM     15  C   UNL d   1      51.905  33.517  53.196  0.00  0.00     0.127 C 
BRANCH  15  16
ATOM     16  S   UNL d   1      51.150  33.615  52.888  0.00  0.00    -0.089 SA
BRANCH  16  17
ATOM     17  C   UNL d   1      50.844  34.370  52.789  0.00  0.00     0.103 C 
BRANCH  17  18
ATOM     18  C   UNL d   1      50.061  34.480  52.562  0.00  0.00     0.307 C 
ATOM     19  O   UNL d   1      49.810  34.207  51.822  0.00  0.00    -0.258 OA
BRANCH  18  20
ATOM     20  O   UNL d   1      49.523  34.862  53.065  0.00  0.00    -0.271 OA
BRANCH  20  21
ATOM     21  C   UNL d   1      48.901  35.293  52.751  0.00  0.00     0.126 C 
BRANCH  21  22
ATOM     22  C   UNL d   1      48.429  35.764  53.252  0.00  0.00     0.027 C 
BRANCH  22  23
ATOM     23  C   UNL d   1      47.742  36.116  52.960  0.00  0.00     0.002 C 
ATOM     24  C   UNL d   1      47.377  36.709  53.402  0.00  0.00     0.000 C 
ENDBRANCH  22  23
ENDBRANCH  21  22
ENDBRANCH  20  21
ENDBRANCH  18  20
ENDBRANCH  17  18
ENDBRANCH  16  17
ENDBRANCH  15  16
ENDBRANCH   6  15
BRANCH   3  25
ATOM     25  C   UNL d   1      54.628  33.355  54.744  0.00  0.00     0.049 A 
ATOM     26  S   UNL d   1      54.719  33.611  55.516  0.00  0.00    -0.085 SA
ATOM     27  C   UNL d   1      55.425  34.029  55.569  0.00  0.00     0.035 A 
ATOM     28  C   UNL d   1      55.780  34.035  54.823  0.00  0.00     0.007 A 
ATOM     29  C   UNL d   1      55.287  33.617  54.308  0.00  0.00     0.009 A 
ENDBRANCH   3  25
TORSDOF 10
ENDMDL
MODEL 3
REMARK VINA RESULT:      -6.8      1.430      1.866
REMARK  10 active torsions:
REMARK  status: ('A' for Active; 'I' for Inactive)
REMARK       I    between atoms: C_6  and  N_1 
REMARK    1  A    between atoms: C_7  and  C_3 
REMARK    2  A    between atoms: C_9  and  C_4 
REMARK    3  A    between atoms: C_19  and  C_6 
REMARK    4  A    between atoms: C_10  and  C_25 
REMARK    5  A    between atoms: O_23  and  C_10 
REMARK    6  A    between atoms: S_18  and  C_19 
REMARK    7  A    between atoms: C_25  and  S_18 
REMARK    8  A    between atoms: C_26  and  O_23 
REMARK    9  A    between atoms: C_27  and  C_26 
REMARK   10  A    between atoms: C_28  and  C_27 
ROOT
ATOM      1  N   UNL d   1      51.962  33.459  53.155  0.00  0.00    -0.195 N 
ATOM      2  N   UNL d   1      51.966  32.654  52.980  0.00  0.00    -0.162 NA
ATOM      3  C   UNL d   1      52.634  32.331  53.278  0.00  0.00     0.109 A 
ATOM      4  C   UNL d   1      52.652  33.619  53.573  0.00  0.00     0.088 A 
ATOM      5  C   UNL d   1      53.070  32.925  53.651  0.00  0.00     0.041 A 
ATOM      6  C   UNL d   1      51.371  34.006  52.949  0.00  0.00     0.275 C 
ATOM      7  O   UNL d   1      51.443  34.796  53.164  0.00  0.00    -0.266 OA
ENDROOT
BRANCH   4   8
ATOM      8  C   UNL d   1      52.904  34.339  53.871  0.00  0.00     0.018 A 
ATOM      9  C   UNL d   1      52.736  34.537  54.652  0.00  0.00     0.004 A 
ATOM     10  C   UNL d   1      52.988  35.257  54.951  0.00  0.00     0.030 A 
ATOM     11  C   UNL d   1      53.406  35.787  54.481  0.00  0.00     0.140 A 
ATOM     12  C   UNL d   1      53.572  35.579  53.690  0.00  0.00     0.030 A 
ATOM     13  F   UNL d   1      53.655  36.509  54.789  0.00  0.00    -0.204 F 
ATOM     14  C   UNL d   1      53.323  34.862  53.389  0.00  0.00     0.004 A 
ENDBRANCH   4   8
BRANCH   6  15
ATOM     15  C   UNL d   1      50.709  33.753  52.527  0.00  0.00     0.127 C 
BRANCH  15  16
ATOM     16  S   UNL d   1      50.211  34.299  52.170  0.00  0.00    -0.089 SA
BRANCH  16  17
ATOM     17  C   UNL d   1      49.449  34.079  51.958  0.00  0.00     0.103 C 
BRANCH  17  18
ATOM     18  C   UNL d   1      48.979  34.576  51.500  0.00  0.00     0.307 C 
ATOM     19  O   UNL d   1      49.042  34.549  50.676  0.00  0.00    -0.258 OA
BRANCH  18  20
ATOM     20  O   UNL d   1      48.445  35.101  51.857  0.00  0.00    -0.271 OA
BRANCH  20  21
ATOM     21  C   UNL d   1      47.742  35.291  51.481  0.00  0.00     0.126 C 
BRANCH  21  22
ATOM     22  C   UNL d   1      47.235  35.862  51.815  0.00  0.00     0.027 C 
BRANCH  22  23
ATOM     23  C   UNL d   1      46.426  35.840  51.655  0.00  0.00     0.002 C 
ATOM     24  C   UNL d   1      45.926  36.369  52.042  0.00  0.00     0.000 C 
ENDBRANCH  22  23
ENDBRANCH  21  22
ENDBRANCH  20  21
ENDBRANCH  18  20
ENDBRANCH  17  18
ENDBRANCH  16  17
ENDBRANCH  15  16
ENDBRANCH   6  15
BRANCH   3  25
ATOM     25  C   UNL d   1      52.817  31.530  53.202  0.00  0.00     0.049 A 
ATOM     26  S   UNL d   1      52.533  30.909  52.752  0.00  0.00    -0.085 SA
ATOM     27  C   UNL d   1      52.963  30.234  52.941  0.00  0.00     0.035 A 
ATOM     28  C   UNL d   1      53.521  30.435  53.516  0.00  0.00     0.007 A 
ATOM     29  C   UNL d   1      53.433  31.240  53.680  0.00  0.00     0.009 A 
ENDBRANCH   3  25
TORSDOF 10
ENDMDL
MODEL 4
REMARK VINA RESULT:      -6.2      2.203      5.241
REMARK  10 active torsions:
REMARK  status: ('A' for Active; 'I' for Inactive)
REMARK       I    between atoms: C_6  and  N_1 
REMARK    1  A    between atoms: C_7  and  C_3 
REMARK    2  A    between atoms: C_9  and  C_4 
REMARK    3  A    between atoms: C_19  and  C_6 
REMARK    4  A    between atoms: C_10  and  C_25 
REMARK    5  A    between atoms: O_23  and  C_10 
REMARK    6  A    between atoms: S_18  and  C_19 
REMARK    7  A    between atoms: C_25  and  S_18 
REMARK    8  A    between atoms: C_26  and  O_23 
REMARK    9  A    between atoms: C_27  and  C_26 
REMARK   10  A    between atoms: C_28  and  C_27 
ROOT
ATOM      1  N   UNL d   1      52.899  32.752  53.306  0.00  0.00    -0.195 N 
ATOM      2  N   UNL d   1      53.592  32.743  53.752  0.00  0.00    -0.162 NA
ATOM      3  C   UNL d   1      53.667  33.449  54.120  0.00  0.00     0.109 A 
ATOM      4  C   UNL d   1      52.552  33.490  53.414  0.00  0.00     0.088 A 
ATOM      5  C   UNL d   1      53.023  33.924  53.916  0.00  0.00     0.041 A 
ATOM      6  C   UNL d   1      52.606  32.133  52.835  0.00  0.00     0.275 C 
ATOM      7  O   UNL d   1      51.903  32.223  52.419  0.00  0.00    -0.266 OA
ENDROOT
BRANCH   4   8
ATOM      8  C   UNL d   1      51.854  33.770  53.087  0.00  0.00     0.018 A 
ATOM      9  C   UNL d   1      51.147  33.676  53.497  0.00  0.00     0.004 A 
ATOM     10  C   UNL d   1      50.449  33.956  53.170  0.00  0.00     0.030 A 
ATOM     11  C   UNL d   1      50.445  34.331  52.438  0.00  0.00     0.140 A 
ATOM     12  C   UNL d   1      51.167  34.423  52.030  0.00  0.00     0.030 A 
ATOM     13  F   UNL d   1      49.740  34.610  52.118  0.00  0.00    -0.204 F 
ATOM     14  C   UNL d   1      51.864  34.145  52.352  0.00  0.00     0.004 A 
ENDBRANCH   4   8
BRANCH   6  15
ATOM     15  C   UNL d   1      53.024  31.424  52.787  0.00  0.00     0.127 C 
BRANCH  15  16
ATOM     16  S   UNL d   1      52.627  30.705  52.790  0.00  0.00    -0.089 SA
BRANCH  16  17
ATOM     17  C   UNL d   1      53.052  30.004  52.829  0.00  0.00     0.103 C 
BRANCH  17  18
ATOM     18  C   UNL d   1      52.808  29.391  53.321  0.00  0.00     0.307 C 
ATOM     19  O   UNL d   1      52.038  29.097  53.252  0.00  0.00    -0.258 OA
BRANCH  18  20
ATOM     20  O   UNL d   1      53.325  29.067  53.883  0.00  0.00    -0.271 OA
BRANCH  20  21
ATOM     21  C   UNL d   1      53.053  28.882  54.634  0.00  0.00     0.126 C 
BRANCH  21  22
ATOM     22  C   UNL d   1      53.593  28.644  55.223  0.00  0.00     0.027 C 
BRANCH  22  23
ATOM     23  C   UNL d   1      53.332  28.517  55.995  0.00  0.00     0.002 C 
ATOM     24  C   UNL d   1      53.471  29.096  56.565  0.00  0.00     0.000 C 
ENDBRANCH  22  23
ENDBRANCH  21  22
ENDBRANCH  20  21
ENDBRANCH  18  20
ENDBRANCH  17  18
ENDBRANCH  16  17
ENDBRANCH  15  16
ENDBRANCH   6  15
BRANCH   3  25
ATOM     25  C   UNL d   1      54.303  33.630  54.614  0.00  0.00     0.049 A 
ATOM     26  S   UNL d   1      55.017  34.019  54.525  0.00  0.00    -0.085 SA
ATOM     27  C   UNL d   1      55.408  34.010  55.248  0.00  0.00     0.035 A 
ATOM     28  C   UNL d   1      54.935  33.611  55.795  0.00  0.00     0.007 A 
ATOM     29  C   UNL d   1      54.247  33.374  55.404  0.00  0.00     0.009 A 
ENDBRANCH   3  25
TORSDOF 10
ENDMDL
MODEL 5
REMARK VINA RESULT:      -5.7      1.724      4.868
REMARK  10 active torsions:
REMARK  status: ('A' for Active; 'I' for Inactive)
REMARK       I    between atoms: C_6  and  N_1 
REMARK    1  A    between atoms: C_7  and  C_3 
REMARK    2  A    between atoms: C_9  and  C_4 
REMARK    3  A    between atoms: C_19  and  C_6 
REMARK    4  A    between atoms: C_10  and  C_25 
REMARK    5  A    between atoms: O_23  and  C_10 
REMARK    6  A    between atoms: S_18  and  C_19 
REMARK    7  A    between atoms: C_25  and  S_18 
REMARK    8  A    between atoms: C_26  and  O_23 
REMARK    9  A    between atoms: C_27  and  C_26 
REMARK   10  A    between atoms: C_28  and  C_27 
ROOT
ATOM      1  N   UNL d   1      52.737  32.845  53.361  0.00  0.00    -0.195 N 
ATOM      2  N   UNL d   1      52.010  33.023  53.016  0.00  0.00    -0.162 NA
ATOM      3  C   UNL d   1      51.801  33.764  53.228  0.00  0.00     0.109 A 
ATOM      4  C   UNL d   1      52.967  33.507  53.793  0.00  0.00     0.088 A 
ATOM      5  C   UNL d   1      52.391  34.077  53.713  0.00  0.00     0.041 A 
ATOM      6  C   UNL d   1      53.159  32.133  53.287  0.00  0.00     0.275 C 
ATOM      7  O   UNL d   1      53.882  32.036  53.666  0.00  0.00    -0.266 OA
ENDROOT
BRANCH   4   8
ATOM      8  C   UNL d   1      53.649  33.606  54.237  0.00  0.00     0.018 A 
ATOM      9  C   UNL d   1      54.320  33.926  53.885  0.00  0.00     0.004 A 
ATOM     10  C   UNL d   1      55.002  34.025  54.328  0.00  0.00     0.030 A 
ATOM     11  C   UNL d   1      55.027  33.809  55.121  0.00  0.00     0.140 A 
ATOM     12  C   UNL d   1      54.342  33.484  55.470  0.00  0.00     0.030 A 
ATOM     13  F   UNL d   1      55.716  33.912  55.559  0.00  0.00    -0.204 F 
ATOM     14  C   UNL d   1      53.661  33.384  55.032  0.00  0.00     0.004 A 
ENDBRANCH   4   8
BRANCH   6  15
ATOM     15  C   UNL d   1      52.849  31.520  52.830  0.00  0.00     0.127 C 
BRANCH  15  16
ATOM     16  S   UNL d   1      53.094  30.746  52.952  0.00  0.00    -0.089 SA
BRANCH  16  17
ATOM     17  C   UNL d   1      52.536  30.151  53.043  0.00  0.00     0.103 C 
BRANCH  17  18
ATOM     18  C   UNL d   1      52.765  29.385  53.237  0.00  0.00     0.307 C 
ATOM     19  O   UNL d   1      52.473  28.749  52.796  0.00  0.00    -0.258 OA
BRANCH  18  20
ATOM     20  O   UNL d   1      53.285  29.245  53.868  0.00  0.00    -0.271 OA
BRANCH  20  21
ATOM     21  C   UNL d   1      53.053  28.771  54.495  0.00  0.00     0.126 C 
BRANCH  21  22
ATOM     22  C   UNL d   1      53.577  28.637  55.129  0.00  0.00     0.027 C 
BRANCH  22  23
ATOM     23  C   UNL d   1      53.281  28.459  55.879  0.00  0.00     0.002 C 
ATOM     24  C   UNL d   1      53.441  28.972  56.504  0.00  0.00     0.000 C 
ENDBRANCH  22  23
ENDBRANCH  21  22
ENDBRANCH  20  21
ENDBRANCH  18  20
ENDBRANCH  17  18
ENDBRANCH  16  17
ENDBRANCH  15  16
ENDBRANCH   6  15
BRANCH   3  25
ATOM     25  C   UNL d   1      51.100  34.120  52.978  0.00  0.00     0.049 A 
ATOM     26  S   UNL d   1      50.451  34.452  53.350  0.00  0.00    -0.085 SA
ATOM     27  C   UNL d   1      49.928  34.716  52.773  0.00  0.00     0.035 A 
ATOM     28  C   UNL d   1      50.253  34.548  52.032  0.00  0.00     0.007 A 
ATOM     29  C   UNL d   1      50.981  34.178  52.156  0.00  0.00     0.009 A 
ENDBRANCH   3  25
TORSDOF 10
ENDMDL
