MODEL 1
REMARK VINA RESULT:      39.3      0.000      0.000
REMARK  4 active torsions:
REMARK  status: ('A' for Active; 'I' for Inactive)
REMARK    1  A    between atoms: N_2  and  S_1 
REMARK    2  A    between atoms: C_3  and  S_1 
REMARK    3  A    between atoms: C_5  and  N_4 
REMARK    4  A    between atoms: O_17  and  C_14 
ROOT
ATOM      1  N   UNL d   1      13.452  13.608  -3.410  0.00  0.00    -0.226 N 
ATOM      2  N   UNL d   1      14.124  12.922  -2.085  0.00  0.00    -0.299 N 
ATOM      3  C   UNL d   1      13.065  12.983  -3.029  0.00  0.00     0.111 A 
ATOM      4  C   UNL d   1      14.172  13.887  -3.127  0.00  0.00     0.111 A 
ATOM      5  C   UNL d   1      13.407  12.640  -2.362  0.00  0.00     0.100 A 
ATOM      6  C   UNL d   1      14.509  13.539  -2.459  0.00  0.00     0.100 A 
ENDROOT
BRANCH   1   7
ATOM      7  S   UNL d   1      13.113  13.954  -4.078  0.00  0.00     0.272 S 
ATOM      8  O   UNL d   1      12.777  14.300  -4.738  0.00  0.00    -0.200 OA
ATOM      9  O   UNL d   1      13.046  14.668  -3.670  0.00  0.00    -0.200 OA
BRANCH   7  10
ATOM     10  C   UNL d   1      13.183  13.237  -4.480  0.00  0.00     0.106 A 
ATOM     11  C   UNL d   1      13.651  13.182  -5.160  0.00  0.00     0.037 A 
ATOM     12  C   UNL d   1      13.717  12.462  -5.557  0.00  0.00     0.095 A 
ATOM     13  C   UNL d   1      13.315  11.796  -5.274  0.00  0.00     0.024 A 
ATOM     14  C   UNL d   1      12.849  11.854  -4.596  0.00  0.00     0.003 A 
ATOM     15  C   UNL d   1      12.784  12.574  -4.199  0.00  0.00     0.013 A 
BRANCH  12  16
ATOM     16  O   UNL d   1      14.182  12.404  -6.234  0.00  0.00    -0.328 OA
ATOM     17  C   UNL d   1      14.792  12.943  -6.364  0.00  0.00     0.181 C 
ENDBRANCH  12  16
ENDBRANCH   7  10
ENDBRANCH   1   7
BRANCH   2  18
ATOM     18  C   UNL d   1      14.466  12.579  -1.418  0.00  0.00     0.092 A 
ATOM     19  C   UNL d   1      13.989  12.245  -0.840  0.00  0.00     0.156 A 
ATOM     20  F   UNL d   1      13.170  12.275  -0.970  0.00  0.00    -0.203 F 
ATOM     21  C   UNL d   1      14.320  11.898  -0.167  0.00  0.00     0.031 A 
ATOM     22  C   UNL d   1      15.147  11.891  -0.081  0.00  0.00     0.002 A 
ATOM     23  C   UNL d   1      15.628  12.228  -0.663  0.00  0.00     0.002 A 
ATOM     24  C   UNL d   1      15.286  12.571  -1.331  0.00  0.00     0.020 A 
ENDBRANCH   2  18
TORSDOF 4
ENDMDL
