MODEL 1
REMARK VINA RESULT:      48.3      0.000      0.000
REMARK  2 active torsions:
REMARK  status: ('A' for Active; 'I' for Inactive)
REMARK    1  A    between atoms: N_9  and  C_3 
REMARK    2  A    between atoms: C_11  and  C_5 
ROOT
ATOM      1  N   UNL d   1     -57.913 -98.814 -45.134  0.00  0.00    -0.196 N 
ATOM      2  C   UNL d   1     -57.565 -98.822 -44.387  0.00  0.00     0.167 A 
ATOM      3  C   UNL d   1     -58.732 -98.803 -45.207  0.00  0.00     0.152 A 
ATOM      4  N   UNL d   1     -57.312 -98.818 -45.690  0.00  0.00    -0.163 NA
ATOM      5  C   UNL d   1     -56.750 -98.832 -44.481  0.00  0.00     0.055 A 
ATOM      6  C   UNL d   1     -56.591 -98.829 -45.285  0.00  0.00     0.104 A 
ATOM      7  N   UNL d   1     -58.036 -98.820 -43.712  0.00  0.00    -0.227 NA
ATOM      8  C   UNL d   1     -59.211 -98.801 -44.530  0.00  0.00     0.057 A 
ATOM      9  C   UNL d   1     -58.863 -98.809 -43.783  0.00  0.00     0.086 A 
ATOM     10  C   UNL d   1     -55.842 -98.836 -45.630  0.00  0.00     0.023 C 
ATOM     11  C   UNL d   1     -59.333 -98.807 -43.096  0.00  0.00     0.021 C 
ENDROOT
BRANCH   5  12
ATOM     12  C   UNL d   1     -56.125 -98.842 -43.940  0.00  0.00     0.004 A 
ATOM     13  C   UNL d   1     -56.280 -98.757 -43.130  0.00  0.00     0.000 A 
ATOM     14  C   UNL d   1     -55.656 -98.768 -42.589  0.00  0.00     0.000 A 
ATOM     15  C   UNL d   1     -54.880 -98.863 -42.853  0.00  0.00     0.000 A 
ATOM     16  C   UNL d   1     -54.728 -98.948 -43.666  0.00  0.00     0.000 A 
ATOM     17  C   UNL d   1     -55.350 -98.937 -44.204  0.00  0.00     0.000 A 
ENDBRANCH   5  12
BRANCH   3  18
ATOM     18  N   UNL d   1     -59.080 -98.795 -45.955  0.00  0.00    -0.289 N 
ATOM     19  C   UNL d   1     -58.662 -98.826 -46.664  0.00  0.00     0.082 A 
ATOM     20  C   UNL d   1     -59.205 -98.806 -47.289  0.00  0.00     0.021 A 
ATOM     21  C   UNL d   1     -59.959 -98.762 -46.956  0.00  0.00     0.021 A 
ATOM     22  C   UNL d   1     -59.893 -98.755 -46.146  0.00  0.00     0.082 A 
ENDBRANCH   3  18
TORSDOF 2
ENDMDL
