MODEL 1
REMARK VINA RESULT:      88.0      0.000      0.000
REMARK  3 active torsions:
REMARK  status: ('A' for Active; 'I' for Inactive)
REMARK    1  A    between atoms: C_8  and  N_1 
REMARK    2  A    between atoms: C_9  and  C_14 
REMARK       I    between atoms: N_10  and  C_9 
REMARK    3  A    between atoms: C_16  and  N_12 
ROOT
ATOM      1  C   UNL d   1      13.901  14.501  -3.676  0.00  0.00     0.066 A 
ATOM      2  C   UNL d   1      14.408  15.620  -4.407  0.00  0.00     0.058 A 
ATOM      3  C   UNL d   1      14.497  15.047  -3.819  0.00  0.00     0.022 A 
ATOM      4  C   UNL d   1      13.202  14.521  -4.123  0.00  0.00     0.017 A 
ATOM      5  C   UNL d   1      13.708  15.640  -4.855  0.00  0.00     0.005 A 
ATOM      6  C   UNL d   1      13.111  15.091  -4.710  0.00  0.00     0.002 A 
ENDROOT
BRANCH   1   7
ATOM      7  N   UNL d   1      13.992  13.931  -3.090  0.00  0.00    -0.261 N 
ATOM      8  C   UNL d   1      14.287  14.244  -2.388  0.00  0.00     0.174 A 
ATOM      9  O   UNL d   1      14.479  13.929  -1.643  0.00  0.00    -0.316 OA
ATOM     10  C   UNL d   1      13.966  13.071  -2.691  0.00  0.00     0.079 A 
ATOM     11  C   UNL d   1      14.474  15.036  -2.272  0.00  0.00     0.055 C 
ATOM     12  C   UNL d   1      14.455  13.181  -1.299  0.00  0.00     0.094 A 
ATOM     13  C   UNL d   1      14.735  13.278  -0.522  0.00  0.00     0.024 A 
ATOM     14  C   UNL d   1      14.229  12.428  -1.555  0.00  0.00     0.022 A 
ATOM     15  C   UNL d   1      14.785  12.629  -0.015  0.00  0.00     0.002 A 
ATOM     16  C   UNL d   1      14.557  11.880  -0.278  0.00  0.00    -0.000 A 
ATOM     17  C   UNL d   1      14.278  11.779  -1.048  0.00  0.00    -0.001 A 
ATOM     18  C   UNL d   1      13.934  12.115  -2.258  0.00  0.00     0.137 A 
ATOM     19  N   UNL d   1      13.738  12.424  -3.009  0.00  0.00    -0.216 NA
ATOM     20  C   UNL d   1      13.762  13.172  -3.352  0.00  0.00     0.348 A 
ATOM     21  O   UNL d   1      13.499  13.167  -4.131  0.00  0.00    -0.245 OA
ENDBRANCH   1   7
BRANCH   2  22
ATOM     22  C   UNL d   1      15.011  16.167  -4.546  0.00  0.00     0.265 C 
ATOM     23  N   UNL d   1      14.829  16.914  -4.839  0.00  0.00    -0.269 N 
ATOM     24  C   UNL d   1      14.047  17.126  -4.998  0.00  0.00     0.102 A 
ATOM     25  C   UNL d   1      15.437  17.462  -4.978  0.00  0.00     0.102 A 
ATOM     26  C   UNL d   1      13.874  17.874  -5.291  0.00  0.00     0.100 A 
ATOM     27  N   UNL d   1      14.481  18.421  -5.430  0.00  0.00    -0.299 N 
ATOM     28  C   UNL d   1      15.263  18.210  -5.271  0.00  0.00     0.100 A 
ATOM     29  O   UNL d   1      15.798  15.959  -4.388  0.00  0.00    -0.267 OA
BRANCH  27  30
ATOM     30  C   UNL d   1      14.303  19.169  -5.723  0.00  0.00     0.092 A 
ATOM     31  C   UNL d   1      13.576  19.302  -6.088  0.00  0.00     0.156 A 
ATOM     32  F   UNL d   1      13.032  18.684  -6.157  0.00  0.00    -0.203 F 
ATOM     33  C   UNL d   1      13.391  20.053  -6.386  0.00  0.00     0.031 A 
ATOM     34  C   UNL d   1      13.945  20.668  -6.312  0.00  0.00     0.002 A 
ATOM     35  C   UNL d   1      14.675  20.528  -5.943  0.00  0.00     0.002 A 
ATOM     36  C   UNL d   1      14.850  19.779  -5.651  0.00  0.00     0.020 A 
ENDBRANCH  27  30
ENDBRANCH   2  22
TORSDOF 3
ENDMDL
MODEL 2
REMARK VINA RESULT:      89.8      1.199      1.971
REMARK  3 active torsions:
REMARK  status: ('A' for Active; 'I' for Inactive)
REMARK    1  A    between atoms: C_8  and  N_1 
REMARK    2  A    between atoms: C_9  and  C_14 
REMARK       I    between atoms: N_10  and  C_9 
REMARK    3  A    between atoms: C_16  and  N_12 
ROOT
ATOM      1  C   UNL d   1      14.903  15.851  -1.952  0.00  0.00     0.066 A 
ATOM      2  C   UNL d   1      14.934  16.596  -3.171  0.00  0.00     0.058 A 
ATOM      3  C   UNL d   1      14.881  15.875  -2.772  0.00  0.00     0.022 A 
ATOM      4  C   UNL d   1      14.981  16.553  -1.516  0.00  0.00     0.017 A 
ATOM      5  C   UNL d   1      15.012  17.299  -2.735  0.00  0.00     0.005 A 
ATOM      6  C   UNL d   1      15.034  17.272  -1.912  0.00  0.00     0.002 A 
ENDROOT
BRANCH   1   7
ATOM      7  N   UNL d   1      14.849  15.131  -1.556  0.00  0.00    -0.261 N 
ATOM      8  C   UNL d   1      14.603  14.518  -2.048  0.00  0.00     0.174 A 
ATOM      9  O   UNL d   1      14.460  13.706  -1.942  0.00  0.00    -0.316 OA
ATOM     10  C   UNL d   1      14.899  14.524  -0.830  0.00  0.00     0.079 A 
ATOM     11  C   UNL d   1      14.427  14.602  -2.846  0.00  0.00     0.055 C 
ATOM     12  C   UNL d   1      14.504  13.181  -1.308  0.00  0.00     0.094 A 
ATOM     13  C   UNL d   1      14.277  12.440  -1.611  0.00  0.00     0.024 A 
ATOM     14  C   UNL d   1      14.711  13.245  -0.510  0.00  0.00     0.022 A 
ATOM     15  C   UNL d   1      14.259  11.779  -1.118  0.00  0.00     0.002 A 
ATOM     16  C   UNL d   1      14.467  11.851  -0.321  0.00  0.00    -0.000 A 
ATOM     17  C   UNL d   1      14.693  12.584  -0.017  0.00  0.00    -0.001 A 
ATOM     18  C   UNL d   1      14.957  13.859  -0.019  0.00  0.00     0.137 A 
ATOM     19  N   UNL d   1      15.103  14.675  -0.118  0.00  0.00    -0.216 NA
ATOM     20  C   UNL d   1      15.059  15.200  -0.751  0.00  0.00     0.348 A 
ATOM     21  O   UNL d   1      15.270  15.965  -0.537  0.00  0.00    -0.245 OA
ENDBRANCH   1   7
BRANCH   2  22
ATOM     22  C   UNL d   1      14.911  16.614  -3.996  0.00  0.00     0.265 C 
ATOM     23  N   UNL d   1      14.825  17.332  -4.389  0.00  0.00    -0.269 N 
ATOM     24  C   UNL d   1      14.760  18.039  -3.968  0.00  0.00     0.102 A 
ATOM     25  C   UNL d   1      14.801  17.347  -5.219  0.00  0.00     0.102 A 
ATOM     26  C   UNL d   1      14.674  18.752  -4.368  0.00  0.00     0.100 A 
ATOM     27  N   UNL d   1      14.651  18.767  -5.197  0.00  0.00    -0.299 N 
ATOM     28  C   UNL d   1      14.715  18.060  -5.618  0.00  0.00     0.100 A 
ATOM     29  O   UNL d   1      14.975  15.907  -4.424  0.00  0.00    -0.267 OA
BRANCH  27  30
ATOM     30  C   UNL d   1      14.565  19.483  -5.593  0.00  0.00     0.092 A 
ATOM     31  C   UNL d   1      13.835  19.682  -5.921  0.00  0.00     0.156 A 
ATOM     32  F   UNL d   1      13.197  19.163  -5.849  0.00  0.00    -0.203 F 
ATOM     33  C   UNL d   1      13.742  20.403  -6.322  0.00  0.00     0.031 A 
ATOM     34  C   UNL d   1      14.391  20.918  -6.388  0.00  0.00     0.002 A 
ATOM     35  C   UNL d   1      15.123  20.711  -6.056  0.00  0.00     0.002 A 
ATOM     36  C   UNL d   1      15.205  19.995  -5.661  0.00  0.00     0.020 A 
ENDBRANCH  27  30
ENDBRANCH   2  22
TORSDOF 3
ENDMDL
