MODEL 1
REMARK VINA RESULT:      15.0      0.000      0.000
REMARK  3 active torsions:
REMARK  status: ('A' for Active; 'I' for Inactive)
REMARK    1  A    between atoms: N_3  and  C_1 
REMARK       I    between atoms: C_2  and  N_3 
REMARK       I    between atoms: N_14  and  C_2 
REMARK    2  A    between atoms: C_16  and  N_14 
REMARK    3  A    between atoms: C_17  and  C_16 
ROOT
ATOM      1  C   UNL d   1      14.273  12.359  -2.140  0.00  0.00     0.127 A 
ATOM      2  C   UNL d   1      14.819  12.866  -1.295  0.00  0.00    -0.006 A 
ATOM      3  C   UNL d   1      13.525  11.780  -1.155  0.00  0.00     0.046 A 
ATOM      4  C   UNL d   1      14.514  12.631  -0.849  0.00  0.00    -0.006 A 
ATOM      5  C   UNL d   1      14.697  12.747  -1.579  0.00  0.00    -0.001 A 
ATOM      6  C   UNL d   1      14.754  12.747  -2.481  0.00  0.00    -0.001 A 
ATOM      7  C   UNL d   1      13.768  11.944  -1.926  0.00  0.00     0.040 A 
ATOM      8  C   UNL d   1      14.068  12.243  -1.060  0.00  0.00    -0.022 A 
ATOM      9  C   UNL d   1      13.938  12.156  -0.641  0.00  0.00    -0.022 A 
ATOM     10  C   UNL d   1      15.327  13.362  -0.019  0.00  0.00    -0.001 A 
ENDROOT
BRANCH   1  11
ATOM     11  N   UNL d   1      13.720  11.862  -2.699  0.00  0.00    -0.213 NA
ATOM     12  C   UNL d   1      13.351  12.262  -3.423  0.00  0.00     0.365 C 
ATOM     13  O   UNL d   1      12.813  11.781  -3.969  0.00  0.00    -0.243 OA
ATOM     14  N   UNL d   1      13.521  13.192  -3.623  0.00  0.00    -0.186 NA
BRANCH  14  15
ATOM     15  C   UNL d   1      13.136  13.571  -4.362  0.00  0.00     0.149 C 
BRANCH  15  16
ATOM     16  C   UNL d   1      12.838  14.435  -4.333  0.00  0.00     0.255 C 
ATOM     17  O   UNL d   1      13.373  15.154  -4.622  0.00  0.00    -0.281 OA
ENDBRANCH  15  16
ENDBRANCH  14  15
ENDBRANCH   1  11
TORSDOF 3
ENDMDL
MODEL 2
REMARK VINA RESULT:      15.4     10.231     10.469
REMARK  3 active torsions:
REMARK  status: ('A' for Active; 'I' for Inactive)
REMARK    1  A    between atoms: N_3  and  C_1 
REMARK       I    between atoms: C_2  and  N_3 
REMARK       I    between atoms: N_14  and  C_2 
REMARK    2  A    between atoms: C_16  and  N_14 
REMARK    3  A    between atoms: C_17  and  C_16 
ROOT
ATOM      1  C   UNL d   1      24.342  12.919  -2.188  0.00  0.00     0.127 A 
ATOM      2  C   UNL d   1      24.102  13.578  -1.307  0.00  0.00    -0.006 A 
ATOM      3  C   UNL d   1      23.961  11.890  -1.375  0.00  0.00     0.046 A 
ATOM      4  C   UNL d   1      23.932  13.156  -0.933  0.00  0.00    -0.006 A 
ATOM      5  C   UNL d   1      24.187  13.436  -1.593  0.00  0.00    -0.001 A 
ATOM      6  C   UNL d   1      24.491  13.563  -2.435  0.00  0.00    -0.001 A 
ATOM      7  C   UNL d   1      24.234  12.251  -2.065  0.00  0.00     0.040 A 
ATOM      8  C   UNL d   1      23.969  12.589  -1.201  0.00  0.00    -0.022 A 
ATOM      9  C   UNL d   1      23.820  12.396  -0.826  0.00  0.00    -0.022 A 
ATOM     10  C   UNL d   1      23.716  14.161  -0.024  0.00  0.00    -0.001 A 
ENDROOT
BRANCH   1  11
ATOM     11  N   UNL d   1      24.487  12.234  -2.801  0.00  0.00    -0.213 NA
ATOM     12  C   UNL d   1      24.626  12.444  -3.671  0.00  0.00     0.365 C 
ATOM     13  O   UNL d   1      24.767  11.779  -4.269  0.00  0.00    -0.243 OA
ATOM     14  N   UNL d   1      24.625  13.362  -3.972  0.00  0.00    -0.186 NA
BRANCH  14  15
ATOM     15  C   UNL d   1      24.767  13.546  -4.857  0.00  0.00     0.149 C 
BRANCH  15  16
ATOM     16  C   UNL d   1      24.752  12.873  -5.475  0.00  0.00     0.255 C 
ATOM     17  O   UNL d   1      24.135  12.867  -6.187  0.00  0.00    -0.281 OA
ENDBRANCH  15  16
ENDBRANCH  14  15
ENDBRANCH   1  11
TORSDOF 3
ENDMDL
MODEL 3
REMARK VINA RESULT:      15.8      9.706     10.619
REMARK  3 active torsions:
REMARK  status: ('A' for Active; 'I' for Inactive)
REMARK    1  A    between atoms: N_3  and  C_1 
REMARK       I    between atoms: C_2  and  N_3 
REMARK       I    between atoms: N_14  and  C_2 
REMARK    2  A    between atoms: C_16  and  N_14 
REMARK    3  A    between atoms: C_17  and  C_16 
ROOT
ATOM      1  C   UNL d   1      23.633  12.379  -2.396  0.00  0.00     0.127 A 
ATOM      2  C   UNL d   1      23.616  12.902  -3.393  0.00  0.00    -0.006 A 
ATOM      3  C   UNL d   1      24.768  11.779  -2.859  0.00  0.00     0.046 A 
ATOM      4  C   UNL d   1      24.102  12.660  -3.620  0.00  0.00    -0.006 A 
ATOM      5  C   UNL d   1      23.570  12.780  -3.089  0.00  0.00    -0.001 A 
ATOM      6  C   UNL d   1      23.054  12.781  -2.347  0.00  0.00    -0.001 A 
ATOM      7  C   UNL d   1      24.165  11.950  -2.323  0.00  0.00     0.040 A 
ATOM      8  C   UNL d   1      24.365  12.259  -3.215  0.00  0.00    -0.022 A 
ATOM      9  C   UNL d   1      24.691  12.168  -3.507  0.00  0.00    -0.022 A 
ATOM     10  C   UNL d   1      23.856  13.414  -4.740  0.00  0.00    -0.001 A 
ENDROOT
BRANCH   1  11
ATOM     11  N   UNL d   1      23.803  11.866  -1.639  0.00  0.00    -0.213 NA
ATOM     12  C   UNL d   1      24.039  12.281  -0.868  0.00  0.00     0.365 C 
ATOM     13  O   UNL d   1      24.205  11.783  -0.131  0.00  0.00    -0.243 OA
ATOM     14  N   UNL d   1      24.115  13.242  -0.820  0.00  0.00    -0.186 NA
BRANCH  14  15
ATOM     15  C   UNL d   1      24.354  13.636  -0.029  0.00  0.00     0.149 C 
BRANCH  15  16
ATOM     16  C   UNL d   1      24.725  14.471  -0.025  0.00  0.00     0.255 C 
ATOM     17  O   UNL d   1      24.195  15.249  -0.020  0.00  0.00    -0.281 OA
ENDBRANCH  15  16
ENDBRANCH  14  15
ENDBRANCH   1  11
TORSDOF 3
ENDMDL
