MODEL 1
REMARK VINA RESULT:      -0.6      0.000      0.000
REMARK  8 active torsions:
REMARK  status: ('A' for Active; 'I' for Inactive)
REMARK    1  A    between atoms: N_3  and  S_1 
REMARK    2  A    between atoms: C_5  and  S_1 
REMARK    3  A    between atoms: N_2  and  C_7 
REMARK    4  A    between atoms: C_6  and  N_3 
REMARK    5  A    between atoms: C_18  and  N_4 
REMARK    6  A    between atoms: C_7  and  C_6 
REMARK    7  A    between atoms: C_12  and  C_7 
REMARK    8  A    between atoms: O_23  and  C_17 
ROOT
ATOM      1  C   UNL d   1      32.296  17.790 -23.765  0.00  0.00     0.086 C 
ENDROOT
BRANCH   1   2
ATOM      2  N   UNL d   1      32.455  18.461 -23.298  0.00  0.00    -0.300 N 
ATOM      3  C   UNL d   1      32.530  19.197 -23.656  0.00  0.00     0.100 A 
ATOM      4  C   UNL d   1      32.687  19.864 -23.197  0.00  0.00     0.100 A 
ATOM      5  N   UNL d   1      32.769  19.792 -22.382  0.00  0.00    -0.301 N 
ATOM      6  C   UNL d   1      32.693  19.053 -22.024  0.00  0.00     0.100 A 
ATOM      7  C   UNL d   1      32.537  18.389 -22.482  0.00  0.00     0.100 A 
BRANCH   5   8
ATOM      8  C   UNL d   1      32.925  20.455 -21.923  0.00  0.00     0.064 A 
ATOM      9  C   UNL d   1      32.965  20.390 -21.100  0.00  0.00     0.018 A 
ATOM     10  C   UNL d   1      33.122  21.054 -20.641  0.00  0.00     0.002 A 
ATOM     11  C   UNL d   1      33.240  21.790 -21.003  0.00  0.00     0.000 A 
ATOM     12  C   UNL d   1      33.201  21.855 -21.826  0.00  0.00     0.002 A 
ATOM     13  C   UNL d   1      33.044  21.191 -22.285  0.00  0.00     0.018 A 
ENDBRANCH   5   8
ENDBRANCH   1   2
BRANCH   1  14
ATOM     14  C   UNL d   1      31.822  17.861 -24.436  0.00  0.00     0.130 C 
BRANCH  14  15
ATOM     15  N   UNL d   1      31.074  17.498 -24.456  0.00  0.00    -0.155 NA
BRANCH  15  16
ATOM     16  S   UNL d   1      30.435  17.890 -24.791  0.00  0.00     0.285 S 
ATOM     17  O   UNL d   1      30.984  18.564 -25.066  0.00  0.00    -0.198 OA
ATOM     18  O   UNL d   1      29.830  18.239 -25.096  0.00  0.00    -0.198 OA
BRANCH  16  19
ATOM     19  C   UNL d   1      29.933  17.281 -24.545  0.00  0.00     0.105 A 
ATOM     20  C   UNL d   1      29.613  17.297 -23.788  0.00  0.00     0.015 A 
ATOM     21  C   UNL d   1      29.110  16.689 -23.536  0.00  0.00     0.023 A 
ATOM     22  C   UNL d   1      28.788  16.706 -22.775  0.00  0.00     0.002 C 
ATOM     23  C   UNL d   1      28.929  16.062 -24.052  0.00  0.00     0.094 A 
ATOM     24  C   UNL d   1      29.253  16.050 -24.814  0.00  0.00     0.025 A 
ATOM     25  C   UNL d   1      29.752  16.654 -25.061  0.00  0.00     0.015 A 
BRANCH  23  26
ATOM     26  O   UNL d   1      28.427  15.453 -23.805  0.00  0.00    -0.328 OA
ATOM     27  C   UNL d   1      27.602  15.562 -23.810  0.00  0.00     0.181 C 
ENDBRANCH  23  26
ENDBRANCH  16  19
ENDBRANCH  15  16
ENDBRANCH  14  15
ENDBRANCH   1  14
BRANCH   1  28
ATOM     28  C   UNL d   1      32.611  17.058 -23.560  0.00  0.00     0.037 A 
ATOM     29  C   UNL d   1      32.790  16.508 -24.148  0.00  0.00     0.100 A 
ATOM     30  N   UNL d   1      33.107  15.771 -23.941  0.00  0.00    -0.242 NA
ATOM     31  C   UNL d   1      33.241  15.589 -23.148  0.00  0.00     0.099 A 
ATOM     32  C   UNL d   1      33.061  16.137 -22.565  0.00  0.00     0.021 A 
ATOM     33  C   UNL d   1      32.745  16.874 -22.771  0.00  0.00     0.005 A 
ENDBRANCH   1  28
TORSDOF 8
ENDMDL
