MODEL 1
REMARK VINA RESULT:       1.5      0.000      0.000
REMARK  3 active torsions:
REMARK  status: ('A' for Active; 'I' for Inactive)
REMARK    1  A    between atoms: S_12  and  C_7 
REMARK    2  A    between atoms: C_10  and  C_13 
REMARK    3  A    between atoms: C_13  and  S_12 
ROOT
ATOM      1  N   UNL d   1     -41.775-123.078 -53.760  0.00  0.00    -0.224 N 
ATOM      2  N   UNL d   1     -41.365-121.718 -53.969  0.00  0.00    -0.241 N 
ATOM      3  C   UNL d   1     -41.542-122.463 -54.272  0.00  0.00     0.343 A 
ATOM      4  C   UNL d   1     -41.421-121.583 -53.148  0.00  0.00     0.160 A 
ATOM      5  C   UNL d   1     -41.830-122.940 -52.950  0.00  0.00     0.273 A 
ATOM      6  C   UNL d   1     -41.652-122.191 -52.641  0.00  0.00     0.115 A 
ATOM      7  C   UNL d   1     -41.707-122.059 -51.837  0.00  0.00     0.120 A 
ATOM      8  N   UNL d   1     -41.244-120.835 -52.841  0.00  0.00    -0.209 NA
ATOM      9  N   UNL d   1     -41.531-121.313 -51.525  0.00  0.00    -0.220 NA
ATOM     10  C   UNL d   1     -41.299-120.699 -52.031  0.00  0.00     0.165 A 
ATOM     11  O   UNL d   1     -41.487-122.599 -55.082  0.00  0.00    -0.245 OA
ATOM     12  O   UNL d   1     -42.061-123.549 -52.443  0.00  0.00    -0.266 OA
ATOM     13  C   UNL d   1     -41.950-123.816 -54.068  0.00  0.00     0.107 C 
ATOM     14  C   UNL d   1     -41.133-121.105 -54.470  0.00  0.00     0.105 C 
ATOM     15  C   UNL d   1     -41.123-119.957 -51.725  0.00  0.00     0.042 C 
ENDROOT
BRANCH   7  16
ATOM     16  S   UNL d   1     -41.939-122.667 -51.330  0.00  0.00    -0.067 SA
BRANCH  16  17
ATOM     17  C   UNL d   1     -41.767-122.626 -50.523  0.00  0.00     0.040 C 
BRANCH  17  18
ATOM     18  C   UNL d   1     -42.267-122.982 -49.972  0.00  0.00     0.045 A 
ATOM     19  C   UNL d   1     -41.944-123.448 -49.368  0.00  0.00     0.060 A 
ATOM     20 CL   UNL d   1     -41.125-123.553 -49.323  0.00  0.00    -0.082 Cl
ATOM     21  C   UNL d   1     -42.431-123.810 -48.810  0.00  0.00     0.012 A 
ATOM     22  C   UNL d   1     -43.248-123.702 -48.858  0.00  0.00     0.003 A 
ATOM     23  C   UNL d   1     -43.585-123.241 -49.452  0.00  0.00     0.030 A 
ATOM     24  C   UNL d   1     -43.094-122.881 -50.009  0.00  0.00     0.141 A 
ATOM     25  F   UNL d   1     -43.416-122.422 -50.604  0.00  0.00    -0.204 F 
ENDBRANCH  17  18
ENDBRANCH  16  17
ENDBRANCH   7  16
TORSDOF 3
ENDMDL
