MODEL 1
REMARK VINA RESULT:      -4.6      0.000      0.000
REMARK  4 active torsions:
REMARK  status: ('A' for Active; 'I' for Inactive)
REMARK    1  A    between atoms: C_6  and  N_1 
REMARK    2  A    between atoms: C_11  and  C_6 
REMARK    3  A    between atoms: O_14  and  C_8 
REMARK    4  A    between atoms: O_15  and  C_9 
ROOT
ATOM      1  C   UNL d   1      56.666   0.387  31.397  0.00  0.00     0.084 C 
ENDROOT
BRANCH   1   2
ATOM      2  N   UNL d   1      56.442  -0.177  31.956  0.00  0.00    -0.268 N 
ATOM      3  C   UNL d   1      56.563  -0.994  31.895  0.00  0.00     0.296 A 
ATOM      4  S   UNL d   1      56.251  -1.346  32.580  0.00  0.00    -0.025 SA
ATOM      5  O   UNL d   1      56.928  -1.386  31.267  0.00  0.00    -0.259 OA
ATOM      6  C   UNL d   1      55.942  -0.746  33.056  0.00  0.00     0.050 A 
ATOM      7  C   UNL d   1      56.058  -0.024  32.674  0.00  0.00     0.073 A 
ATOM      8  C   UNL d   1      55.563  -0.754  33.797  0.00  0.00     0.008 A 
ATOM      9  C   UNL d   1      55.804   0.680  33.018  0.00  0.00     0.018 A 
ATOM     10  C   UNL d   1      55.430   0.667  33.752  0.00  0.00     0.002 A 
ATOM     11  C   UNL d   1      55.309  -0.054  34.143  0.00  0.00     0.001 A 
ENDBRANCH   1   2
BRANCH   1  12
ATOM     12  C   UNL d   1      57.463   0.461  31.180  0.00  0.00     0.020 A 
ATOM     13  C   UNL d   1      57.674   0.388  30.395  0.00  0.00     0.028 A 
ATOM     14  C   UNL d   1      58.462   0.461  30.177  0.00  0.00     0.116 A 
ATOM     15  C   UNL d   1      59.045   0.609  30.755  0.00  0.00     0.116 A 
ATOM     16  C   UNL d   1      58.820   0.682  31.547  0.00  0.00     0.026 A 
ATOM     17  C   UNL d   1      58.023   0.607  31.759  0.00  0.00     0.004 A 
BRANCH  14  18
ATOM     18  O   UNL d   1      58.681   0.387  29.386  0.00  0.00    -0.326 OA
ATOM     19  C   UNL d   1      58.129   0.538  28.782  0.00  0.00     0.181 C 
ENDBRANCH  14  18
BRANCH  15  20
ATOM     20  O   UNL d   1      59.826   0.677  30.505  0.00  0.00    -0.326 OA
ATOM     21  C   UNL d   1      60.442   0.547  31.031  0.00  0.00     0.181 C 
ENDBRANCH  15  20
ENDBRANCH   1  12
TORSDOF 4
ENDMDL
MODEL 2
REMARK VINA RESULT:      -3.3      1.491      2.061
REMARK  4 active torsions:
REMARK  status: ('A' for Active; 'I' for Inactive)
REMARK    1  A    between atoms: C_6  and  N_1 
REMARK    2  A    between atoms: C_11  and  C_6 
REMARK    3  A    between atoms: O_14  and  C_8 
REMARK    4  A    between atoms: O_15  and  C_9 
ROOT
ATOM      1  C   UNL d   1      57.697   0.677  30.807  0.00  0.00     0.084 C 
ENDROOT
BRANCH   1   2
ATOM      2  N   UNL d   1      57.745   0.672  31.631  0.00  0.00    -0.268 N 
ATOM      3  C   UNL d   1      58.443   0.673  32.076  0.00  0.00     0.296 A 
ATOM      4  S   UNL d   1      58.229   0.667  32.879  0.00  0.00    -0.025 SA
ATOM      5  O   UNL d   1      59.211   0.680  31.775  0.00  0.00    -0.259 OA
ATOM      6  C   UNL d   1      57.405   0.661  32.922  0.00  0.00     0.050 A 
ATOM      7  C   UNL d   1      57.103   0.664  32.155  0.00  0.00     0.073 A 
ATOM      8  C   UNL d   1      56.875   0.654  33.564  0.00  0.00     0.008 A 
ATOM      9  C   UNL d   1      56.289   0.660  32.021  0.00  0.00     0.018 A 
ATOM     10  C   UNL d   1      55.769   0.652  32.660  0.00  0.00     0.002 A 
ATOM     11  C   UNL d   1      56.063   0.649  33.435  0.00  0.00     0.001 A 
ENDBRANCH   1   2
BRANCH   1  12
ATOM     12  C   UNL d   1      58.018   0.049  30.370  0.00  0.00     0.020 A 
ATOM     13  C   UNL d   1      58.577   0.205  29.795  0.00  0.00     0.028 A 
ATOM     14  C   UNL d   1      58.896  -0.414  29.361  0.00  0.00     0.116 A 
ATOM     15  C   UNL d   1      58.652  -1.198  29.506  0.00  0.00     0.116 A 
ATOM     16  C   UNL d   1      58.086  -1.344  30.090  0.00  0.00     0.026 A 
ATOM     17  C   UNL d   1      57.768  -0.714  30.524  0.00  0.00     0.004 A 
BRANCH  14  18
ATOM     18  O   UNL d   1      59.460  -0.263  28.779  0.00  0.00    -0.326 OA
ATOM     19  C   UNL d   1      59.540   0.501  28.460  0.00  0.00     0.181 C 
ENDBRANCH  14  18
BRANCH  15  20
ATOM     20  O   UNL d   1      58.991  -1.797  29.054  0.00  0.00    -0.326 OA
ATOM     21  C   UNL d   1      58.814  -2.583  29.209  0.00  0.00     0.181 C 
ENDBRANCH  15  20
ENDBRANCH   1  12
TORSDOF 4
ENDMDL
MODEL 3
REMARK VINA RESULT:      -3.0      2.316      4.209
REMARK  4 active torsions:
REMARK  status: ('A' for Active; 'I' for Inactive)
REMARK    1  A    between atoms: C_6  and  N_1 
REMARK    2  A    between atoms: C_11  and  C_6 
REMARK    3  A    between atoms: O_14  and  C_8 
REMARK    4  A    between atoms: O_15  and  C_9 
ROOT
ATOM      1  C   UNL d   1      58.318  -0.153  29.630  0.00  0.00     0.084 C 
ENDROOT
BRANCH   1   2
ATOM      2  N   UNL d   1      59.040  -0.507  29.446  0.00  0.00    -0.268 N 
ATOM      3  C   UNL d   1      59.772  -0.122  29.404  0.00  0.00     0.296 A 
ATOM      4  S   UNL d   1      60.344  -0.690  29.202  0.00  0.00    -0.025 SA
ATOM      5  O   UNL d   1      59.907   0.681  29.538  0.00  0.00    -0.259 OA
ATOM      6  C   UNL d   1      59.962  -1.418  29.122  0.00  0.00     0.050 A 
ATOM      7  C   UNL d   1      59.158  -1.309  29.272  0.00  0.00     0.073 A 
ATOM      8  C   UNL d   1      60.237  -2.180  28.931  0.00  0.00     0.008 A 
ATOM      9  C   UNL d   1      58.632  -1.942  29.234  0.00  0.00     0.018 A 
ATOM     10  C   UNL d   1      58.909  -2.694  29.043  0.00  0.00     0.002 A 
ATOM     11  C   UNL d   1      59.716  -2.814  28.891  0.00  0.00     0.001 A 
ENDBRANCH   1   2
BRANCH   1  12
ATOM     12  C   UNL d   1      58.129   0.016  30.420  0.00  0.00     0.020 A 
ATOM     13  C   UNL d   1      57.447  -0.294  30.744  0.00  0.00     0.028 A 
ATOM     14  C   UNL d   1      57.257  -0.128  31.526  0.00  0.00     0.116 A 
ATOM     15  C   UNL d   1      57.759   0.353  31.987  0.00  0.00     0.116 A 
ATOM     16  C   UNL d   1      58.447   0.661  31.648  0.00  0.00     0.026 A 
ATOM     17  C   UNL d   1      58.631   0.490  30.859  0.00  0.00     0.004 A 
BRANCH  14  18
ATOM     18  O   UNL d   1      56.570  -0.438  31.859  0.00  0.00    -0.326 OA
ATOM     19  C   UNL d   1      56.528  -1.243  32.063  0.00  0.00     0.181 C 
ENDBRANCH  14  18
BRANCH  15  20
ATOM     20  O   UNL d   1      57.541   0.501  32.767  0.00  0.00    -0.326 OA
ATOM     21  C   UNL d   1      58.111   0.682  33.328  0.00  0.00     0.181 C 
ENDBRANCH  15  20
ENDBRANCH   1  12
TORSDOF 4
ENDMDL
MODEL 4
REMARK VINA RESULT:      -2.6      2.371      3.071
REMARK  4 active torsions:
REMARK  status: ('A' for Active; 'I' for Inactive)
REMARK    1  A    between atoms: C_6  and  N_1 
REMARK    2  A    between atoms: C_11  and  C_6 
REMARK    3  A    between atoms: O_14  and  C_8 
REMARK    4  A    between atoms: O_15  and  C_9 
ROOT
ATOM      1  C   UNL d   1      58.161  -0.534  29.663  0.00  0.00     0.084 C 
ENDROOT
BRANCH   1   2
ATOM      2  N   UNL d   1      58.188  -0.169  30.403  0.00  0.00    -0.268 N 
ATOM      3  C   UNL d   1      58.747   0.390  30.648  0.00  0.00     0.296 A 
ATOM      4  S   UNL d   1      58.562   0.605  31.430  0.00  0.00    -0.025 SA
ATOM      5  O   UNL d   1      59.374   0.681  30.197  0.00  0.00    -0.259 OA
ATOM      6  C   UNL d   1      57.893   0.178  31.659  0.00  0.00     0.050 A 
ATOM      7  C   UNL d   1      57.660  -0.300  31.028  0.00  0.00     0.073 A 
ATOM      8  C   UNL d   1      57.455   0.156  32.366  0.00  0.00     0.008 A 
ATOM      9  C   UNL d   1      57.003  -0.794  31.094  0.00  0.00     0.018 A 
ATOM     10  C   UNL d   1      56.573  -0.811  31.796  0.00  0.00     0.002 A 
ATOM     11  C   UNL d   1      56.799  -0.334  32.435  0.00  0.00     0.001 A 
ENDBRANCH   1   2
BRANCH   1  12
ATOM     12  C   UNL d   1      58.732  -1.100  29.460  0.00  0.00     0.020 A 
ATOM     13  C   UNL d   1      58.527  -1.891  29.452  0.00  0.00     0.028 A 
ATOM     14  C   UNL d   1      59.090  -2.453  29.251  0.00  0.00     0.116 A 
ATOM     15  C   UNL d   1      59.867  -2.220  29.057  0.00  0.00     0.116 A 
ATOM     16  C   UNL d   1      60.063  -1.417  29.068  0.00  0.00     0.026 A 
ATOM     17  C   UNL d   1      59.490  -0.854  29.272  0.00  0.00     0.004 A 
BRANCH  14  18
ATOM     18  O   UNL d   1      58.890  -3.253  29.240  0.00  0.00    -0.326 OA
ATOM     19  C   UNL d   1      58.310  -3.533  28.715  0.00  0.00     0.181 C 
ENDBRANCH  14  18
BRANCH  15  20
ATOM     20  O   UNL d   1      60.409  -2.808  28.860  0.00  0.00    -0.326 OA
ATOM     21  C   UNL d   1      61.102  -2.892  29.289  0.00  0.00     0.181 C 
ENDBRANCH  15  20
ENDBRANCH   1  12
TORSDOF 4
ENDMDL
