MODEL 1
REMARK VINA RESULT:      -2.3      0.000      0.000
REMARK  2 active torsions:
REMARK  status: ('A' for Active; 'I' for Inactive)
REMARK    1  A    between atoms: C_6  and  C_4 
REMARK    2  A    between atoms: C_7  and  C_6 
ROOT
ATOM      1  N   UNL d   1      28.370  16.901 -23.892  0.00  0.00    -0.163 NA
ATOM      2  C   UNL d   1      28.896  17.339 -24.346  0.00  0.00     0.288 A 
ATOM      3  C   UNL d   1      28.745  16.198 -23.677  0.00  0.00     0.313 A 
ATOM      4  C   UNL d   1      29.598  16.909 -24.413  0.00  0.00     0.098 A 
ATOM      5  S   UNL d   1      29.503  16.202 -23.998  0.00  0.00    -0.020 SA
ATOM      6  O   UNL d   1      28.755  18.076 -24.677  0.00  0.00    -0.265 OA
ATOM      7  O   UNL d   1      28.416  15.596 -23.219  0.00  0.00    -0.258 OA
ENDROOT
BRANCH   4   8
ATOM      8  C   UNL d   1      30.374  16.800 -24.681  0.00  0.00     0.075 C 
ATOM      9  C   UNL d   1      30.580  16.120 -25.097  0.00  0.00     0.007 C 
BRANCH   8  10
ATOM     10  C   UNL d   1      30.948  17.374 -24.532  0.00  0.00     0.211 C 
ATOM     11  O   UNL d   1      31.103  17.954 -25.097  0.00  0.00    -0.644 OA
ATOM     12  O   UNL d   1      31.367  17.372 -23.825  0.00  0.00    -0.644 OA
ENDBRANCH   8  10
ENDBRANCH   4   8
TORSDOF 2
ENDMDL
MODEL 2
REMARK VINA RESULT:      -2.3      0.899      1.720
REMARK  2 active torsions:
REMARK  status: ('A' for Active; 'I' for Inactive)
REMARK    1  A    between atoms: C_6  and  C_4 
REMARK    2  A    between atoms: C_7  and  C_6 
ROOT
ATOM      1  N   UNL d   1      28.597  16.888 -23.983  0.00  0.00    -0.163 NA
ATOM      2  C   UNL d   1      29.103  16.301 -23.709  0.00  0.00     0.288 A 
ATOM      3  C   UNL d   1      29.014  17.351 -24.524  0.00  0.00     0.313 A 
ATOM      4  C   UNL d   1      29.835  16.399 -24.079  0.00  0.00     0.098 A 
ATOM      5  S   UNL d   1      29.779  17.050 -24.584  0.00  0.00    -0.020 SA
ATOM      6  O   UNL d   1      28.920  15.717 -23.164  0.00  0.00    -0.265 OA
ATOM      7  O   UNL d   1      28.716  18.002 -24.933  0.00  0.00    -0.258 OA
ENDROOT
BRANCH   4   8
ATOM      8  C   UNL d   1      30.623  16.191 -24.223  0.00  0.00     0.075 C 
ATOM      9  C   UNL d   1      30.874  16.007 -24.985  0.00  0.00     0.007 C 
BRANCH   8  10
ATOM     10  C   UNL d   1      31.165  16.167 -23.600  0.00  0.00     0.211 C 
ATOM     11  O   UNL d   1      31.290  15.460 -23.193  0.00  0.00    -0.644 OA
ATOM     12  O   UNL d   1      31.581  16.841 -23.383  0.00  0.00    -0.644 OA
ENDBRANCH   8  10
ENDBRANCH   4   8
TORSDOF 2
ENDMDL
MODEL 3
REMARK VINA RESULT:      -2.3      1.375      2.536
REMARK  2 active torsions:
REMARK  status: ('A' for Active; 'I' for Inactive)
REMARK    1  A    between atoms: C_6  and  C_4 
REMARK    2  A    between atoms: C_7  and  C_6 
ROOT
ATOM      1  N   UNL d   1      31.098  15.937 -23.324  0.00  0.00    -0.163 NA
ATOM      2  C   UNL d   1      30.289  15.825 -23.239  0.00  0.00     0.288 A 
ATOM      3  C   UNL d   1      31.226  16.336 -24.035  0.00  0.00     0.313 A 
ATOM      4  C   UNL d   1      29.913  16.155 -23.896  0.00  0.00     0.098 A 
ATOM      5  S   UNL d   1      30.495  16.471 -24.389  0.00  0.00    -0.020 SA
ATOM      6  O   UNL d   1      29.913  15.453 -22.613  0.00  0.00    -0.265 OA
ATOM      7  O   UNL d   1      31.960  16.561 -24.337  0.00  0.00    -0.258 OA
ENDROOT
BRANCH   4   8
ATOM      8  C   UNL d   1      29.244  16.346 -24.346  0.00  0.00     0.075 C 
ATOM      9  C   UNL d   1      29.135  16.019 -25.093  0.00  0.00     0.007 C 
BRANCH   8  10
ATOM     10  C   UNL d   1      28.680  16.869 -24.045  0.00  0.00     0.211 C 
ATOM     11  O   UNL d   1      28.729  17.672 -24.226  0.00  0.00    -0.644 OA
ATOM     12  O   UNL d   1      28.070  16.596 -23.568  0.00  0.00    -0.644 OA
ENDBRANCH   8  10
ENDBRANCH   4   8
TORSDOF 2
ENDMDL
MODEL 4
REMARK VINA RESULT:      -2.2      5.978      6.735
REMARK  2 active torsions:
REMARK  status: ('A' for Active; 'I' for Inactive)
REMARK    1  A    between atoms: C_6  and  C_4 
REMARK    2  A    between atoms: C_7  and  C_6 
ROOT
ATOM      1  N   UNL d   1      33.241  20.956 -22.498  0.00  0.00    -0.163 NA
ATOM      2  C   UNL d   1      33.120  21.754 -22.341  0.00  0.00     0.288 A 
ATOM      3  C   UNL d   1      33.080  20.534 -21.808  0.00  0.00     0.313 A 
ATOM      4  C   UNL d   1      32.884  21.828 -21.552  0.00  0.00     0.098 A 
ATOM      5  S   UNL d   1      32.860  21.071 -21.223  0.00  0.00    -0.020 SA
ATOM      6  O   UNL d   1      33.215  22.373 -22.869  0.00  0.00    -0.265 OA
ATOM      7  O   UNL d   1      33.132  19.716 -21.720  0.00  0.00    -0.258 OA
ENDROOT
BRANCH   4   8
ATOM      8  C   UNL d   1      32.650  22.265 -20.890  0.00  0.00     0.075 C 
ATOM      9  C   UNL d   1      32.810  21.991 -20.130  0.00  0.00     0.007 C 
BRANCH   8  10
ATOM     10  C   UNL d   1      32.253  22.983 -20.986  0.00  0.00     0.211 C 
ATOM     11  O   UNL d   1      32.667  23.693 -20.916  0.00  0.00    -0.644 OA
ATOM     12  O   UNL d   1      31.448  22.995 -21.152  0.00  0.00    -0.644 OA
ENDBRANCH   8  10
ENDBRANCH   4   8
TORSDOF 2
ENDMDL
MODEL 5
REMARK VINA RESULT:      -2.1      1.841      2.336
REMARK  2 active torsions:
REMARK  status: ('A' for Active; 'I' for Inactive)
REMARK    1  A    between atoms: C_6  and  C_4 
REMARK    2  A    between atoms: C_7  and  C_6 
ROOT
ATOM      1  N   UNL d   1      30.630  16.614 -24.038  0.00  0.00    -0.163 NA
ATOM      2  C   UNL d   1      31.035  17.277 -24.309  0.00  0.00     0.288 A 
ATOM      3  C   UNL d   1      31.142  16.182 -23.557  0.00  0.00     0.313 A 
ATOM      4  C   UNL d   1      31.799  17.256 -23.996  0.00  0.00     0.098 A 
ATOM      5  S   UNL d   1      31.865  16.577 -23.530  0.00  0.00    -0.020 SA
ATOM      6  O   UNL d   1      30.739  17.859 -24.803  0.00  0.00    -0.265 OA
ATOM      7  O   UNL d   1      30.961  15.477 -23.171  0.00  0.00    -0.258 OA
ENDROOT
BRANCH   4   8
ATOM      8  C   UNL d   1      32.563  17.559 -23.892  0.00  0.00     0.075 C 
ATOM      9  C   UNL d   1      33.223  17.094 -24.058  0.00  0.00     0.007 C 
BRANCH   8  10
ATOM     10  C   UNL d   1      32.669  18.331 -23.620  0.00  0.00     0.211 C 
ATOM     11  O   UNL d   1      32.775  18.945 -24.160  0.00  0.00    -0.644 OA
ATOM     12  O   UNL d   1      32.669  18.493 -22.814  0.00  0.00    -0.644 OA
ENDBRANCH   8  10
ENDBRANCH   4   8
TORSDOF 2
ENDMDL
MODEL 6
REMARK VINA RESULT:      -2.1      1.904      2.809
REMARK  2 active torsions:
REMARK  status: ('A' for Active; 'I' for Inactive)
REMARK    1  A    between atoms: C_6  and  C_4 
REMARK    2  A    between atoms: C_7  and  C_6 
ROOT
ATOM      1  N   UNL d   1      31.768  18.081 -24.159  0.00  0.00    -0.163 NA
ATOM      2  C   UNL d   1      31.196  17.546 -24.408  0.00  0.00     0.288 A 
ATOM      3  C   UNL d   1      32.295  17.679 -23.668  0.00  0.00     0.313 A 
ATOM      4  C   UNL d   1      31.367  16.812 -24.071  0.00  0.00     0.098 A 
ATOM      5  S   UNL d   1      32.048  16.895 -23.612  0.00  0.00    -0.020 SA
ATOM      6  O   UNL d   1      30.563  17.707 -24.904  0.00  0.00    -0.265 OA
ATOM      7  O   UNL d   1      32.955  18.006 -23.296  0.00  0.00    -0.258 OA
ENDROOT
BRANCH   4   8
ATOM      8  C   UNL d   1      31.219  16.008 -23.940  0.00  0.00     0.075 C 
ATOM      9  C   UNL d   1      31.822  15.453 -24.024  0.00  0.00     0.007 C 
BRANCH   8  10
ATOM     10  C   UNL d   1      30.463  15.756 -23.722  0.00  0.00     0.211 C 
ATOM     11  O   UNL d   1      29.942  15.481 -24.299  0.00  0.00    -0.644 OA
ATOM     12  O   UNL d   1      30.227  15.777 -22.936  0.00  0.00    -0.644 OA
ENDBRANCH   8  10
ENDBRANCH   4   8
TORSDOF 2
ENDMDL
MODEL 7
REMARK VINA RESULT:      -2.0      6.317      7.204
REMARK  2 active torsions:
REMARK  status: ('A' for Active; 'I' for Inactive)
REMARK    1  A    between atoms: C_6  and  C_4 
REMARK    2  A    between atoms: C_7  and  C_6 
ROOT
ATOM      1  N   UNL d   1      33.100  23.702 -22.050  0.00  0.00    -0.163 NA
ATOM      2  C   UNL d   1      33.116  23.190 -21.407  0.00  0.00     0.288 A 
ATOM      3  C   UNL d   1      32.982  23.253 -22.731  0.00  0.00     0.313 A 
ATOM      4  C   UNL d   1      33.007  22.421 -21.690  0.00  0.00     0.098 A 
ATOM      5  S   UNL d   1      32.925  22.461 -22.511  0.00  0.00    -0.020 SA
ATOM      6  O   UNL d   1      33.220  23.398 -20.622  0.00  0.00    -0.265 OA
ATOM      7  O   UNL d   1      32.931  23.546 -23.500  0.00  0.00    -0.258 OA
ENDROOT
BRANCH   4   8
ATOM      8  C   UNL d   1      32.934  21.602 -21.592  0.00  0.00     0.075 C 
ATOM      9  C   UNL d   1      33.239  21.085 -22.156  0.00  0.00     0.007 C 
BRANCH   8  10
ATOM     10  C   UNL d   1      32.554  21.297 -20.925  0.00  0.00     0.211 C 
ATOM     11  O   UNL d   1      33.000  21.042 -20.280  0.00  0.00    -0.644 OA
ATOM     12  O   UNL d   1      31.735  21.246 -20.899  0.00  0.00    -0.644 OA
ENDBRANCH   8  10
ENDBRANCH   4   8
TORSDOF 2
ENDMDL
MODEL 8
REMARK VINA RESULT:      -2.0      2.512      3.569
REMARK  2 active torsions:
REMARK  status: ('A' for Active; 'I' for Inactive)
REMARK    1  A    between atoms: C_6  and  C_4 
REMARK    2  A    between atoms: C_7  and  C_6 
ROOT
ATOM      1  N   UNL d   1      33.241  17.617 -22.943  0.00  0.00    -0.163 NA
ATOM      2  C   UNL d   1      32.922  16.914 -23.226  0.00  0.00     0.288 A 
ATOM      3  C   UNL d   1      32.736  18.232 -23.162  0.00  0.00     0.313 A 
ATOM      4  C   UNL d   1      32.219  17.092 -23.622  0.00  0.00     0.098 A 
ATOM      5  S   UNL d   1      32.105  17.909 -23.582  0.00  0.00    -0.020 SA
ATOM      6  O   UNL d   1      33.241  16.165 -23.136  0.00  0.00    -0.265 OA
ATOM      7  O   UNL d   1      32.846  19.031 -22.991  0.00  0.00    -0.258 OA
ENDROOT
BRANCH   4   8
ATOM      8  C   UNL d   1      31.542  16.887 -24.053  0.00  0.00     0.075 C 
ATOM      9  C   UNL d   1      31.281  17.363 -24.672  0.00  0.00     0.007 C 
BRANCH   8  10
ATOM     10  C   UNL d   1      31.123  16.201 -23.864  0.00  0.00     0.211 C 
ATOM     11  O   UNL d   1      31.236  15.517 -24.310  0.00  0.00    -0.644 OA
ATOM     12  O   UNL d   1      30.595  16.195 -23.235  0.00  0.00    -0.644 OA
ENDBRANCH   8  10
ENDBRANCH   4   8
TORSDOF 2
ENDMDL
