MODEL 1
REMARK VINA RESULT:      54.9      0.000      0.000
REMARK  5 active torsions:
REMARK  status: ('A' for Active; 'I' for Inactive)
REMARK    1  A    between atoms: S_3  and  N_1 
REMARK    2  A    between atoms: C_7  and  C_4 
REMARK    3  A    between atoms: C_8  and  C_5 
REMARK    4  A    between atoms: O_21  and  C_13 
REMARK    5  A    between atoms: O_22  and  C_15 
ROOT
ATOM      1  N   UNL d   1      59.592  49.469  49.909  0.00  0.00    -0.155 N 
ATOM      2  N   UNL d   1      58.861  49.535  49.559  0.00  0.00    -0.155 NA
ATOM      3  C   UNL d   1      58.287  49.490  50.147  0.00  0.00     0.110 A 
ATOM      4  C   UNL d   1      59.471  49.383  50.720  0.00  0.00     0.096 A 
ATOM      5  C   UNL d   1      58.668  49.396  50.860  0.00  0.00     0.041 A 
ENDROOT
BRANCH   4   6
ATOM      6  C   UNL d   1      60.060  49.298  51.287  0.00  0.00     0.021 A 
ATOM      7  C   UNL d   1      59.875  49.378  52.087  0.00  0.00     0.028 A 
ATOM      8  C   UNL d   1      60.468  49.292  52.659  0.00  0.00     0.116 A 
ATOM      9  C   UNL d   1      61.240  49.128  52.427  0.00  0.00     0.116 A 
ATOM     10  C   UNL d   1      61.425  49.049  51.627  0.00  0.00     0.026 A 
ATOM     11  C   UNL d   1      60.837  49.133  51.060  0.00  0.00     0.004 A 
BRANCH   8  12
ATOM     12  O   UNL d   1      60.283  49.372  53.459  0.00  0.00    -0.326 OA
ATOM     13  C   UNL d   1      59.564  49.702  53.685  0.00  0.00     0.181 C 
ENDBRANCH   8  12
BRANCH   9  14
ATOM     14  O   UNL d   1      61.833  49.043  52.999  0.00  0.00    -0.326 OA
ATOM     15  C   UNL d   1      62.472  49.567  53.015  0.00  0.00     0.181 C 
ENDBRANCH   9  14
ENDBRANCH   4   6
BRANCH   1  16
ATOM     16  S   UNL d   1      60.312  49.485  49.527  0.00  0.00     0.266 S 
ATOM     17  O   UNL d   1      61.048  49.498  49.118  0.00  0.00    -0.203 OA
ATOM     18  O   UNL d   1      60.683  49.707  50.225  0.00  0.00    -0.203 OA
ATOM     19  C   UNL d   1      59.949  49.266  48.831  0.00  0.00     0.165 C 
ENDBRANCH   1  16
BRANCH   3  20
ATOM     20  C   UNL d   1      57.467  49.533  50.024  0.00  0.00     0.049 A 
ATOM     21  S   UNL d   1      57.100  49.685  49.304  0.00  0.00    -0.085 SA
ATOM     22  C   UNL d   1      56.266  49.682  49.413  0.00  0.00     0.035 A 
ATOM     23  C   UNL d   1      56.137  49.526  50.215  0.00  0.00     0.007 A 
ATOM     24  C   UNL d   1      56.883  49.436  50.582  0.00  0.00     0.009 A 
ENDBRANCH   3  20
TORSDOF 5
ENDMDL
