MODEL 1
REMARK VINA RESULT:      17.2      0.000      0.000
REMARK  4 active torsions:
REMARK  status: ('A' for Active; 'I' for Inactive)
REMARK    1  A    between atoms: C_6  and  C_1 
REMARK    2  A    between atoms: C_7  and  C_2 
REMARK    3  A    between atoms: O_10  and  C_6 
REMARK    4  A    between atoms: C_13  and  O_10 
ROOT
ATOM      1  C   UNL d   1      44.935 -14.537  44.660  0.00  0.00     0.113 A 
ATOM      2  C   UNL d   1      44.727 -13.727  44.534  0.00  0.00     0.095 A 
ATOM      3  N   UNL d   1      43.892 -13.660  44.632  0.00  0.00    -0.219 NA
ATOM      4  S   UNL d   1      44.248 -14.960  44.831  0.00  0.00    -0.040 SA
ATOM      5  C   UNL d   1      43.626 -14.409  44.809  0.00  0.00     0.215 A 
ATOM      6  N   UNL d   1      42.840 -14.626  44.955  0.00  0.00    -0.120 N 
ENDROOT
BRANCH   2   7
ATOM      7  C   UNL d   1      45.311 -13.180  44.353  0.00  0.00     0.018 A 
ATOM      8  C   UNL d   1      45.869 -12.974  44.933  0.00  0.00     0.002 A 
ATOM      9  C   UNL d   1      46.461 -12.417  44.742  0.00  0.00     0.000 A 
ATOM     10  C   UNL d   1      46.496 -12.080  44.006  0.00  0.00     0.000 A 
ATOM     11  C   UNL d   1      45.925 -12.293  43.418  0.00  0.00     0.000 A 
ATOM     12  C   UNL d   1      45.341 -12.844  43.611  0.00  0.00     0.002 A 
ENDBRANCH   2   7
BRANCH   1  13
ATOM     13  C   UNL d   1      45.665 -14.862  44.625  0.00  0.00     0.308 C 
ATOM     14  O   UNL d   1      46.303 -14.474  44.954  0.00  0.00    -0.258 OA
BRANCH  13  15
ATOM     15  O   UNL d   1      45.773 -15.562  44.270  0.00  0.00    -0.271 OA
BRANCH  15  16
ATOM     16  C   UNL d   1      46.203 -16.172  44.624  0.00  0.00     0.126 C 
ATOM     17  C   UNL d   1      46.247 -16.924  44.317  0.00  0.00     0.029 C 
ENDBRANCH  15  16
ENDBRANCH  13  15
ENDBRANCH   1  13
TORSDOF 4
ENDMDL
MODEL 2
REMARK VINA RESULT:      18.0      7.260      7.672
REMARK  4 active torsions:
REMARK  status: ('A' for Active; 'I' for Inactive)
REMARK    1  A    between atoms: C_6  and  C_1 
REMARK    2  A    between atoms: C_7  and  C_2 
REMARK    3  A    between atoms: O_10  and  C_6 
REMARK    4  A    between atoms: C_13  and  O_10 
ROOT
ATOM      1  C   UNL d   1      44.004 -15.953  36.917  0.00  0.00     0.113 A 
ATOM      2  C   UNL d   1      44.215 -15.153  36.739  0.00  0.00     0.095 A 
ATOM      3  N   UNL d   1      43.515 -14.754  36.490  0.00  0.00    -0.219 NA
ATOM      4  S   UNL d   1      43.196 -16.046  36.782  0.00  0.00    -0.040 SA
ATOM      5  C   UNL d   1      42.918 -15.306  36.524  0.00  0.00     0.215 A 
ATOM      6  N   UNL d   1      42.123 -15.178  36.330  0.00  0.00    -0.120 N 
ENDROOT
BRANCH   2   7
ATOM      7  C   UNL d   1      44.994 -14.909  36.827  0.00  0.00     0.018 A 
ATOM      8  C   UNL d   1      45.184 -14.365  37.425  0.00  0.00     0.002 A 
ATOM      9  C   UNL d   1      45.978 -14.121  37.508  0.00  0.00     0.000 A 
ATOM     10  C   UNL d   1      46.557 -14.406  37.018  0.00  0.00     0.000 A 
ATOM     11  C   UNL d   1      46.358 -14.959  36.410  0.00  0.00     0.000 A 
ATOM     12  C   UNL d   1      45.571 -15.199  36.330  0.00  0.00     0.002 A 
ENDBRANCH   2   7
BRANCH   1  13
ATOM     13  C   UNL d   1      44.486 -16.537  37.174  0.00  0.00     0.308 C 
ATOM     14  O   UNL d   1      44.730 -17.123  36.661  0.00  0.00    -0.258 OA
BRANCH  13  15
ATOM     15  O   UNL d   1      44.731 -16.549  37.927  0.00  0.00    -0.271 OA
BRANCH  15  16
ATOM     16  C   UNL d   1      44.923 -17.253  38.315  0.00  0.00     0.126 C 
ATOM     17  C   UNL d   1      45.178 -17.282  39.086  0.00  0.00     0.029 C 
ENDBRANCH  15  16
ENDBRANCH  13  15
ENDBRANCH   1  13
TORSDOF 4
ENDMDL
MODEL 3
REMARK VINA RESULT:      18.6      7.279      7.865
REMARK  4 active torsions:
REMARK  status: ('A' for Active; 'I' for Inactive)
REMARK    1  A    between atoms: C_6  and  C_1 
REMARK    2  A    between atoms: C_7  and  C_2 
REMARK    3  A    between atoms: O_10  and  C_6 
REMARK    4  A    between atoms: C_13  and  O_10 
ROOT
ATOM      1  C   UNL d   1      45.068 -15.773  37.186  0.00  0.00     0.113 A 
ATOM      2  C   UNL d   1      44.565 -15.160  36.892  0.00  0.00     0.095 A 
ATOM      3  N   UNL d   1      45.057 -14.525  36.637  0.00  0.00    -0.219 NA
ATOM      4  S   UNL d   1      45.851 -15.524  37.115  0.00  0.00    -0.040 SA
ATOM      5  C   UNL d   1      45.822 -14.763  36.779  0.00  0.00     0.215 A 
ATOM      6  N   UNL d   1      46.508 -14.326  36.621  0.00  0.00    -0.120 N 
ENDROOT
BRANCH   2   7
ATOM      7  C   UNL d   1      43.750 -15.264  36.899  0.00  0.00     0.018 A 
ATOM      8  C   UNL d   1      43.297 -14.888  37.485  0.00  0.00     0.002 A 
ATOM      9  C   UNL d   1      42.469 -14.999  37.485  0.00  0.00     0.000 A 
ATOM     10  C   UNL d   1      42.110 -15.464  36.927  0.00  0.00     0.000 A 
ATOM     11  C   UNL d   1      42.576 -15.845  36.332  0.00  0.00     0.000 A 
ATOM     12  C   UNL d   1      43.394 -15.733  36.335  0.00  0.00     0.002 A 
ENDBRANCH   2   7
BRANCH   1  13
ATOM     13  C   UNL d   1      44.848 -16.480  37.487  0.00  0.00     0.308 C 
ATOM     14  O   UNL d   1      44.651 -17.095  36.987  0.00  0.00    -0.258 OA
BRANCH  13  15
ATOM     15  O   UNL d   1      44.818 -16.588  38.271  0.00  0.00    -0.271 OA
BRANCH  15  16
ATOM     16  C   UNL d   1      45.025 -17.306  38.623  0.00  0.00     0.126 C 
ATOM     17  C   UNL d   1      45.032 -17.423  39.428  0.00  0.00     0.029 C 
ENDBRANCH  15  16
ENDBRANCH  13  15
ENDBRANCH   1  13
TORSDOF 4
ENDMDL
