MODEL 1
REMARK VINA RESULT:      -5.7      0.000      0.000
REMARK  8 active torsions:
REMARK  status: ('A' for Active; 'I' for Inactive)
REMARK    1  A    between atoms: N_4  and  C_1 
REMARK    2  A    between atoms: C_2  and  O_12 
REMARK    3  A    between atoms: C_8  and  C_2 
REMARK       I    between atoms: C_10  and  N_4 
REMARK    4  A    between atoms: O_12  and  C_5 
REMARK    5  A    between atoms: S_20  and  C_6 
REMARK    6  A    between atoms: C_14  and  C_10 
REMARK    7  A    between atoms: C_16  and  C_26 
REMARK    8  A    between atoms: C_26  and  S_20 
ROOT
ATOM      1  C   UNL d   1     -41.008  14.339  19.716  0.00  0.00     0.167 A 
ATOM      2  C   UNL d   1     -40.943  14.572  20.501  0.00  0.00     0.222 A 
ATOM      3  C   UNL d   1     -41.372  14.147  21.071  0.00  0.00     0.069 A 
ATOM      4  C   UNL d   1     -41.483  13.702  19.499  0.00  0.00     0.151 A 
ATOM      5  C   UNL d   1     -41.847  13.511  20.853  0.00  0.00     0.110 A 
ATOM      6  O   UNL d   1     -41.899  13.292  20.063  0.00  0.00    -0.302 OA
ATOM      7  O   UNL d   1     -40.473  15.203  20.717  0.00  0.00    -0.284 OA
ENDROOT
BRANCH   5   8
ATOM      8  C   UNL d   1     -42.268  13.096  21.425  0.00  0.00     0.062 C 
BRANCH   8   9
ATOM      9  S   UNL d   1     -43.088  13.034  21.363  0.00  0.00    -0.057 SA
BRANCH   9  10
ATOM     10  C   UNL d   1     -43.927  12.961  21.792  0.00  0.00     0.166 A 
ATOM     11  S   UNL d   1     -44.651  13.329  21.927  0.00  0.00    -0.006 SA
ATOM     12  C   UNL d   1     -45.107  12.835  22.407  0.00  0.00     0.269 A 
ATOM     13  N   UNL d   1     -44.658  12.158  22.569  0.00  0.00    -0.107 NA
ATOM     14  N   UNL d   1     -43.930  12.235  22.189  0.00  0.00    -0.132 NA
BRANCH  12  15
ATOM     15  N   UNL d   1     -45.834  12.758  22.787  0.00  0.00    -0.337 NA
ATOM     16  C   UNL d   1     -46.562  12.681  23.166  0.00  0.00     0.330 C 
ATOM     17  O   UNL d   1     -46.339  13.274  23.695  0.00  0.00    -0.251 OA
BRANCH  16  18
ATOM     18  C   UNL d   1     -47.232  12.208  23.061  0.00  0.00     0.070 A 
ATOM     19  C   UNL d   1     -47.603  11.474  23.129  0.00  0.00     0.006 A 
ATOM     20  C   UNL d   1     -48.021  12.128  22.809  0.00  0.00     0.006 A 
ENDBRANCH  16  18
ENDBRANCH  12  15
ENDBRANCH   9  10
ENDBRANCH   8   9
ENDBRANCH   5   8
BRANCH   1  21
ATOM     21  O   UNL d   1     -40.584  14.756  19.137  0.00  0.00    -0.268 OA
BRANCH  21  22
ATOM     22  C   UNL d   1     -40.582  14.485  18.354  0.00  0.00     0.305 C 
ATOM     23  O   UNL d   1     -40.950  13.773  18.159  0.00  0.00    -0.259 OA
BRANCH  22  24
ATOM     24  C   UNL d   1     -40.205  14.935  17.759  0.00  0.00     0.118 A 
ATOM     25  C   UNL d   1     -39.387  14.869  17.630  0.00  0.00     0.147 A 
ATOM     26  F   UNL d   1     -38.938  14.344  18.102  0.00  0.00    -0.204 F 
ATOM     27  C   UNL d   1     -39.010  15.303  17.053  0.00  0.00     0.030 A 
ATOM     28  C   UNL d   1     -39.452  15.820  16.588  0.00  0.00     0.005 A 
ATOM     29  C   UNL d   1     -40.274  15.905  16.697  0.00  0.00     0.030 A 
ATOM     30  C   UNL d   1     -40.648  15.453  17.293  0.00  0.00     0.147 A 
ATOM     31  F   UNL d   1     -41.469  15.521  17.421  0.00  0.00    -0.204 F 
ENDBRANCH  22  24
ENDBRANCH  21  22
ENDBRANCH   1  21
TORSDOF 8
ENDMDL
MODEL 2
REMARK VINA RESULT:      -5.7      3.401      7.919
REMARK  8 active torsions:
REMARK  status: ('A' for Active; 'I' for Inactive)
REMARK    1  A    between atoms: N_4  and  C_1 
REMARK    2  A    between atoms: C_2  and  O_12 
REMARK    3  A    between atoms: C_8  and  C_2 
REMARK       I    between atoms: C_10  and  N_4 
REMARK    4  A    between atoms: O_12  and  C_5 
REMARK    5  A    between atoms: S_20  and  C_6 
REMARK    6  A    between atoms: C_14  and  C_10 
REMARK    7  A    between atoms: C_16  and  C_26 
REMARK    8  A    between atoms: C_26  and  S_20 
ROOT
ATOM      1  C   UNL d   1     -47.814  13.237  22.954  0.00  0.00     0.167 A 
ATOM      2  C   UNL d   1     -47.611  12.515  23.289  0.00  0.00     0.222 A 
ATOM      3  C   UNL d   1     -46.814  12.283  23.262  0.00  0.00     0.069 A 
ATOM      4  C   UNL d   1     -47.246  13.718  22.601  0.00  0.00     0.151 A 
ATOM      5  C   UNL d   1     -46.246  12.764  22.909  0.00  0.00     0.110 A 
ATOM      6  O   UNL d   1     -46.468  13.483  22.579  0.00  0.00    -0.302 OA
ATOM      7  O   UNL d   1     -48.173  12.038  23.639  0.00  0.00    -0.284 OA
ENDROOT
BRANCH   5   8
ATOM      8  C   UNL d   1     -45.460  12.526  22.888  0.00  0.00     0.062 C 
BRANCH   8   9
ATOM      9  S   UNL d   1     -45.009  12.669  22.212  0.00  0.00    -0.057 SA
BRANCH   9  10
ATOM     10  C   UNL d   1     -44.188  12.943  21.832  0.00  0.00     0.166 A 
ATOM     11  S   UNL d   1     -43.775  13.573  21.498  0.00  0.00    -0.006 SA
ATOM     12  C   UNL d   1     -43.018  13.309  21.298  0.00  0.00     0.269 A 
ATOM     13  N   UNL d   1     -42.966  12.511  21.512  0.00  0.00    -0.107 NA
ATOM     14  N   UNL d   1     -43.688  12.285  21.842  0.00  0.00    -0.132 NA
BRANCH  12  15
ATOM     15  N   UNL d   1     -42.297  13.535  20.969  0.00  0.00    -0.337 NA
ATOM     16  C   UNL d   1     -41.575  13.760  20.640  0.00  0.00     0.330 C 
ATOM     17  O   UNL d   1     -41.739  13.290  19.982  0.00  0.00    -0.251 OA
BRANCH  16  18
ATOM     18  C   UNL d   1     -40.952  14.251  20.872  0.00  0.00     0.070 A 
ATOM     19  C   UNL d   1     -40.179  14.337  21.146  0.00  0.00     0.006 A 
ATOM     20  C   UNL d   1     -40.651  15.016  20.999  0.00  0.00     0.006 A 
ENDBRANCH  16  18
ENDBRANCH  12  15
ENDBRANCH   9  10
ENDBRANCH   8   9
ENDBRANCH   5   8
BRANCH   1  21
ATOM     21  O   UNL d   1     -48.607  13.480  22.974  0.00  0.00    -0.268 OA
BRANCH  21  22
ATOM     22  C   UNL d   1     -48.863  14.093  22.479  0.00  0.00     0.305 C 
ATOM     23  O   UNL d   1     -48.389  14.348  21.854  0.00  0.00    -0.259 OA
BRANCH  22  24
ATOM     24  C   UNL d   1     -49.605  14.454  22.612  0.00  0.00     0.118 A 
ATOM     25  C   UNL d   1     -49.671  15.116  23.110  0.00  0.00     0.147 A 
ATOM     26  F   UNL d   1     -48.987  15.423  23.479  0.00  0.00    -0.204 F 
ATOM     27  C   UNL d   1     -50.390  15.476  23.247  0.00  0.00     0.030 A 
ATOM     28  C   UNL d   1     -51.064  15.173  22.883  0.00  0.00     0.005 A 
ATOM     29  C   UNL d   1     -51.025  14.510  22.380  0.00  0.00     0.030 A 
ATOM     30  C   UNL d   1     -50.280  14.151  22.248  0.00  0.00     0.147 A 
ATOM     31  F   UNL d   1     -50.217  13.486  21.749  0.00  0.00    -0.204 F 
ENDBRANCH  22  24
ENDBRANCH  21  22
ENDBRANCH   1  21
TORSDOF 8
ENDMDL
MODEL 3
REMARK VINA RESULT:      -4.5      2.924      7.511
REMARK  8 active torsions:
REMARK  status: ('A' for Active; 'I' for Inactive)
REMARK    1  A    between atoms: N_4  and  C_1 
REMARK    2  A    between atoms: C_2  and  O_12 
REMARK    3  A    between atoms: C_8  and  C_2 
REMARK       I    between atoms: C_10  and  N_4 
REMARK    4  A    between atoms: O_12  and  C_5 
REMARK    5  A    between atoms: S_20  and  C_6 
REMARK    6  A    between atoms: C_14  and  C_10 
REMARK    7  A    between atoms: C_16  and  C_26 
REMARK    8  A    between atoms: C_26  and  S_20 
ROOT
ATOM      1  C   UNL d   1     -45.964  12.861  22.561  0.00  0.00     0.167 A 
ATOM      2  C   UNL d   1     -45.465  12.316  22.920  0.00  0.00     0.222 A 
ATOM      3  C   UNL d   1     -44.704  12.216  22.603  0.00  0.00     0.069 A 
ATOM      4  C   UNL d   1     -45.718  13.298  21.907  0.00  0.00     0.151 A 
ATOM      5  C   UNL d   1     -44.459  12.652  21.949  0.00  0.00     0.110 A 
ATOM      6  O   UNL d   1     -44.972  13.194  21.604  0.00  0.00    -0.302 OA
ATOM      7  O   UNL d   1     -45.708  11.883  23.567  0.00  0.00    -0.284 OA
ENDROOT
BRANCH   5   8
ATOM      8  C   UNL d   1     -43.704  12.547  21.642  0.00  0.00     0.062 C 
BRANCH   8   9
ATOM      9  S   UNL d   1     -43.237  13.205  21.473  0.00  0.00    -0.057 SA
BRANCH   9  10
ATOM     10  C   UNL d   1     -42.417  13.553  21.158  0.00  0.00     0.166 A 
ATOM     11  S   UNL d   1     -41.722  13.382  20.749  0.00  0.00    -0.006 SA
ATOM     12  C   UNL d   1     -41.262  14.068  20.721  0.00  0.00     0.269 A 
ATOM     13  N   UNL d   1     -41.678  14.665  21.116  0.00  0.00    -0.107 NA
ATOM     14  N   UNL d   1     -42.390  14.348  21.386  0.00  0.00    -0.132 NA
BRANCH  12  15
ATOM     15  N   UNL d   1     -40.551  14.385  20.452  0.00  0.00    -0.337 NA
ATOM     16  C   UNL d   1     -39.839  14.702  20.182  0.00  0.00     0.330 C 
ATOM     17  O   UNL d   1     -39.449  14.338  20.811  0.00  0.00    -0.251 OA
BRANCH  16  18
ATOM     18  C   UNL d   1     -39.613  15.183  19.549  0.00  0.00     0.070 A 
ATOM     19  C   UNL d   1     -39.476  15.276  18.741  0.00  0.00     0.006 A 
ATOM     20  C   UNL d   1     -39.359  15.922  19.265  0.00  0.00     0.006 A 
ENDBRANCH  16  18
ENDBRANCH  12  15
ENDBRANCH   9  10
ENDBRANCH   8   9
ENDBRANCH   5   8
BRANCH   1  21
ATOM     21  O   UNL d   1     -46.727  12.971  22.868  0.00  0.00    -0.268 OA
BRANCH  21  22
ATOM     22  C   UNL d   1     -47.352  13.164  22.360  0.00  0.00     0.305 C 
ATOM     23  O   UNL d   1     -47.228  13.205  21.546  0.00  0.00    -0.259 OA
BRANCH  22  24
ATOM     24  C   UNL d   1     -48.111  13.319  22.674  0.00  0.00     0.118 A 
ATOM     25  C   UNL d   1     -48.312  14.078  22.945  0.00  0.00     0.147 A 
ATOM     26  F   UNL d   1     -47.746  14.692  22.903  0.00  0.00    -0.204 F 
ATOM     27  C   UNL d   1     -49.049  14.239  23.253  0.00  0.00     0.030 A 
ATOM     28  C   UNL d   1     -49.606  13.634  23.295  0.00  0.00     0.005 A 
ATOM     29  C   UNL d   1     -49.430  12.864  23.029  0.00  0.00     0.030 A 
ATOM     30  C   UNL d   1     -48.669  12.713  22.716  0.00  0.00     0.147 A 
ATOM     31  F   UNL d   1     -48.470  11.950  22.444  0.00  0.00    -0.204 F 
ENDBRANCH  22  24
ENDBRANCH  21  22
ENDBRANCH   1  21
TORSDOF 8
ENDMDL
MODEL 4
REMARK VINA RESULT:      -4.0      2.032      3.120
REMARK  8 active torsions:
REMARK  status: ('A' for Active; 'I' for Inactive)
REMARK    1  A    between atoms: N_4  and  C_1 
REMARK    2  A    between atoms: C_2  and  O_12 
REMARK    3  A    between atoms: C_8  and  C_2 
REMARK       I    between atoms: C_10  and  N_4 
REMARK    4  A    between atoms: O_12  and  C_5 
REMARK    5  A    between atoms: S_20  and  C_6 
REMARK    6  A    between atoms: C_14  and  C_10 
REMARK    7  A    between atoms: C_16  and  C_26 
REMARK    8  A    between atoms: C_26  and  S_20 
ROOT
ATOM      1  C   UNL d   1     -42.540  13.192  21.416  0.00  0.00     0.167 A 
ATOM      2  C   UNL d   1     -42.697  12.490  21.813  0.00  0.00     0.222 A 
ATOM      3  C   UNL d   1     -43.489  12.304  21.977  0.00  0.00     0.069 A 
ATOM      4  C   UNL d   1     -43.149  13.697  21.186  0.00  0.00     0.151 A 
ATOM      5  C   UNL d   1     -44.098  12.809  21.747  0.00  0.00     0.110 A 
ATOM      6  O   UNL d   1     -43.921  13.507  21.351  0.00  0.00    -0.302 OA
ATOM      7  O   UNL d   1     -42.095  11.989  22.041  0.00  0.00    -0.284 OA
ENDROOT
BRANCH   5   8
ATOM      8  C   UNL d   1     -44.879  12.616  21.914  0.00  0.00     0.062 C 
BRANCH   8   9
ATOM      9  S   UNL d   1     -45.391  13.197  22.198  0.00  0.00    -0.057 SA
BRANCH   9  10
ATOM     10  C   UNL d   1     -46.270  13.456  22.428  0.00  0.00     0.166 A 
ATOM     11  S   UNL d   1     -47.054  13.484  22.175  0.00  0.00    -0.006 SA
ATOM     12  C   UNL d   1     -47.506  13.830  22.774  0.00  0.00     0.269 A 
ATOM     13  N   UNL d   1     -46.996  14.016  23.399  0.00  0.00    -0.107 NA
ATOM     14  N   UNL d   1     -46.233  13.785  23.185  0.00  0.00    -0.132 NA
BRANCH  12  15
ATOM     15  N   UNL d   1     -48.268  14.061  22.987  0.00  0.00    -0.337 NA
ATOM     16  C   UNL d   1     -49.031  14.292  23.200  0.00  0.00     0.330 C 
ATOM     17  O   UNL d   1     -49.164  13.538  23.505  0.00  0.00    -0.251 OA
BRANCH  16  18
ATOM     18  C   UNL d   1     -49.473  14.988  23.135  0.00  0.00     0.070 A 
ATOM     19  C   UNL d   1     -49.910  15.511  22.672  0.00  0.00     0.006 A 
ATOM     20  C   UNL d   1     -49.800  15.665  23.490  0.00  0.00     0.006 A 
ENDBRANCH  16  18
ENDBRANCH  12  15
ENDBRANCH   9  10
ENDBRANCH   8   9
ENDBRANCH   5   8
BRANCH   1  21
ATOM     21  O   UNL d   1     -41.752  13.390  21.246  0.00  0.00    -0.268 OA
BRANCH  21  22
ATOM     22  C   UNL d   1     -41.568  14.149  20.971  0.00  0.00     0.305 C 
ATOM     23  O   UNL d   1     -42.134  14.749  20.996  0.00  0.00    -0.259 OA
BRANCH  22  24
ATOM     24  C   UNL d   1     -40.806  14.308  20.667  0.00  0.00     0.118 A 
ATOM     25  C   UNL d   1     -40.189  14.545  21.170  0.00  0.00     0.147 A 
ATOM     26  F   UNL d   1     -40.335  14.625  21.990  0.00  0.00    -0.204 F 
ATOM     27  C   UNL d   1     -39.442  14.703  20.884  0.00  0.00     0.030 A 
ATOM     28  C   UNL d   1     -39.298  14.625  20.077  0.00  0.00     0.005 A 
ATOM     29  C   UNL d   1     -39.900  14.388  19.550  0.00  0.00     0.030 A 
ATOM     30  C   UNL d   1     -40.662  14.230  19.859  0.00  0.00     0.147 A 
ATOM     31  F   UNL d   1     -41.279  13.992  19.351  0.00  0.00    -0.204 F 
ENDBRANCH  22  24
ENDBRANCH  21  22
ENDBRANCH   1  21
TORSDOF 8
ENDMDL
