MODEL 1
REMARK VINA RESULT:      75.3      0.000      0.000
REMARK  6 active torsions:
REMARK  status: ('A' for Active; 'I' for Inactive)
REMARK    1  A    between atoms: C_2  and  C_1 
REMARK       I    between atoms: N_3  and  C_2 
REMARK    2  A    between atoms: C_24  and  N_3 
REMARK    3  A    between atoms: C_4  and  C_10 
REMARK    4  A    between atoms: C_9  and  C_4 
REMARK    5  A    between atoms: C_8  and  C_9 
REMARK    6  A    between atoms: C_10  and  C_15 
ROOT
ATOM      1  C   UNL d   1     -47.999  29.328  35.317  0.00  0.00     0.039 A 
ATOM      2  C   UNL d   1     -47.061  30.690  35.442  0.00  0.00     0.084 A 
ATOM      3  C   UNL d   1     -48.111  29.873  35.976  0.00  0.00     0.005 A 
ATOM      4  C   UNL d   1     -47.430  29.489  34.761  0.00  0.00     0.005 A 
ATOM      5  C   UNL d   1     -47.648  30.531  36.024  0.00  0.00     0.019 A 
ATOM      6  C   UNL d   1     -46.970  30.149  34.814  0.00  0.00     0.019 A 
ENDROOT
BRANCH   2   7
ATOM      7  N   UNL d   1     -46.598  31.348  35.489  0.00  0.00    -0.212 NA
ATOM      8  C   UNL d   1     -46.809  32.040  35.126  0.00  0.00     0.259 C 
ATOM      9  O   UNL d   1     -46.338  32.726  35.167  0.00  0.00    -0.270 OA
BRANCH   8  10
ATOM     10  C   UNL d   1     -47.513  32.079  34.695  0.00  0.00     0.092 A 
ATOM     11  C   UNL d   1     -48.336  32.042  34.689  0.00  0.00     0.017 A 
ATOM     12  C   UNL d   1     -48.705  32.139  34.002  0.00  0.00     0.023 A 
ATOM     13  C   UNL d   1     -48.754  32.006  34.792  0.00  0.00    -0.027 A 
ATOM     14  C   UNL d   1     -48.277  32.274  33.307  0.00  0.00     0.009 A 
ATOM     15  C   UNL d   1     -47.930  32.043  34.796  0.00  0.00    -0.012 A 
ATOM     16  C   UNL d   1     -47.536  31.945  35.498  0.00  0.00    -0.018 A 
ATOM     17  C   UNL d   1     -47.526  32.179  34.089  0.00  0.00    -0.027 A 
ATOM     18  C   UNL d   1     -47.524  32.303  33.338  0.00  0.00     0.023 A 
ATOM     19  C   UNL d   1     -47.109  32.214  33.988  0.00  0.00     0.017 A 
ENDBRANCH   8  10
ENDBRANCH   2   7
BRANCH   1  20
ATOM     20  C   UNL d   1     -48.479  28.652  35.275  0.00  0.00     0.196 C 
ATOM     21  O   UNL d   1     -48.576  28.210  35.939  0.00  0.00    -0.287 OA
BRANCH  20  22
ATOM     22  C   UNL d   1     -48.844  28.446  34.566  0.00  0.00     0.044 C 
BRANCH  22  23
ATOM     23  C   UNL d   1     -48.880  27.652  34.331  0.00  0.00     0.028 C 
BRANCH  23  24
ATOM     24  C   UNL d   1     -49.554  27.367  33.949  0.00  0.00     0.100 A 
ATOM     25  O   UNL d   1     -50.245  27.765  33.794  0.00  0.00    -0.305 OA
ATOM     26  C   UNL d   1     -50.759  27.279  33.411  0.00  0.00     0.123 A 
ATOM     27  C   UNL d   1     -50.391  26.547  33.315  0.00  0.00     0.029 A 
ATOM     28  C   UNL d   1     -49.628  26.593  33.653  0.00  0.00     0.027 A 
ENDBRANCH  23  24
ENDBRANCH  22  23
ENDBRANCH  20  22
ENDBRANCH   1  20
TORSDOF 6
ENDMDL
