MODEL 1
REMARK VINA RESULT:      -4.8      0.000      0.000
REMARK  2 active torsions:
REMARK  status: ('A' for Active; 'I' for Inactive)
REMARK    1  A    between atoms: C_6  and  C_1 
REMARK    2  A    between atoms: C_11  and  C_6 
ROOT
ATOM      1  C   UNL d   1     -41.491-122.669 -53.738  0.00  0.00     0.059 A 
ATOM      2  C   UNL d   1     -41.296-123.461 -53.843  0.00  0.00     0.085 A 
ATOM      3  N   UNL d   1     -41.124-123.817 -53.113  0.00  0.00    -0.245 NA
ATOM      4  C   UNL d   1     -41.441-122.515 -52.917  0.00  0.00     0.022 A 
ATOM      5  C   UNL d   1     -41.216-123.216 -52.529  0.00  0.00     0.082 A 
ATOM      6  C   UNL d   1     -41.290-123.801 -54.589  0.00  0.00     0.021 C 
ATOM      7  C   UNL d   1     -41.572-121.828 -52.481  0.00  0.00     0.002 A 
ATOM      8  C   UNL d   1     -41.123-123.230 -51.707  0.00  0.00     0.019 A 
ATOM      9  C   UNL d   1     -41.473-121.856 -51.650  0.00  0.00     0.000 A 
ATOM     10  C   UNL d   1     -41.257-122.534 -51.284  0.00  0.00     0.002 A 
ENDROOT
BRANCH   1  11
ATOM     11  C   UNL d   1     -41.696-122.133 -54.337  0.00  0.00     0.208 C 
ATOM     12  O   UNL d   1     -41.130-121.660 -54.694  0.00  0.00    -0.286 OA
BRANCH  11  13
ATOM     13  C   UNL d   1     -42.470-122.076 -54.574  0.00  0.00     0.110 C 
ATOM     14 CL   UNL d   1     -42.656-121.600 -55.199  0.00  0.00    -0.078 Cl
ENDBRANCH  11  13
ENDBRANCH   1  11
TORSDOF 2
ENDMDL
MODEL 2
REMARK VINA RESULT:      -4.7      1.563      2.606
REMARK  2 active torsions:
REMARK  status: ('A' for Active; 'I' for Inactive)
REMARK    1  A    between atoms: C_6  and  C_1 
REMARK    2  A    between atoms: C_11  and  C_6 
ROOT
ATOM      1  C   UNL d   1     -41.647-122.624 -52.911  0.00  0.00     0.059 A 
ATOM      2  C   UNL d   1     -41.351-123.388 -52.982  0.00  0.00     0.085 A 
ATOM      3  N   UNL d   1     -41.331-123.619 -53.779  0.00  0.00    -0.245 NA
ATOM      4  C   UNL d   1     -41.820-122.359 -53.686  0.00  0.00     0.022 A 
ATOM      5  C   UNL d   1     -41.628-122.966 -54.222  0.00  0.00     0.082 A 
ATOM      6  C   UNL d   1     -41.123-123.817 -52.322  0.00  0.00     0.021 C 
ATOM      7  C   UNL d   1     -42.126-121.647 -53.965  0.00  0.00     0.002 A 
ATOM      8  C   UNL d   1     -41.743-122.860 -55.035  0.00  0.00     0.019 A 
ATOM      9  C   UNL d   1     -42.236-121.553 -54.789  0.00  0.00     0.000 A 
ATOM     10  C   UNL d   1     -42.050-122.141 -55.299  0.00  0.00     0.002 A 
ENDROOT
BRANCH   1  11
ATOM     11  C   UNL d   1     -41.749-122.203 -52.203  0.00  0.00     0.208 C 
ATOM     12  O   UNL d   1     -42.472-122.193 -51.818  0.00  0.00    -0.286 OA
BRANCH  11  13
ATOM     13  C   UNL d   1     -41.122-121.796 -51.887  0.00  0.00     0.110 C 
ATOM     14 CL   UNL d   1     -41.204-121.450 -51.162  0.00  0.00    -0.078 Cl
ENDBRANCH  11  13
ENDBRANCH   1  11
TORSDOF 2
ENDMDL
MODEL 3
REMARK VINA RESULT:      -3.4      2.225      3.293
REMARK  2 active torsions:
REMARK  status: ('A' for Active; 'I' for Inactive)
REMARK    1  A    between atoms: C_6  and  C_1 
REMARK    2  A    between atoms: C_11  and  C_6 
ROOT
ATOM      1  C   UNL d   1     -41.605-122.401 -51.461  0.00  0.00     0.059 A 
ATOM      2  C   UNL d   1     -41.352-121.629 -51.592  0.00  0.00     0.085 A 
ATOM      3  N   UNL d   1     -41.127-121.528 -52.384  0.00  0.00    -0.245 NA
ATOM      4  C   UNL d   1     -41.539-122.804 -52.192  0.00  0.00     0.022 A 
ATOM      5  C   UNL d   1     -41.247-122.273 -52.761  0.00  0.00     0.082 A 
ATOM      6  C   UNL d   1     -41.345-121.077 -50.986  0.00  0.00     0.021 C 
ATOM      7  C   UNL d   1     -41.708-123.581 -52.405  0.00  0.00     0.002 A 
ATOM      8  C   UNL d   1     -41.124-122.519 -53.542  0.00  0.00     0.019 A 
ATOM      9  C   UNL d   1     -41.580-123.817 -53.198  0.00  0.00     0.000 A 
ATOM     10  C   UNL d   1     -41.298-123.301 -53.740  0.00  0.00     0.002 A 
ENDROOT
BRANCH   1  11
ATOM     11  C   UNL d   1     -41.872-122.712 -50.740  0.00  0.00     0.208 C 
ATOM     12  O   UNL d   1     -42.641-122.590 -50.485  0.00  0.00    -0.286 OA
BRANCH  11  13
ATOM     13  C   UNL d   1     -41.363-123.144 -50.278  0.00  0.00     0.110 C 
ATOM     14 CL   UNL d   1     -41.658-123.572 -49.661  0.00  0.00    -0.078 Cl
ENDBRANCH  11  13
ENDBRANCH   1  11
TORSDOF 2
ENDMDL
MODEL 4
REMARK VINA RESULT:      -3.3      3.090      4.165
REMARK  2 active torsions:
REMARK  status: ('A' for Active; 'I' for Inactive)
REMARK    1  A    between atoms: C_6  and  C_1 
REMARK    2  A    between atoms: C_11  and  C_6 
ROOT
ATOM      1  C   UNL d   1     -42.218-122.949 -49.879  0.00  0.00     0.059 A 
ATOM      2  C   UNL d   1     -42.971-122.643 -49.748  0.00  0.00     0.085 A 
ATOM      3  N   UNL d   1     -43.181-122.723 -48.949  0.00  0.00    -0.245 NA
ATOM      4  C   UNL d   1     -41.941-123.232 -49.141  0.00  0.00     0.022 A 
ATOM      5  C   UNL d   1     -42.528-123.096 -48.568  0.00  0.00     0.082 A 
ATOM      6  C   UNL d   1     -43.408-122.316 -50.359  0.00  0.00     0.021 C 
ATOM      7  C   UNL d   1     -41.233-123.593 -48.927  0.00  0.00     0.002 A 
ATOM      8  C   UNL d   1     -42.406-123.321 -47.781  0.00  0.00     0.019 A 
ATOM      9  C   UNL d   1     -41.123-123.816 -48.127  0.00  0.00     0.000 A 
ATOM     10  C   UNL d   1     -41.692-123.682 -47.580  0.00  0.00     0.002 A 
ENDROOT
BRANCH   1  11
ATOM     11  C   UNL d   1     -41.819-122.968 -50.606  0.00  0.00     0.208 C 
ATOM     12  O   UNL d   1     -41.825-123.640 -51.074  0.00  0.00    -0.286 OA
BRANCH  11  13
ATOM     13  C   UNL d   1     -41.415-122.310 -50.857  0.00  0.00     0.110 C 
ATOM     14 CL   UNL d   1     -41.123-122.291 -51.609  0.00  0.00    -0.078 Cl
ENDBRANCH  11  13
ENDBRANCH   1  11
TORSDOF 2
ENDMDL
MODEL 5
REMARK VINA RESULT:      -2.5      3.659      4.812
REMARK  2 active torsions:
REMARK  status: ('A' for Active; 'I' for Inactive)
REMARK    1  A    between atoms: C_6  and  C_1 
REMARK    2  A    between atoms: C_11  and  C_6 
ROOT
ATOM      1  C   UNL d   1     -42.302-123.130 -49.103  0.00  0.00     0.059 A 
ATOM      2  C   UNL d   1     -43.038-123.440 -49.301  0.00  0.00     0.085 A 
ATOM      3  N   UNL d   1     -43.202-123.309 -50.104  0.00  0.00    -0.245 NA
ATOM      4  C   UNL d   1     -41.987-122.791 -49.800  0.00  0.00     0.022 A 
ATOM      5  C   UNL d   1     -42.535-122.897 -50.417  0.00  0.00     0.082 A 
ATOM      6  C   UNL d   1     -43.504-123.817 -48.741  0.00  0.00     0.021 C 
ATOM      7  C   UNL d   1     -41.276-122.402 -49.946  0.00  0.00     0.002 A 
ATOM      8  C   UNL d   1     -42.371-122.616 -51.178  0.00  0.00     0.019 A 
ATOM      9  C   UNL d   1     -41.123-122.122 -50.720  0.00  0.00     0.000 A 
ATOM     10  C   UNL d   1     -41.655-122.228 -51.308  0.00  0.00     0.002 A 
ENDROOT
BRANCH   1  11
ATOM     11  C   UNL d   1     -41.948-123.154 -48.353  0.00  0.00     0.208 C 
ATOM     12  O   UNL d   1     -42.009-122.522 -47.835  0.00  0.00    -0.286 OA
BRANCH  11  13
ATOM     13  C   UNL d   1     -41.534-123.815 -48.128  0.00  0.00     0.110 C 
ATOM     14 CL   UNL d   1     -41.153-123.817 -47.417  0.00  0.00    -0.078 Cl
ENDBRANCH  11  13
ENDBRANCH   1  11
TORSDOF 2
ENDMDL
