MODEL 1
REMARK VINA RESULT:      -5.3      0.000      0.000
REMARK  4 active torsions:
REMARK  status: ('A' for Active; 'I' for Inactive)
REMARK       I    between atoms: C_2  and  N_1 
REMARK       I    between atoms: C_3  and  N_1 
REMARK    1  A    between atoms: C_4  and  C_2 
REMARK       I    between atoms: N_7  and  C_3 
REMARK    2  A    between atoms: C_15  and  N_7 
REMARK    3  A    between atoms: N_11  and  C_16 
REMARK    4  A    between atoms: C_16  and  C_15 
ROOT
ATOM      1  N   UNL d   1     -41.784-122.820 -51.635  0.00  0.00    -0.152 NA
ATOM      2  C   UNL d   1     -41.567-122.405 -50.951  0.00  0.00     0.283 C 
ATOM      3  C   UNL d   1     -41.608-122.513 -52.382  0.00  0.00     0.371 C 
ATOM      4  O   UNL d   1     -41.173-121.678 -51.017  0.00  0.00    -0.265 OA
ATOM      5  O   UNL d   1     -41.218-121.794 -52.457  0.00  0.00    -0.242 OA
ATOM      6  N   UNL d   1     -41.826-122.931 -53.068  0.00  0.00    -0.188 NA
ENDROOT
BRANCH   2   7
ATOM      7  C   UNL d   1     -41.741-122.709 -50.206  0.00  0.00     0.058 A 
ATOM      8  C   UNL d   1     -41.162-123.133 -49.789  0.00  0.00     0.006 A 
ATOM      9  C   UNL d   1     -41.328-123.440 -49.046  0.00  0.00     0.012 A 
ATOM     10  C   UNL d   1     -42.081-123.326 -48.706  0.00  0.00     0.058 A 
ATOM     11  C   UNL d   1     -42.660-122.898 -49.131  0.00  0.00     0.012 A 
ATOM     12 CL   UNL d   1     -42.266-123.627 -47.959  0.00  0.00    -0.082 Cl
ATOM     13  C   UNL d   1     -42.486-122.592 -49.880  0.00  0.00     0.006 A 
ENDBRANCH   2   7
BRANCH   6  14
ATOM     14  C   UNL d   1     -41.574-122.480 -53.700  0.00  0.00     0.123 C 
BRANCH  14  15
ATOM     15  C   UNL d   1     -41.594-122.791 -54.462  0.00  0.00     0.101 C 
BRANCH  15  16
ATOM     16  N   UNL d   1     -41.863-122.332 -55.085  0.00  0.00    -0.299 N 
ATOM     17  C   UNL d   1     -41.330-122.043 -55.634  0.00  0.00     0.100 C 
ATOM     18  C   UNL d   1     -42.599-122.060 -55.327  0.00  0.00     0.100 C 
ENDBRANCH  15  16
ENDBRANCH  14  15
ENDBRANCH   6  14
TORSDOF 4
ENDMDL
MODEL 2
REMARK VINA RESULT:      -3.7      2.133      4.873
REMARK  4 active torsions:
REMARK  status: ('A' for Active; 'I' for Inactive)
REMARK       I    between atoms: C_2  and  N_1 
REMARK       I    between atoms: C_3  and  N_1 
REMARK    1  A    between atoms: C_4  and  C_2 
REMARK       I    between atoms: N_7  and  C_3 
REMARK    2  A    between atoms: C_15  and  N_7 
REMARK    3  A    between atoms: N_11  and  C_16 
REMARK    4  A    between atoms: C_16  and  C_15 
ROOT
ATOM      1  N   UNL d   1     -41.871-122.757 -52.298  0.00  0.00    -0.152 NA
ATOM      2  C   UNL d   1     -41.589-122.153 -52.789  0.00  0.00     0.283 C 
ATOM      3  C   UNL d   1     -41.688-122.757 -51.491  0.00  0.00     0.371 C 
ATOM      4  O   UNL d   1     -41.122-121.545 -52.471  0.00  0.00    -0.265 OA
ATOM      5  O   UNL d   1     -41.227-122.160 -51.168  0.00  0.00    -0.242 OA
ATOM      6  N   UNL d   1     -41.972-123.365 -50.998  0.00  0.00    -0.188 NA
ENDROOT
BRANCH   2   7
ATOM      7  C   UNL d   1     -41.770-122.151 -53.593  0.00  0.00     0.058 A 
ATOM      8  C   UNL d   1     -42.309-121.596 -53.892  0.00  0.00     0.006 A 
ATOM      9  C   UNL d   1     -42.495-121.587 -54.692  0.00  0.00     0.012 A 
ATOM     10  C   UNL d   1     -42.141-122.138 -55.208  0.00  0.00     0.058 A 
ATOM     11  C   UNL d   1     -41.599-122.695 -54.900  0.00  0.00     0.012 A 
ATOM     12 CL   UNL d   1     -42.315-122.145 -56.016  0.00  0.00    -0.082 Cl
ATOM     13  C   UNL d   1     -41.417-122.698 -54.093  0.00  0.00     0.006 A 
ENDBRANCH   2   7
BRANCH   6  14
ATOM     14  C   UNL d   1     -41.695-123.199 -50.249  0.00  0.00     0.123 C 
BRANCH  14  15
ATOM     15  C   UNL d   1     -41.736-123.771 -49.658  0.00  0.00     0.101 C 
BRANCH  15  16
ATOM     16  N   UNL d   1     -41.818-123.546 -48.875  0.00  0.00    -0.299 N 
ATOM     17  C   UNL d   1     -41.210-123.691 -48.348  0.00  0.00     0.100 C 
ATOM     18  C   UNL d   1     -42.407-123.177 -48.437  0.00  0.00     0.100 C 
ENDBRANCH  15  16
ENDBRANCH  14  15
ENDBRANCH   6  14
TORSDOF 4
ENDMDL
