MODEL 1
REMARK VINA RESULT:      65.3      0.000      0.000
REMARK  3 active torsions:
REMARK  status: ('A' for Active; 'I' for Inactive)
REMARK    1  A    between atoms: C_8  and  N_2 
REMARK    2  A    between atoms: C_12  and  C_8 
REMARK    3  A    between atoms: N_11  and  C_12 
ROOT
ATOM      1  C   UNL d   1      58.165  49.706  52.715  0.00  0.00     0.166 A 
ATOM      2  N   UNL d   1      58.660  49.706  52.052  0.00  0.00    -0.288 N 
ATOM      3  C   UNL d   1      57.380  49.705  52.458  0.00  0.00     0.117 A 
ATOM      4  N   UNL d   1      58.345  49.707  53.519  0.00  0.00    -0.225 NA
ATOM      5  N   UNL d   1      56.773  49.705  53.010  0.00  0.00    -0.241 NA
ATOM      6  C   UNL d   1      57.389  49.704  51.633  0.00  0.00     0.037 A 
ATOM      7  C   UNL d   1      58.169  49.704  51.395  0.00  0.00     0.067 A 
ATOM      8  C   UNL d   1      57.742  49.707  54.072  0.00  0.00     0.101 A 
ATOM      9  C   UNL d   1      56.957  49.706  53.817  0.00  0.00     0.099 A 
ATOM     10  C   UNL d   1      56.751  49.703  51.084  0.00  0.00     0.003 A 
ATOM     11  C   UNL d   1      58.345  49.704  50.577  0.00  0.00     0.018 A 
ATOM     12  C   UNL d   1      57.926  49.708  54.880  0.00  0.00     0.021 A 
ATOM     13  C   UNL d   1      56.438  49.706  54.369  0.00  0.00     0.021 A 
ATOM     14  C   UNL d   1      56.927  49.702  50.291  0.00  0.00     0.000 A 
ATOM     15  C   UNL d   1      57.709  49.703  50.111  0.00  0.00     0.002 A 
ATOM     16  C   UNL d   1      56.536  49.707  55.174  0.00  0.00     0.002 A 
ATOM     17  C   UNL d   1      57.325  49.708  55.427  0.00  0.00     0.002 A 
ENDROOT
BRANCH   2  18
ATOM     18  C   UNL d   1      59.393  49.706  51.673  0.00  0.00     0.101 C 
BRANCH  18  19
ATOM     19  C   UNL d   1      59.702  48.969  51.816  0.00  0.00     0.100 C 
BRANCH  19  20
ATOM     20  N   UNL d   1      60.442  48.976  51.452  0.00  0.00    -0.298 N 
ATOM     21  C   UNL d   1      60.962  49.603  51.584  0.00  0.00     0.107 A 
ATOM     22  C   UNL d   1      61.702  49.608  51.219  0.00  0.00     0.142 A 
ATOM     23  O   UNL d   1      61.925  48.986  50.720  0.00  0.00    -0.300 OA
ATOM     24  C   UNL d   1      61.406  48.359  50.587  0.00  0.00     0.142 A 
ATOM     25  C   UNL d   1      60.662  48.355  50.955  0.00  0.00     0.107 A 
ENDBRANCH  19  20
ENDBRANCH  18  19
ENDBRANCH   2  18
TORSDOF 3
ENDMDL
