MODEL 1
REMARK VINA RESULT:      11.1      0.000      0.000
REMARK  4 active torsions:
REMARK  status: ('A' for Active; 'I' for Inactive)
REMARK    1  A    between atoms: C_2  and  C_1 
REMARK    2  A    between atoms: C_4  and  C_1 
REMARK    3  A    between atoms: C_5  and  C_2 
REMARK    4  A    between atoms: N_6  and  C_5 
ROOT
ATOM      1  C   UNL d   1     -51.379  24.932  33.363  0.00  0.00     0.197 C 
ATOM      2  O   UNL d   1     -50.633  24.563  33.369  0.00  0.00    -0.286 OA
ENDROOT
BRANCH   1   3
ATOM      3  C   UNL d   1     -51.439  25.738  33.306  0.00  0.00     0.061 C 
BRANCH   3   4
ATOM      4  C   UNL d   1     -50.775  26.207  33.363  0.00  0.00     0.084 C 
BRANCH   4   5
ATOM      5  N   UNL d   1     -50.841  26.987  33.624  0.00  0.00    -0.300 N 
ATOM      6  C   UNL d   1     -50.253  27.313  34.095  0.00  0.00     0.100 C 
ATOM      7  C   UNL d   1     -51.497  27.436  33.412  0.00  0.00     0.100 C 
ENDBRANCH   4   5
ENDBRANCH   3   4
ENDBRANCH   1   3
BRANCH   1   8
ATOM      8  C   UNL d   1     -52.083  24.466  33.416  0.00  0.00     0.039 A 
ATOM      9  C   UNL d   1     -52.033  23.641  33.432  0.00  0.00     0.003 A 
ATOM     10  C   UNL d   1     -52.706  23.189  33.482  0.00  0.00     0.000 A 
ATOM     11  C   UNL d   1     -53.442  23.559  33.518  0.00  0.00     0.000 A 
ATOM     12  C   UNL d   1     -53.511  24.383  33.503  0.00  0.00     0.000 A 
ATOM     13  C   UNL d   1     -52.804  24.837  33.450  0.00  0.00     0.003 A 
ENDBRANCH   1   8
TORSDOF 4
ENDMDL
