MODEL 1
REMARK VINA RESULT:      28.0      0.000      0.000
REMARK  3 active torsions:
REMARK  status: ('A' for Active; 'I' for Inactive)
REMARK    1  A    between atoms: C_4  and  C_1 
REMARK    2  A    between atoms: C_6  and  C_4 
REMARK    3  A    between atoms: N_5  and  C_7 
ROOT
ATOM      1  C   UNL d   1      59.663  49.614  50.339  0.00  0.00     0.231 C 
ATOM      2  O   UNL d   1      60.046  49.690  49.622  0.00  0.00    -0.283 OA
ENDROOT
BRANCH   1   3
ATOM      3  C   UNL d   1      58.832  49.635  50.382  0.00  0.00     0.188 A 
ATOM      4  N   UNL d   1      58.387  49.653  51.070  0.00  0.00    -0.224 NA
ATOM      5  C   UNL d   1      57.574  49.670  50.875  0.00  0.00     0.099 A 
ATOM      6  C   UNL d   1      56.895  49.691  51.312  0.00  0.00     0.021 A 
ATOM      7  C   UNL d   1      57.530  49.663  50.037  0.00  0.00     0.083 A 
ATOM      8  C   UNL d   1      56.179  49.705  50.947  0.00  0.00     0.002 A 
ATOM      9  C   UNL d   1      56.094  49.699  50.128  0.00  0.00     0.002 A 
ATOM     10  C   UNL d   1      56.794  49.677  49.685  0.00  0.00     0.019 A 
ATOM     11  N   UNL d   1      58.319  49.641  49.759  0.00  0.00    -0.285 N 
ATOM     12  C   UNL d   1      58.616  49.626  48.982  0.00  0.00     0.101 C 
ENDBRANCH   1   3
BRANCH   1  13
ATOM     13  C   UNL d   1      60.116  49.513  51.050  0.00  0.00     0.064 A 
ATOM     14  C   UNL d   1      60.882  49.231  51.017  0.00  0.00     0.130 A 
ATOM     15  C   UNL d   1      61.317  49.134  51.708  0.00  0.00     0.024 A 
ATOM     16  C   UNL d   1      60.986  49.320  52.440  0.00  0.00     0.002 A 
ATOM     17  C   UNL d   1      60.199  49.609  52.457  0.00  0.00     0.000 A 
ATOM     18  C   UNL d   1      59.759  49.708  51.768  0.00  0.00     0.005 A 
BRANCH  14  19
ATOM     19  N   UNL d   1      61.222  49.040  50.285  0.00  0.00    -0.114 N 
ATOM     20  O   UNL d   1      61.330  48.241  50.154  0.00  0.00    -0.532 OA
ATOM     21  O   UNL d   1      61.435  49.636  49.726  0.00  0.00    -0.532 OA
ENDBRANCH  14  19
ENDBRANCH   1  13
TORSDOF 3
ENDMDL
