MODEL 1
REMARK VINA RESULT:      -9.9      0.000      0.000
REMARK  2 active torsions:
REMARK  status: ('A' for Active; 'I' for Inactive)
REMARK    1  A    between atoms: C_10  and  N_1 
REMARK    2  A    between atoms: C_6  and  C_7 
ROOT
ATOM      1  N   UNL d   1      52.486  33.030  53.201  0.00  0.00    -0.288 N 
ATOM      2  C   UNL d   1      52.720  32.277  52.944  0.00  0.00     0.183 A 
ATOM      3  N   UNL d   1      53.430  32.079  53.332  0.00  0.00    -0.224 NA
ATOM      4  C   UNL d   1      53.050  33.298  53.746  0.00  0.00     0.083 A 
ATOM      5  C   UNL d   1      53.628  32.715  53.826  0.00  0.00     0.099 A 
ATOM      6  C   UNL d   1      54.322  33.533  54.770  0.00  0.00     0.066 A 
ATOM      7  C   UNL d   1      54.265  32.834  54.340  0.00  0.00     0.027 A 
ATOM      8  C   UNL d   1      53.109  34.001  54.179  0.00  0.00     0.019 A 
ATOM      9  C   UNL d   1      53.744  34.116  54.690  0.00  0.00     0.008 A 
ENDROOT
BRANCH   1  10
ATOM     10  C   UNL d   1      51.819  33.438  52.960  0.00  0.00     0.066 A 
ATOM     11  C   UNL d   1      51.106  33.341  53.367  0.00  0.00     0.018 A 
ATOM     12  C   UNL d   1      50.437  33.745  53.131  0.00  0.00     0.002 A 
ATOM     13  C   UNL d   1      50.464  34.259  52.477  0.00  0.00     0.000 A 
ATOM     14  C   UNL d   1      51.174  34.355  52.072  0.00  0.00     0.002 A 
ATOM     15  C   UNL d   1      51.854  33.944  52.312  0.00  0.00     0.018 A 
ENDBRANCH   1  10
BRANCH   6  16
ATOM     16  C   UNL d   1      54.957  33.651  55.281  0.00  0.00     0.211 C 
ATOM     17  O   UNL d   1      54.933  33.342  56.046  0.00  0.00    -0.644 OA
ATOM     18  O   UNL d   1      55.623  34.079  55.030  0.00  0.00    -0.644 OA
ENDBRANCH   6  16
TORSDOF 2
ENDMDL
MODEL 2
REMARK VINA RESULT:      -9.8      2.097      3.647
REMARK  2 active torsions:
REMARK  status: ('A' for Active; 'I' for Inactive)
REMARK    1  A    between atoms: C_10  and  N_1 
REMARK    2  A    between atoms: C_6  and  C_7 
ROOT
ATOM      1  N   UNL d   1      53.410  32.825  53.674  0.00  0.00    -0.288 N 
ATOM      2  C   UNL d   1      53.341  32.074  53.329  0.00  0.00     0.183 A 
ATOM      3  N   UNL d   1      52.659  32.070  52.850  0.00  0.00    -0.224 NA
ATOM      4  C   UNL d   1      52.773  33.285  53.409  0.00  0.00     0.083 A 
ATOM      5  C   UNL d   1      52.313  32.822  52.904  0.00  0.00     0.099 A 
ATOM      6  C   UNL d   1      51.420  33.921  52.712  0.00  0.00     0.066 A 
ATOM      7  C   UNL d   1      51.636  33.142  52.555  0.00  0.00     0.027 A 
ATOM      8  C   UNL d   1      52.555  34.068  53.565  0.00  0.00     0.019 A 
ATOM      9  C   UNL d   1      51.880  34.383  53.216  0.00  0.00     0.008 A 
ENDROOT
BRANCH   1  10
ATOM     10  C   UNL d   1      54.000  33.070  54.185  0.00  0.00     0.066 A 
ATOM     11  C   UNL d   1      53.900  32.991  55.001  0.00  0.00     0.018 A 
ATOM     12  C   UNL d   1      54.485  33.234  55.515  0.00  0.00     0.002 A 
ATOM     13  C   UNL d   1      55.192  33.563  55.224  0.00  0.00     0.000 A 
ATOM     14  C   UNL d   1      55.292  33.641  54.411  0.00  0.00     0.002 A 
ATOM     15  C   UNL d   1      54.696  33.395  53.889  0.00  0.00     0.018 A 
ENDBRANCH   1  10
BRANCH   6  16
ATOM     16  C   UNL d   1      50.745  34.238  52.363  0.00  0.00     0.211 C 
ATOM     17  O   UNL d   1      50.713  34.343  51.546  0.00  0.00    -0.644 OA
ATOM     18  O   UNL d   1      50.094  34.452  52.832  0.00  0.00    -0.644 OA
ENDBRANCH   6  16
TORSDOF 2
ENDMDL
MODEL 3
REMARK VINA RESULT:      -9.8      2.416      3.737
REMARK  2 active torsions:
REMARK  status: ('A' for Active; 'I' for Inactive)
REMARK    1  A    between atoms: C_10  and  N_1 
REMARK    2  A    between atoms: C_6  and  C_7 
ROOT
ATOM      1  N   UNL d   1      53.555  32.491  53.588  0.00  0.00    -0.288 N 
ATOM      2  C   UNL d   1      53.088  32.775  52.964  0.00  0.00     0.183 A 
ATOM      3  N   UNL d   1      52.675  32.131  52.636  0.00  0.00    -0.224 NA
ATOM      4  C   UNL d   1      53.431  31.674  53.646  0.00  0.00     0.083 A 
ATOM      5  C   UNL d   1      52.891  31.453  53.063  0.00  0.00     0.099 A 
ATOM      6  C   UNL d   1      52.974  30.095  53.500  0.00  0.00     0.066 A 
ATOM      7  C   UNL d   1      52.663  30.662  52.991  0.00  0.00     0.027 A 
ATOM      8  C   UNL d   1      53.743  31.103  54.158  0.00  0.00     0.019 A 
ATOM      9  C   UNL d   1      53.514  30.316  54.084  0.00  0.00     0.008 A 
ENDROOT
BRANCH   1  10
ATOM     10  C   UNL d   1      54.050  32.937  54.063  0.00  0.00     0.066 A 
ATOM     11  C   UNL d   1      53.767  33.258  54.770  0.00  0.00     0.018 A 
ATOM     12  C   UNL d   1      54.256  33.703  55.248  0.00  0.00     0.002 A 
ATOM     13  C   UNL d   1      55.047  33.841  55.028  0.00  0.00     0.000 A 
ATOM     14  C   UNL d   1      55.329  33.522  54.324  0.00  0.00     0.002 A 
ATOM     15  C   UNL d   1      54.831  33.069  53.839  0.00  0.00     0.018 A 
ENDBRANCH   1  10
BRANCH   6  16
ATOM     16  C   UNL d   1      52.746  29.308  53.427  0.00  0.00     0.211 C 
ATOM     17  O   UNL d   1      52.960  28.760  54.006  0.00  0.00    -0.644 OA
ATOM     18  O   UNL d   1      52.300  29.061  52.771  0.00  0.00    -0.644 OA
ENDBRANCH   6  16
TORSDOF 2
ENDMDL
MODEL 4
REMARK VINA RESULT:      -9.0      1.781      2.499
REMARK  2 active torsions:
REMARK  status: ('A' for Active; 'I' for Inactive)
REMARK    1  A    between atoms: C_10  and  N_1 
REMARK    2  A    between atoms: C_6  and  C_7 
ROOT
ATOM      1  N   UNL d   1      52.581  33.250  53.408  0.00  0.00    -0.288 N 
ATOM      2  C   UNL d   1      53.135  33.583  53.927  0.00  0.00     0.183 A 
ATOM      3  N   UNL d   1      53.640  32.976  54.192  0.00  0.00    -0.224 NA
ATOM      4  C   UNL d   1      52.743  32.439  53.351  0.00  0.00     0.083 A 
ATOM      5  C   UNL d   1      53.392  32.271  53.832  0.00  0.00     0.099 A 
ATOM      6  C   UNL d   1      53.315  30.895  53.455  0.00  0.00     0.066 A 
ATOM      7  C   UNL d   1      53.678  31.497  53.882  0.00  0.00     0.027 A 
ATOM      8  C   UNL d   1      52.379  31.833  52.921  0.00  0.00     0.019 A 
ATOM      9  C   UNL d   1      52.666  31.063  52.974  0.00  0.00     0.008 A 
ENDROOT
BRANCH   1  10
ATOM     10  C   UNL d   1      51.981  33.649  53.020  0.00  0.00     0.066 A 
ATOM     11  C   UNL d   1      52.143  34.060  52.320  0.00  0.00     0.018 A 
ATOM     12  C   UNL d   1      51.549  34.459  51.929  0.00  0.00     0.002 A 
ATOM     13  C   UNL d   1      50.772  34.459  52.229  0.00  0.00     0.000 A 
ATOM     14  C   UNL d   1      50.612  34.051  52.925  0.00  0.00     0.002 A 
ATOM     15  C   UNL d   1      51.216  33.644  53.323  0.00  0.00     0.018 A 
ENDBRANCH   1  10
BRANCH   6  16
ATOM     16  C   UNL d   1      53.601  30.125  53.507  0.00  0.00     0.211 C 
ATOM     17  O   UNL d   1      54.382  29.959  53.297  0.00  0.00    -0.644 OA
ATOM     18  O   UNL d   1      53.106  29.512  53.770  0.00  0.00    -0.644 OA
ENDBRANCH   6  16
TORSDOF 2
ENDMDL
MODEL 5
REMARK VINA RESULT:      -8.8      1.439      2.650
REMARK  2 active torsions:
REMARK  status: ('A' for Active; 'I' for Inactive)
REMARK    1  A    between atoms: C_10  and  N_1 
REMARK    2  A    between atoms: C_6  and  C_7 
ROOT
ATOM      1  N   UNL d   1      53.032  31.894  53.268  0.00  0.00    -0.288 N 
ATOM      2  C   UNL d   1      52.709  32.365  52.667  0.00  0.00     0.183 A 
ATOM      3  N   UNL d   1      52.860  33.163  52.854  0.00  0.00    -0.224 NA
ATOM      4  C   UNL d   1      53.383  32.398  53.825  0.00  0.00     0.083 A 
ATOM      5  C   UNL d   1      53.277  33.176  53.571  0.00  0.00     0.099 A 
ATOM      6  C   UNL d   1      53.973  33.647  54.726  0.00  0.00     0.066 A 
ATOM      7  C   UNL d   1      53.574  33.801  54.024  0.00  0.00     0.027 A 
ATOM      8  C   UNL d   1      53.785  32.245  54.532  0.00  0.00     0.019 A 
ATOM      9  C   UNL d   1      54.079  32.869  54.980  0.00  0.00     0.008 A 
ENDROOT
BRANCH   1  10
ATOM     10  C   UNL d   1      53.010  31.077  53.306  0.00  0.00     0.066 A 
ATOM     11  C   UNL d   1      52.291  30.688  53.429  0.00  0.00     0.018 A 
ATOM     12  C   UNL d   1      52.263  29.873  53.468  0.00  0.00     0.002 A 
ATOM     13  C   UNL d   1      52.959  29.423  53.383  0.00  0.00     0.000 A 
ATOM     14  C   UNL d   1      53.674  29.811  53.260  0.00  0.00     0.002 A 
ATOM     15  C   UNL d   1      53.702  30.639  53.221  0.00  0.00     0.018 A 
ENDBRANCH   1  10
BRANCH   6  16
ATOM     16  C   UNL d   1      54.268  34.271  55.176  0.00  0.00     0.211 C 
ATOM     17  O   UNL d   1      55.078  34.330  55.320  0.00  0.00    -0.644 OA
ATOM     18  O   UNL d   1      53.752  34.843  55.486  0.00  0.00    -0.644 OA
ENDBRANCH   6  16
TORSDOF 2
ENDMDL
MODEL 6
REMARK VINA RESULT:      -8.8      1.759      2.827
REMARK  2 active torsions:
REMARK  status: ('A' for Active; 'I' for Inactive)
REMARK    1  A    between atoms: C_10  and  N_1 
REMARK    2  A    between atoms: C_6  and  C_7 
ROOT
ATOM      1  N   UNL d   1      53.894  32.043  53.571  0.00  0.00    -0.288 N 
ATOM      2  C   UNL d   1      54.698  32.195  53.434  0.00  0.00     0.183 A 
ATOM      3  N   UNL d   1      54.840  33.000  53.592  0.00  0.00    -0.224 NA
ATOM      4  C   UNL d   1      53.540  32.752  53.814  0.00  0.00     0.083 A 
ATOM      5  C   UNL d   1      54.120  33.338  53.827  0.00  0.00     0.099 A 
ATOM      6  C   UNL d   1      53.147  34.291  54.260  0.00  0.00     0.066 A 
ATOM      7  C   UNL d   1      53.922  34.109  54.051  0.00  0.00     0.027 A 
ATOM      8  C   UNL d   1      52.762  32.936  54.025  0.00  0.00     0.019 A 
ATOM      9  C   UNL d   1      52.567  33.705  54.247  0.00  0.00     0.008 A 
ENDROOT
BRANCH   1  10
ATOM     10  C   UNL d   1      53.517  31.323  53.483  0.00  0.00     0.066 A 
ATOM     11  C   UNL d   1      53.615  30.732  54.054  0.00  0.00     0.018 A 
ATOM     12  C   UNL d   1      53.241  30.012  53.971  0.00  0.00     0.002 A 
ATOM     13  C   UNL d   1      52.755  29.862  53.312  0.00  0.00     0.000 A 
ATOM     14  C   UNL d   1      52.658  30.450  52.745  0.00  0.00     0.002 A 
ATOM     15  C   UNL d   1      53.038  31.182  52.829  0.00  0.00     0.018 A 
ENDBRANCH   1  10
BRANCH   6  16
ATOM     16  C   UNL d   1      52.952  35.060  54.482  0.00  0.00     0.211 C 
ATOM     17  O   UNL d   1      52.543  35.549  53.959  0.00  0.00    -0.644 OA
ATOM     18  O   UNL d   1      53.164  35.345  55.233  0.00  0.00    -0.644 OA
ENDBRANCH   6  16
TORSDOF 2
ENDMDL
