MODEL 1
REMARK VINA RESULT:      40.1      0.000      0.000
REMARK  7 active torsions:
REMARK  status: ('A' for Active; 'I' for Inactive)
REMARK    1  A    between atoms: C_23  and  C_3 
REMARK    2  A    between atoms: S_18  and  C_5 
REMARK    3  A    between atoms: C_11  and  C_16 
REMARK       I    between atoms: N_14  and  C_11 
REMARK    4  A    between atoms: C_17  and  N_14 
REMARK    5  A    between atoms: C_16  and  C_21 
REMARK    6  A    between atoms: C_21  and  S_18 
REMARK    7  A    between atoms: O_24  and  C_22 
ROOT
ATOM      1  C   UNL d   1      46.460 -19.071  41.608  0.00  0.00     0.092 A 
ATOM      2  C   UNL d   1      46.333 -18.621  42.954  0.00  0.00     0.057 A 
ATOM      3  C   UNL d   1      46.425 -19.236  42.414  0.00  0.00     0.016 A 
ATOM      4  N   UNL d   1      46.312 -17.678  41.882  0.00  0.00    -0.239 NA
ATOM      5  C   UNL d   1      46.403 -18.292  41.342  0.00  0.00     0.120 A 
ATOM      6  C   UNL d   1      46.277 -17.842  42.688  0.00  0.00     0.081 A 
ATOM      7  C   UNL d   1      46.298 -18.786  43.760  0.00  0.00     0.193 A 
ATOM      8  C   UNL d   1      46.553 -19.694  41.058  0.00  0.00     0.103 C 
ATOM      9  N   UNL d   1      46.646 -20.322  40.518  0.00  0.00    -0.191 NA
ATOM     10  C   UNL d   1      46.149 -17.389  44.042  0.00  0.00     0.042 A 
ATOM     11  C   UNL d   1      46.206 -18.168  44.308  0.00  0.00     0.019 A 
ATOM     12  C   UNL d   1      46.185 -17.228  43.228  0.00  0.00    -0.003 A 
ATOM     13  O   UNL d   1      46.355 -19.564  44.026  0.00  0.00    -0.287 OA
ATOM     14  C   UNL d   1      46.071 -16.561  44.053  0.00  0.00     0.009 C 
ATOM     15  C   UNL d   1      46.113 -17.544  44.850  0.00  0.00     0.009 C 
ENDROOT
BRANCH   3  16
ATOM     16  C   UNL d   1      46.482 -20.014  42.680  0.00  0.00     0.001 C 
ATOM     17  C   UNL d   1      45.905 -20.322  43.181  0.00  0.00     0.000 C 
ENDBRANCH   3  16
BRANCH   5  18
ATOM     18  S   UNL d   1      46.439 -18.132  40.525  0.00  0.00    -0.067 SA
BRANCH  18  19
ATOM     19  C   UNL d   1      45.899 -17.612  40.180  0.00  0.00     0.042 C 
BRANCH  19  20
ATOM     20  C   UNL d   1      45.517 -17.822  39.478  0.00  0.00     0.070 C 
BRANCH  20  21
ATOM     21  C   UNL d   1      45.175 -17.226  39.000  0.00  0.00     0.280 C 
ATOM     22  N   UNL d   1      45.371 -17.188  38.200  0.00  0.00    -0.208 NA
ATOM     23  O   UNL d   1      44.648 -16.687  39.334  0.00  0.00    -0.265 OA
BRANCH  22  24
ATOM     24  C   UNL d   1      45.029 -16.590  37.718  0.00  0.00     0.087 A 
ATOM     25  C   UNL d   1      45.514 -16.014  37.381  0.00  0.00     0.043 A 
ATOM     26  C   UNL d   1      45.174 -15.430  36.909  0.00  0.00     0.096 A 
ATOM     27  C   UNL d   1      44.355 -15.413  36.768  0.00  0.00     0.024 A 
ATOM     28  C   UNL d   1      43.875 -15.991  37.108  0.00  0.00     0.004 A 
ATOM     29  C   UNL d   1      44.206 -16.583  37.584  0.00  0.00     0.019 A 
BRANCH  26  30
ATOM     30  O   UNL d   1      45.659 -14.853  36.572  0.00  0.00    -0.328 OA
ATOM     31  C   UNL d   1      45.949 -14.235  37.039  0.00  0.00     0.181 C 
ENDBRANCH  26  30
ENDBRANCH  22  24
ENDBRANCH  20  21
ENDBRANCH  19  20
ENDBRANCH  18  19
ENDBRANCH   5  18
TORSDOF 7
ENDMDL
