MODEL 1
REMARK VINA RESULT:      -5.4      0.000      0.000
REMARK  10 active torsions:
REMARK  status: ('A' for Active; 'I' for Inactive)
REMARK    1  A    between atoms: C_19  and  N_1 
REMARK    2  A    between atoms: C_7  and  C_2 
REMARK    3  A    between atoms: S_3  and  N_8 
REMARK    4  A    between atoms: C_13  and  S_3 
REMARK    5  A    between atoms: S_9  and  C_5 
REMARK    6  A    between atoms: N_8  and  C_22 
REMARK    7  A    between atoms: C_17  and  S_9 
REMARK    8  A    between atoms: C_14  and  C_17 
REMARK    9  A    between atoms: C_15  and  C_14 
REMARK   10  A    between atoms: C_23  and  C_19 
ROOT
ATOM      1  C   UNL d   1     -45.281  12.644  22.647  0.00  0.00     0.202 C 
ATOM      2  O   UNL d   1     -45.399  12.058  23.214  0.00  0.00    -0.286 OA
ENDROOT
BRANCH   1   3
ATOM      3  C   UNL d   1     -45.861  13.213  22.513  0.00  0.00     0.080 C 
BRANCH   3   4
ATOM      4  S   UNL d   1     -46.620  13.115  22.834  0.00  0.00    -0.044 SA
BRANCH   4   5
ATOM      5  C   UNL d   1     -47.168  13.729  22.794  0.00  0.00     0.201 A 
ATOM      6  N   UNL d   1     -47.983  13.647  22.762  0.00  0.00    -0.267 N 
ATOM      7  C   UNL d   1     -48.320  14.401  22.727  0.00  0.00     0.177 A 
ATOM      8  N   UNL d   1     -47.705  14.946  22.739  0.00  0.00    -0.127 NA
ATOM      9  N   UNL d   1     -46.990  14.528  22.781  0.00  0.00    -0.121 NA
BRANCH   6  10
ATOM     10  C   UNL d   1     -48.369  12.918  22.765  0.00  0.00     0.084 C 
BRANCH  10  11
ATOM     11  C   UNL d   1     -48.368  12.453  23.449  0.00  0.00     0.019 C 
ATOM     12  C   UNL d   1     -48.767  11.725  23.454  0.00  0.00     0.002 C 
ENDBRANCH  10  11
ENDBRANCH   6  10
BRANCH   7  13
ATOM     13  C   UNL d   1     -49.114  14.604  22.688  0.00  0.00     0.066 A 
ATOM     14  S   UNL d   1     -49.562  14.943  23.291  0.00  0.00    -0.083 SA
ATOM     15  C   UNL d   1     -50.330  15.050  23.003  0.00  0.00     0.035 A 
ATOM     16  C   UNL d   1     -50.349  14.775  22.225  0.00  0.00     0.008 A 
ATOM     17  C   UNL d   1     -49.596  14.500  22.031  0.00  0.00     0.010 A 
ENDBRANCH   7  13
ENDBRANCH   4   5
ENDBRANCH   3   4
ENDBRANCH   1   3
BRANCH   1  18
ATOM     18  C   UNL d   1     -44.577  12.663  22.207  0.00  0.00     0.040 A 
ATOM     19  C   UNL d   1     -44.514  13.158  21.548  0.00  0.00     0.005 A 
ATOM     20  C   UNL d   1     -43.811  13.172  21.115  0.00  0.00     0.020 A 
ATOM     21  C   UNL d   1     -43.179  12.701  21.335  0.00  0.00     0.094 A 
ATOM     22  C   UNL d   1     -43.243  12.209  21.992  0.00  0.00     0.020 A 
ATOM     23  C   UNL d   1     -43.940  12.189  22.428  0.00  0.00     0.005 A 
BRANCH  21  24
ATOM     24  N   UNL d   1     -42.475  12.720  20.895  0.00  0.00    -0.158 NA
BRANCH  24  25
ATOM     25  S   UNL d   1     -41.961  13.356  20.966  0.00  0.00     0.285 S 
ATOM     26  O   UNL d   1     -41.765  13.118  21.738  0.00  0.00    -0.198 OA
ATOM     27  O   UNL d   1     -42.153  13.595  20.196  0.00  0.00    -0.198 OA
BRANCH  25  28
ATOM     28  C   UNL d   1     -41.441  14.003  21.029  0.00  0.00     0.105 A 
ATOM     29  C   UNL d   1     -41.677  14.756  20.787  0.00  0.00     0.013 A 
ATOM     30  C   UNL d   1     -41.164  15.391  20.851  0.00  0.00     0.001 A 
ATOM     31  C   UNL d   1     -40.397  15.282  21.162  0.00  0.00     0.000 A 
ATOM     32  C   UNL d   1     -40.162  14.529  21.403  0.00  0.00     0.001 A 
ATOM     33  C   UNL d   1     -40.677  13.893  21.339  0.00  0.00     0.013 A 
ENDBRANCH  25  28
ENDBRANCH  24  25
ENDBRANCH  21  24
ENDBRANCH   1  18
TORSDOF 10
ENDMDL
MODEL 2
REMARK VINA RESULT:      -4.6      1.519      7.053
REMARK  10 active torsions:
REMARK  status: ('A' for Active; 'I' for Inactive)
REMARK    1  A    between atoms: C_19  and  N_1 
REMARK    2  A    between atoms: C_7  and  C_2 
REMARK    3  A    between atoms: S_3  and  N_8 
REMARK    4  A    between atoms: C_13  and  S_3 
REMARK    5  A    between atoms: S_9  and  C_5 
REMARK    6  A    between atoms: N_8  and  C_22 
REMARK    7  A    between atoms: C_17  and  S_9 
REMARK    8  A    between atoms: C_14  and  C_17 
REMARK    9  A    between atoms: C_15  and  C_14 
REMARK   10  A    between atoms: C_23  and  C_19 
ROOT
ATOM      1  C   UNL d   1     -43.164  12.961  21.139  0.00  0.00     0.202 C 
ATOM      2  O   UNL d   1     -43.192  12.599  20.398  0.00  0.00    -0.286 OA
ENDROOT
BRANCH   1   3
ATOM      3  C   UNL d   1     -42.472  13.329  21.393  0.00  0.00     0.080 C 
BRANCH   3   4
ATOM      4  S   UNL d   1     -41.917  13.598  20.837  0.00  0.00    -0.044 SA
BRANCH   4   5
ATOM      5  C   UNL d   1     -41.169  13.839  21.084  0.00  0.00     0.201 A 
ATOM      6  N   UNL d   1     -40.669  14.348  20.680  0.00  0.00    -0.267 N 
ATOM      7  C   UNL d   1     -39.978  14.439  21.124  0.00  0.00     0.177 A 
ATOM      8  N   UNL d   1     -40.058  13.983  21.803  0.00  0.00    -0.127 NA
ATOM      9  N   UNL d   1     -40.799  13.610  21.777  0.00  0.00    -0.121 NA
BRANCH   6  10
ATOM     10  C   UNL d   1     -40.856  14.693  19.955  0.00  0.00     0.084 C 
BRANCH  10  11
ATOM     11  C   UNL d   1     -40.846  14.236  19.266  0.00  0.00     0.019 C 
ATOM     12  C   UNL d   1     -40.963  14.597  18.528  0.00  0.00     0.002 C 
ENDBRANCH  10  11
ENDBRANCH   6  10
BRANCH   7  13
ATOM     13  C   UNL d   1     -39.315  14.893  20.950  0.00  0.00     0.066 A 
ATOM     14  S   UNL d   1     -39.226  15.700  21.090  0.00  0.00    -0.083 SA
ATOM     15  C   UNL d   1     -38.473  15.918  20.827  0.00  0.00     0.035 A 
ATOM     16  C   UNL d   1     -38.104  15.243  20.527  0.00  0.00     0.008 A 
ATOM     17  C   UNL d   1     -38.627  14.610  20.604  0.00  0.00     0.010 A 
ENDBRANCH   7  13
ENDBRANCH   4   5
ENDBRANCH   3   4
ENDBRANCH   1   3
BRANCH   1  18
ATOM     18  C   UNL d   1     -43.832  12.955  21.631  0.00  0.00     0.040 A 
ATOM     19  C   UNL d   1     -44.028  12.271  22.054  0.00  0.00     0.005 A 
ATOM     20  C   UNL d   1     -44.693  12.272  22.541  0.00  0.00     0.020 A 
ATOM     21  C   UNL d   1     -45.158  12.942  22.609  0.00  0.00     0.094 A 
ATOM     22  C   UNL d   1     -44.962  13.622  22.187  0.00  0.00     0.020 A 
ATOM     23  C   UNL d   1     -44.300  13.629  21.699  0.00  0.00     0.005 A 
BRANCH  21  24
ATOM     24  N   UNL d   1     -45.827  12.936  23.102  0.00  0.00    -0.158 NA
BRANCH  24  25
ATOM     25  S   UNL d   1     -46.560  13.155  22.806  0.00  0.00     0.285 S 
ATOM     26  O   UNL d   1     -46.408  13.948  23.003  0.00  0.00    -0.198 OA
ATOM     27  O   UNL d   1     -46.716  12.365  22.608  0.00  0.00    -0.198 OA
BRANCH  25  28
ATOM     28  C   UNL d   1     -47.306  13.369  22.504  0.00  0.00     0.105 A 
ATOM     29  C   UNL d   1     -47.681  12.899  21.939  0.00  0.00     0.013 A 
ATOM     30  C   UNL d   1     -48.415  13.112  21.644  0.00  0.00     0.001 A 
ATOM     31  C   UNL d   1     -48.789  13.808  21.912  0.00  0.00     0.000 A 
ATOM     32  C   UNL d   1     -48.414  14.278  22.476  0.00  0.00     0.001 A 
ATOM     33  C   UNL d   1     -47.678  14.063  22.772  0.00  0.00     0.013 A 
ENDBRANCH  25  28
ENDBRANCH  24  25
ENDBRANCH  21  24
ENDBRANCH   1  18
TORSDOF 10
ENDMDL
MODEL 3
REMARK VINA RESULT:      -4.5      1.729      2.440
REMARK  10 active torsions:
REMARK  status: ('A' for Active; 'I' for Inactive)
REMARK    1  A    between atoms: C_19  and  N_1 
REMARK    2  A    between atoms: C_7  and  C_2 
REMARK    3  A    between atoms: S_3  and  N_8 
REMARK    4  A    between atoms: C_13  and  S_3 
REMARK    5  A    between atoms: S_9  and  C_5 
REMARK    6  A    between atoms: N_8  and  C_22 
REMARK    7  A    between atoms: C_17  and  S_9 
REMARK    8  A    between atoms: C_14  and  C_17 
REMARK    9  A    between atoms: C_15  and  C_14 
REMARK   10  A    between atoms: C_23  and  C_19 
ROOT
ATOM      1  C   UNL d   1     -43.448  12.830  21.671  0.00  0.00     0.202 C 
ATOM      2  O   UNL d   1     -43.393  12.020  21.814  0.00  0.00    -0.286 OA
ENDROOT
BRANCH   1   3
ATOM      3  C   UNL d   1     -44.166  13.222  21.776  0.00  0.00     0.080 C 
BRANCH   3   4
ATOM      4  S   UNL d   1     -44.776  12.859  22.206  0.00  0.00    -0.044 SA
BRANCH   4   5
ATOM      5  C   UNL d   1     -45.503  13.239  22.291  0.00  0.00     0.201 A 
ATOM      6  N   UNL d   1     -46.207  12.886  22.520  0.00  0.00    -0.267 N 
ATOM      7  C   UNL d   1     -46.795  13.467  22.533  0.00  0.00     0.177 A 
ATOM      8  N   UNL d   1     -46.447  14.177  22.311  0.00  0.00    -0.127 NA
ATOM      9  N   UNL d   1     -45.644  14.034  22.160  0.00  0.00    -0.121 NA
BRANCH   6  10
ATOM     10  C   UNL d   1     -46.279  12.085  22.700  0.00  0.00     0.084 C 
BRANCH  10  11
ATOM     11  C   UNL d   1     -45.983  11.793  23.414  0.00  0.00     0.019 C 
ATOM     12  C   UNL d   1     -46.056  10.986  23.594  0.00  0.00     0.002 C 
ENDBRANCH  10  11
ENDBRANCH   6  10
BRANCH   7  13
ATOM     13  C   UNL d   1     -47.589  13.384  22.728  0.00  0.00     0.066 A 
ATOM     14  S   UNL d   1     -48.177  13.060  22.251  0.00  0.00    -0.083 SA
ATOM     15  C   UNL d   1     -48.888  13.091  22.673  0.00  0.00     0.035 A 
ATOM     16  C   UNL d   1     -48.731  13.435  23.407  0.00  0.00     0.008 A 
ATOM     17  C   UNL d   1     -47.927  13.616  23.439  0.00  0.00     0.010 A 
ENDBRANCH   7  13
ENDBRANCH   4   5
ENDBRANCH   3   4
ENDBRANCH   1   3
BRANCH   1  18
ATOM     18  C   UNL d   1     -42.781  13.255  21.419  0.00  0.00     0.040 A 
ATOM     19  C   UNL d   1     -42.054  12.869  21.333  0.00  0.00     0.005 A 
ATOM     20  C   UNL d   1     -41.394  13.298  21.083  0.00  0.00     0.020 A 
ATOM     21  C   UNL d   1     -41.455  14.097  20.919  0.00  0.00     0.094 A 
ATOM     22  C   UNL d   1     -42.180  14.479  21.006  0.00  0.00     0.020 A 
ATOM     23  C   UNL d   1     -42.842  14.059  21.255  0.00  0.00     0.005 A 
BRANCH  21  24
ATOM     24  N   UNL d   1     -40.788  14.522  20.668  0.00  0.00    -0.158 NA
BRANCH  24  25
ATOM     25  S   UNL d   1     -40.677  14.683  19.871  0.00  0.00     0.285 S 
ATOM     26  O   UNL d   1     -40.259  13.970  19.780  0.00  0.00    -0.198 OA
ATOM     27  O   UNL d   1     -41.093  15.395  19.957  0.00  0.00    -0.198 OA
BRANCH  25  28
ATOM     28  C   UNL d   1     -40.568  14.854  19.063  0.00  0.00     0.105 A 
ATOM     29  C   UNL d   1     -40.445  14.246  18.519  0.00  0.00     0.013 A 
ATOM     30  C   UNL d   1     -40.338  14.416  17.725  0.00  0.00     0.001 A 
ATOM     31  C   UNL d   1     -40.354  15.208  17.460  0.00  0.00     0.000 A 
ATOM     32  C   UNL d   1     -40.478  15.815  18.004  0.00  0.00     0.001 A 
ATOM     33  C   UNL d   1     -40.584  15.642  18.800  0.00  0.00     0.013 A 
ENDBRANCH  25  28
ENDBRANCH  24  25
ENDBRANCH  21  24
ENDBRANCH   1  18
TORSDOF 10
ENDMDL
MODEL 4
REMARK VINA RESULT:      -4.1      2.658      7.597
REMARK  10 active torsions:
REMARK  status: ('A' for Active; 'I' for Inactive)
REMARK    1  A    between atoms: C_19  and  N_1 
REMARK    2  A    between atoms: C_7  and  C_2 
REMARK    3  A    between atoms: S_3  and  N_8 
REMARK    4  A    between atoms: C_13  and  S_3 
REMARK    5  A    between atoms: S_9  and  C_5 
REMARK    6  A    between atoms: N_8  and  C_22 
REMARK    7  A    between atoms: C_17  and  S_9 
REMARK    8  A    between atoms: C_14  and  C_17 
REMARK    9  A    between atoms: C_15  and  C_14 
REMARK   10  A    between atoms: C_23  and  C_19 
ROOT
ATOM      1  C   UNL d   1     -41.504  13.901  20.844  0.00  0.00     0.202 C 
ATOM      2  O   UNL d   1     -40.997  14.226  21.407  0.00  0.00    -0.286 OA
ENDROOT
BRANCH   1   3
ATOM      3  C   UNL d   1     -41.351  14.004  20.041  0.00  0.00     0.080 C 
BRANCH   3   4
ATOM      4  S   UNL d   1     -40.574  14.132  19.779  0.00  0.00    -0.044 SA
BRANCH   4   5
ATOM      5  C   UNL d   1     -40.408  14.151  18.972  0.00  0.00     0.201 A 
ATOM      6  N   UNL d   1     -39.680  14.321  18.634  0.00  0.00    -0.267 N 
ATOM      7  C   UNL d   1     -39.760  14.279  17.812  0.00  0.00     0.177 A 
ATOM      8  N   UNL d   1     -40.542  14.083  17.650  0.00  0.00    -0.127 NA
ATOM      9  N   UNL d   1     -40.943  14.004  18.371  0.00  0.00    -0.121 NA
BRANCH   6  10
ATOM     10  C   UNL d   1     -39.004  14.498  19.071  0.00  0.00     0.084 C 
BRANCH  10  11
ATOM     11  C   UNL d   1     -38.632  13.908  19.514  0.00  0.00     0.019 C 
ATOM     12  C   UNL d   1     -37.947  14.086  19.948  0.00  0.00     0.002 C 
ENDBRANCH  10  11
ENDBRANCH   6  10
BRANCH   7  13
ATOM     13  C   UNL d   1     -39.188  14.404  17.237  0.00  0.00     0.066 A 
ATOM     14  S   UNL d   1     -38.950  15.133  16.935  0.00  0.00    -0.083 SA
ATOM     15  C   UNL d   1     -38.363  14.991  16.370  0.00  0.00     0.035 A 
ATOM     16  C   UNL d   1     -38.243  14.175  16.329  0.00  0.00     0.008 A 
ATOM     17  C   UNL d   1     -38.754  13.814  16.866  0.00  0.00     0.010 A 
ENDBRANCH   7  13
ENDBRANCH   4   5
ENDBRANCH   3   4
ENDBRANCH   1   3
BRANCH   1  18
ATOM     18  C   UNL d   1     -42.170  13.468  21.084  0.00  0.00     0.040 A 
ATOM     19  C   UNL d   1     -42.124  12.971  21.744  0.00  0.00     0.005 A 
ATOM     20  C   UNL d   1     -42.790  12.543  21.977  0.00  0.00     0.020 A 
ATOM     21  C   UNL d   1     -43.493  12.608  21.562  0.00  0.00     0.094 A 
ATOM     22  C   UNL d   1     -43.536  13.104  20.906  0.00  0.00     0.020 A 
ATOM     23  C   UNL d   1     -42.877  13.533  20.667  0.00  0.00     0.005 A 
BRANCH  21  24
ATOM     24  N   UNL d   1     -44.159  12.175  21.803  0.00  0.00    -0.158 NA
BRANCH  24  25
ATOM     25  S   UNL d   1     -44.796  12.558  22.151  0.00  0.00     0.285 S 
ATOM     26  O   UNL d   1     -45.014  12.875  21.414  0.00  0.00    -0.198 OA
ATOM     27  O   UNL d   1     -44.582  12.243  22.888  0.00  0.00    -0.198 OA
BRANCH  25  28
ATOM     28  C   UNL d   1     -45.441  12.942  22.512  0.00  0.00     0.105 A 
ATOM     29  C   UNL d   1     -45.610  13.731  22.338  0.00  0.00     0.013 A 
ATOM     30  C   UNL d   1     -46.244  14.107  22.694  0.00  0.00     0.001 A 
ATOM     31  C   UNL d   1     -46.726  13.694  23.237  0.00  0.00     0.000 A 
ATOM     32  C   UNL d   1     -46.557  12.906  23.410  0.00  0.00     0.001 A 
ATOM     33  C   UNL d   1     -45.920  12.530  23.052  0.00  0.00     0.013 A 
ENDBRANCH  25  28
ENDBRANCH  24  25
ENDBRANCH  21  24
ENDBRANCH   1  18
TORSDOF 10
ENDMDL
