MODEL 1
REMARK VINA RESULT:      60.6      0.000      0.000
REMARK  4 active torsions:
REMARK  status: ('A' for Active; 'I' for Inactive)
REMARK    1  A    between atoms: C_2  and  C_1 
REMARK    2  A    between atoms: C_3  and  C_1 
REMARK       I    between atoms: N_6  and  C_2 
REMARK    3  A    between atoms: C_13  and  C_3 
REMARK    4  A    between atoms: C_8  and  N_6 
ROOT
ATOM      1  C   UNL d   1      59.199  49.377  50.922  0.00  0.00     0.282 C 
ATOM      2  N   UNL d   1      59.562  48.690  51.284  0.00  0.00    -0.208 NA
ATOM      3  O   UNL d   1      59.519  49.703  50.232  0.00  0.00    -0.265 OA
ENDROOT
BRANCH   1   4
ATOM      4  C   UNL d   1      58.535  49.708  51.265  0.00  0.00     0.104 C 
BRANCH   4   5
ATOM      5  C   UNL d   1      57.822  49.279  51.266  0.00  0.00     0.200 C 
ATOM      6  O   UNL d   1      57.629  48.791  51.904  0.00  0.00    -0.286 OA
BRANCH   5   7
ATOM      7  C   UNL d   1      57.314  49.348  50.625  0.00  0.00     0.039 A 
ATOM      8  C   UNL d   1      57.569  49.130  49.871  0.00  0.00     0.003 A 
ATOM      9  C   UNL d   1      57.049  49.202  49.231  0.00  0.00     0.000 A 
ATOM     10  C   UNL d   1      56.290  49.488  49.348  0.00  0.00     0.000 A 
ATOM     11  C   UNL d   1      56.036  49.707  50.112  0.00  0.00     0.000 A 
ATOM     12  C   UNL d   1      56.546  49.638  50.753  0.00  0.00     0.003 A 
ENDBRANCH   5   7
ENDBRANCH   4   5
ENDBRANCH   1   4
BRANCH   2  13
ATOM     13  C   UNL d   1      60.247  48.360  50.919  0.00  0.00     0.087 A 
ATOM     14  C   UNL d   1      60.345  47.557  50.883  0.00  0.00     0.046 A 
ATOM     15  C   UNL d   1      60.997  47.243  50.535  0.00  0.00     0.124 A 
ATOM     16  O   UNL d   1      61.110  46.418  50.492  0.00  0.00    -0.301 OA
ATOM     17  C   UNL d   1      61.576  47.743  50.210  0.00  0.00     0.123 A 
ATOM     18  C   UNL d   1      61.766  46.097  50.142  0.00  0.00     0.149 A 
ATOM     19  C   UNL d   1      62.345  46.597  49.817  0.00  0.00     0.149 A 
ATOM     20  O   UNL d   1      62.261  47.413  49.845  0.00  0.00    -0.301 OA
ATOM     21  C   UNL d   1      61.497  48.552  50.236  0.00  0.00     0.028 A 
ATOM     22  C   UNL d   1      60.826  48.860  50.594  0.00  0.00     0.021 A 
ENDBRANCH   2  13
TORSDOF 4
ENDMDL
MODEL 2
REMARK VINA RESULT:      62.9      1.622      2.728
REMARK  4 active torsions:
REMARK  status: ('A' for Active; 'I' for Inactive)
REMARK    1  A    between atoms: C_2  and  C_1 
REMARK    2  A    between atoms: C_3  and  C_1 
REMARK       I    between atoms: N_6  and  C_2 
REMARK    3  A    between atoms: C_13  and  C_3 
REMARK    4  A    between atoms: C_8  and  N_6 
ROOT
ATOM      1  C   UNL d   1      61.273  47.941  50.517  0.00  0.00     0.282 C 
ATOM      2  N   UNL d   1      61.231  47.148  50.838  0.00  0.00    -0.208 NA
ATOM      3  O   UNL d   1      61.496  48.061  49.729  0.00  0.00    -0.265 OA
ENDROOT
BRANCH   1   4
ATOM      4  C   UNL d   1      61.092  48.578  50.996  0.00  0.00     0.104 C 
BRANCH   4   5
ATOM      5  C   UNL d   1      60.669  49.219  50.677  0.00  0.00     0.200 C 
ATOM      6  O   UNL d   1      61.004  49.687  50.083  0.00  0.00    -0.286 OA
BRANCH   5   7
ATOM      7  C   UNL d   1      59.916  49.382  50.960  0.00  0.00     0.039 A 
ATOM      8  C   UNL d   1      59.288  49.471  50.432  0.00  0.00     0.003 A 
ATOM      9  C   UNL d   1      58.532  49.635  50.726  0.00  0.00     0.000 A 
ATOM     10  C   UNL d   1      58.412  49.707  51.533  0.00  0.00     0.000 A 
ATOM     11  C   UNL d   1      59.049  49.616  52.064  0.00  0.00     0.000 A 
ATOM     12  C   UNL d   1      59.803  49.453  51.780  0.00  0.00     0.003 A 
ENDBRANCH   5   7
ENDBRANCH   4   5
ENDBRANCH   1   4
BRANCH   2  13
ATOM     13  C   UNL d   1      61.421  46.500  50.331  0.00  0.00     0.087 A 
ATOM     14  C   UNL d   1      60.966  45.829  50.336  0.00  0.00     0.046 A 
ATOM     15  C   UNL d   1      61.147  45.214  49.854  0.00  0.00     0.124 A 
ATOM     16  O   UNL d   1      60.687  44.518  49.849  0.00  0.00    -0.301 OA
ATOM     17  C   UNL d   1      61.804  45.262  49.347  0.00  0.00     0.123 A 
ATOM     18  C   UNL d   1      60.866  43.895  49.364  0.00  0.00     0.149 A 
ATOM     19  C   UNL d   1      61.523  43.943  48.857  0.00  0.00     0.149 A 
ATOM     20  O   UNL d   1      61.994  44.615  48.840  0.00  0.00    -0.301 OA
ATOM     21  C   UNL d   1      62.273  45.926  49.326  0.00  0.00     0.028 A 
ATOM     22  C   UNL d   1      62.077  46.549  49.824  0.00  0.00     0.021 A 
ENDBRANCH   2  13
TORSDOF 4
ENDMDL
