MODEL 1
REMARK VINA RESULT:      53.8      0.000      0.000
REMARK  3 active torsions:
REMARK  status: ('A' for Active; 'I' for Inactive)
REMARK    1  A    between atoms: C_7  and  C_3 
REMARK       I    between atoms: N_10  and  C_7 
REMARK    2  A    between atoms: C_16  and  N_10 
REMARK    3  A    between atoms: C_15  and  C_16 
ROOT
ATOM      1  C   UNL d   1     -54.923-101.114 -43.018  0.00  0.00     0.063 A 
ATOM      2  C   UNL d   1     -54.890-101.798 -42.549  0.00  0.00     0.033 A 
ATOM      3  C   UNL d   1     -54.823-101.559 -41.758  0.00  0.00     0.158 A 
ATOM      4  C   UNL d   1     -54.877-100.458 -42.520  0.00  0.00     0.099 A 
ATOM      5  O   UNL d   1     -54.815-100.733 -41.742  0.00  0.00    -0.302 OA
ATOM      6  C   UNL d   1     -54.990-101.021 -43.839  0.00  0.00     0.194 A 
ATOM      7  C   UNL d   1     -54.898 -99.705 -42.841  0.00  0.00     0.002 A 
ATOM      8  C   UNL d   1     -54.963 -99.591 -43.648  0.00  0.00     0.042 A 
ATOM      9  C   UNL d   1     -55.010-100.251 -44.148  0.00  0.00     0.019 A 
ATOM     10  O   UNL d   1     -55.037-101.684 -44.342  0.00  0.00    -0.287 OA
ATOM     11  C   UNL d   1     -54.905-102.618 -42.655  0.00  0.00     0.002 C 
ATOM     12  C   UNL d   1     -55.014 -99.089 -44.306  0.00  0.00     0.009 C 
ATOM     13  C   UNL d   1     -54.932 -98.828 -43.340  0.00  0.00     0.009 C 
ENDROOT
BRANCH   3  14
ATOM     14  C   UNL d   1     -54.772-102.056 -41.101  0.00  0.00     0.302 C 
ATOM     15  N   UNL d   1     -54.763-101.735 -40.335  0.00  0.00    -0.205 NA
ATOM     16  O   UNL d   1     -54.730-102.879 -41.204  0.00  0.00    -0.263 OA
BRANCH  15  17
ATOM     17  C   UNL d   1     -54.713-102.228 -39.676  0.00  0.00     0.104 C 
BRANCH  17  18
ATOM     18  C   UNL d   1     -54.836-101.922 -38.922  0.00  0.00     0.038 A 
ATOM     19  C   UNL d   1     -54.839-101.104 -38.807  0.00  0.00     0.101 A 
ATOM     20  N   UNL d   1     -54.962-100.805 -38.055  0.00  0.00    -0.242 NA
ATOM     21  C   UNL d   1     -55.081-101.303 -37.417  0.00  0.00     0.099 A 
ATOM     22  C   UNL d   1     -55.077-102.124 -37.536  0.00  0.00     0.021 A 
ATOM     23  C   UNL d   1     -54.954-102.430 -38.290  0.00  0.00     0.005 A 
ENDBRANCH  17  18
ENDBRANCH  15  17
ENDBRANCH   3  14
TORSDOF 3
ENDMDL
