MODEL 1
REMARK VINA RESULT:      19.2      0.000      0.000
REMARK  2 active torsions:
REMARK  status: ('A' for Active; 'I' for Inactive)
REMARK       I    between atoms: C_3  and  N_1 
REMARK    1  A    between atoms: C_7  and  C_3 
REMARK    2  A    between atoms: O_15  and  C_11 
ROOT
ATOM      1  N   UNL d   1     -52.333  24.630  33.307  0.00  0.00    -0.195 N 
ATOM      2  N   UNL d   1     -52.979  25.155  33.307  0.00  0.00    -0.163 NA
ATOM      3  C   UNL d   1     -51.532  24.815  33.307  0.00  0.00     0.280 C 
ATOM      4  C   UNL d   1     -52.602  23.889  33.307  0.00  0.00     0.088 A 
ATOM      5  C   UNL d   1     -53.435  23.905  33.307  0.00  0.00     0.040 A 
ATOM      6  C   UNL d   1     -53.660  24.689  33.307  0.00  0.00     0.103 A 
ATOM      7  O   UNL d   1     -50.983  24.213  33.307  0.00  0.00    -0.265 OA
ATOM      8  C   UNL d   1     -52.120  23.189  33.307  0.00  0.00     0.021 C 
ATOM      9  C   UNL d   1     -54.458  24.960  33.307  0.00  0.00     0.022 C 
ENDROOT
BRANCH   3  10
ATOM     10  C   UNL d   1     -51.268  25.605  33.307  0.00  0.00     0.058 A 
ATOM     11  C   UNL d   1     -50.460  25.765  33.306  0.00  0.00     0.007 A 
ATOM     12  C   UNL d   1     -50.187  26.540  33.306  0.00  0.00     0.024 A 
ATOM     13  C   UNL d   1     -50.724  27.160  33.307  0.00  0.00     0.094 A 
ATOM     14  C   UNL d   1     -51.535  27.008  33.308  0.00  0.00     0.024 A 
ATOM     15  C   UNL d   1     -51.816  26.239  33.308  0.00  0.00     0.007 A 
BRANCH  13  16
ATOM     16  O   UNL d   1     -50.434  27.942  33.307  0.00  0.00    -0.328 OA
ATOM     17  C   UNL d   1     -50.968  28.587  33.306  0.00  0.00     0.181 C 
ENDBRANCH  13  16
ENDBRANCH   3  10
TORSDOF 2
ENDMDL
