MODEL 1
REMARK VINA RESULT:      16.5      0.000      0.000
REMARK  2 active torsions:
REMARK  status: ('A' for Active; 'I' for Inactive)
REMARK    1  A    between atoms: N_4  and  C_1 
REMARK    2  A    between atoms: C_6  and  C_2 
ROOT
ATOM      1  C   UNL d   1     -54.807-101.849 -37.239  0.00  0.00     0.149 A 
ATOM      2  C   UNL d   1     -54.769-101.052 -37.004  0.00  0.00     0.056 A 
ATOM      3  N   UNL d   1     -54.859-102.451 -36.688  0.00  0.00    -0.228 NA
ATOM      4  C   UNL d   1     -54.783-100.871 -36.207  0.00  0.00     0.006 A 
ATOM      5  C   UNL d   1     -54.873-102.273 -35.889  0.00  0.00     0.083 A 
ATOM      6  C   UNL d   1     -54.835-101.483 -35.644  0.00  0.00     0.019 A 
ATOM      7  C   UNL d   1     -54.746-100.082 -35.952  0.00  0.00     0.000 C 
ATOM      8  C   UNL d   1     -54.925-102.877 -35.329  0.00  0.00     0.021 C 
ENDROOT
BRANCH   1   9
ATOM      9  N   UNL d   1     -54.793-102.033 -38.045  0.00  0.00    -0.289 N 
ATOM     10  C   UNL d   1     -54.811-102.723 -38.257  0.00  0.00     0.082 A 
ATOM     11  C   UNL d   1     -54.798-102.874 -38.959  0.00  0.00     0.021 A 
ATOM     12  C   UNL d   1     -54.751-101.662 -39.220  0.00  0.00     0.021 A 
ATOM     13  C   UNL d   1     -54.764-101.512 -38.522  0.00  0.00     0.082 A 
ENDBRANCH   1   9
BRANCH   2  14
ATOM     14  C   UNL d   1     -54.718-100.457 -37.562  0.00  0.00     0.125 C 
ATOM     15  N   UNL d   1     -54.758 -99.671 -37.330  0.00  0.00    -0.146 N 
ENDBRANCH   2  14
TORSDOF 2
ENDMDL
