MODEL 1
REMARK VINA RESULT:      67.6      0.000      0.000
REMARK  3 active torsions:
REMARK  status: ('A' for Active; 'I' for Inactive)
REMARK    1  A    between atoms: C_8  and  C_1 
REMARK    2  A    between atoms: C_3  and  N_14 
REMARK       I    between atoms: N_13  and  C_8 
REMARK    3  A    between atoms: N_14  and  N_13 
ROOT
ATOM      1  C   UNL d   1     -50.725  26.674  33.998  0.00  0.00     0.320 C 
ATOM      2  N   UNL d   1     -50.809  26.880  34.786  0.00  0.00    -0.102 NA
ATOM      3  O   UNL d   1     -50.460  27.089  33.325  0.00  0.00    -0.261 OA
ENDROOT
BRANCH   1   4
ATOM      4  C   UNL d   1     -50.945  25.902  33.827  0.00  0.00     0.162 A 
ATOM      5  C   UNL d   1     -50.369  25.345  33.658  0.00  0.00     0.072 A 
ATOM      6  C   UNL d   1     -50.583  24.568  33.486  0.00  0.00     0.200 A 
ATOM      7  O   UNL d   1     -49.992  23.997  33.312  0.00  0.00    -0.286 OA
ATOM      8  C   UNL d   1     -51.383  24.348  33.483  0.00  0.00     0.062 A 
ATOM      9  C   UNL d   1     -51.957  24.908  33.652  0.00  0.00     0.103 A 
ATOM     10  C   UNL d   1     -51.598  23.571  33.310  0.00  0.00     0.005 A 
ATOM     11  O   UNL d   1     -51.736  25.680  33.823  0.00  0.00    -0.302 OA
ATOM     12  C   UNL d   1     -52.748  24.698  33.651  0.00  0.00     0.025 A 
ATOM     13  C   UNL d   1     -52.970  23.922  33.479  0.00  0.00     0.002 A 
ATOM     14  C   UNL d   1     -52.388  23.360  33.309  0.00  0.00     0.000 A 
ENDBRANCH   1   4
BRANCH   2  15
ATOM     15  N   UNL d   1     -51.093  26.326  35.320  0.00  0.00    -0.118 NA
BRANCH  15  16
ATOM     16  C   UNL d   1     -51.095  26.493  36.136  0.00  0.00     0.215 A 
ATOM     17  N   UNL d   1     -51.435  26.032  36.723  0.00  0.00    -0.219 NA
ATOM     18  C   UNL d   1     -51.312  26.393  37.450  0.00  0.00     0.090 A 
ATOM     19  C   UNL d   1     -51.523  26.190  38.217  0.00  0.00     0.018 A 
ATOM     20  C   UNL d   1     -50.886  27.093  37.307  0.00  0.00     0.050 A 
ATOM     21  C   UNL d   1     -51.313  26.681  38.846  0.00  0.00     0.002 A 
ATOM     22  C   UNL d   1     -51.948  25.490  38.356  0.00  0.00     0.002 C 
ATOM     23  C   UNL d   1     -50.892  27.373  38.703  0.00  0.00     0.001 A 
ATOM     24  C   UNL d   1     -50.671  27.590  37.930  0.00  0.00     0.008 A 
ATOM     25  S   UNL d   1     -50.755  27.150  36.497  0.00  0.00    -0.045 SA
ENDBRANCH  15  16
ENDBRANCH   2  15
TORSDOF 3
ENDMDL
