MODEL 1
REMARK VINA RESULT:      -6.7      0.000      0.000
REMARK  7 active torsions:
REMARK  status: ('A' for Active; 'I' for Inactive)
REMARK    1  A    between atoms: S_10  and  C_3 
REMARK    2  A    between atoms: C_12  and  C_7 
REMARK    3  A    between atoms: C_19  and  S_10 
REMARK    4  A    between atoms: C_11  and  C_19 
REMARK       I    between atoms: N_14  and  C_11 
REMARK    5  A    between atoms: C_13  and  C_15 
REMARK    6  A    between atoms: C_15  and  N_14 
REMARK    7  A    between atoms: O_21  and  C_17 
ROOT
ATOM      1  N   UNL d   1     -48.455  12.436  23.236  0.00  0.00    -0.186 N 
ATOM      2  N   UNL d   1     -48.906  13.115  23.189  0.00  0.00    -0.162 NA
ATOM      3  C   UNL d   1     -47.640  12.320  23.315  0.00  0.00     0.217 A 
ATOM      4  C   UNL d   1     -48.807  11.693  23.206  0.00  0.00     0.187 A 
ATOM      5  N   UNL d   1     -47.505  11.515  23.332  0.00  0.00    -0.120 NA
ATOM      6  N   UNL d   1     -48.227  11.124  23.265  0.00  0.00    -0.127 NA
ATOM      7  C   UNL d   1     -49.726  13.053  23.110  0.00  0.00     0.103 A 
ATOM      8  C   UNL d   1     -49.631  11.633  23.127  0.00  0.00     0.042 A 
ATOM      9  C   UNL d   1     -50.085  12.308  23.079  0.00  0.00     0.024 A 
ENDROOT
BRANCH   3  10
ATOM     10  S   UNL d   1     -47.054  12.898  23.369  0.00  0.00    -0.041 SA
BRANCH  10  11
ATOM     11  C   UNL d   1     -46.445  12.920  22.831  0.00  0.00     0.101 C 
BRANCH  11  12
ATOM     12  C   UNL d   1     -45.973  13.581  22.773  0.00  0.00     0.286 C 
ATOM     13  N   UNL d   1     -45.205  13.519  22.481  0.00  0.00    -0.206 NA
ATOM     14  O   UNL d   1     -46.249  14.326  23.003  0.00  0.00    -0.265 OA
BRANCH  13  15
ATOM     15  C   UNL d   1     -44.920  12.780  22.249  0.00  0.00     0.104 C 
BRANCH  15  16
ATOM     16  C   UNL d   1     -44.154  12.711  21.950  0.00  0.00     0.042 A 
ATOM     17  C   UNL d   1     -43.678  12.069  22.172  0.00  0.00     0.096 A 
ATOM     18  C   UNL d   1     -42.910  11.996  21.875  0.00  0.00     0.024 A 
ATOM     19  C   UNL d   1     -42.621  12.575  21.351  0.00  0.00     0.002 A 
ATOM     20  C   UNL d   1     -43.099  13.211  21.134  0.00  0.00     0.000 A 
ATOM     21  C   UNL d   1     -43.861  13.280  21.430  0.00  0.00     0.004 A 
BRANCH  17  22
ATOM     22  O   UNL d   1     -43.964  11.496  22.691  0.00  0.00    -0.328 OA
ATOM     23  C   UNL d   1     -43.450  10.974  23.053  0.00  0.00     0.181 C 
ENDBRANCH  17  22
ENDBRANCH  15  16
ENDBRANCH  13  15
ENDBRANCH  11  12
ENDBRANCH  10  11
ENDBRANCH   3  10
BRANCH   7  24
ATOM     24  C   UNL d   1     -50.177  13.743  23.063  0.00  0.00     0.039 A 
ATOM     25  C   UNL d   1     -50.603  14.005  23.698  0.00  0.00     0.101 A 
ATOM     26  N   UNL d   1     -51.045  14.684  23.647  0.00  0.00    -0.242 NA
ATOM     27  C   UNL d   1     -51.064  15.115  22.943  0.00  0.00     0.099 A 
ATOM     28  C   UNL d   1     -50.631  14.849  22.298  0.00  0.00     0.021 A 
ATOM     29  C   UNL d   1     -50.183  14.159  22.352  0.00  0.00     0.005 A 
ENDBRANCH   7  24
TORSDOF 7
ENDMDL
MODEL 2
REMARK VINA RESULT:      -5.6      0.750      1.049
REMARK  7 active torsions:
REMARK  status: ('A' for Active; 'I' for Inactive)
REMARK    1  A    between atoms: S_10  and  C_3 
REMARK    2  A    between atoms: C_12  and  C_7 
REMARK    3  A    between atoms: C_19  and  S_10 
REMARK    4  A    between atoms: C_11  and  C_19 
REMARK       I    between atoms: N_14  and  C_11 
REMARK    5  A    between atoms: C_13  and  C_15 
REMARK    6  A    between atoms: C_15  and  N_14 
REMARK    7  A    between atoms: O_21  and  C_17 
ROOT
ATOM      1  N   UNL d   1     -48.654  12.615  23.077  0.00  0.00    -0.186 N 
ATOM      2  N   UNL d   1     -49.051  13.316  22.953  0.00  0.00    -0.162 NA
ATOM      3  C   UNL d   1     -47.849  12.426  23.053  0.00  0.00     0.217 A 
ATOM      4  C   UNL d   1     -49.063  11.925  23.264  0.00  0.00     0.187 A 
ATOM      5  N   UNL d   1     -47.777  11.630  23.224  0.00  0.00    -0.120 NA
ATOM      6  N   UNL d   1     -48.528  11.318  23.355  0.00  0.00    -0.127 NA
ATOM      7  C   UNL d   1     -49.875  13.333  23.017  0.00  0.00     0.103 A 
ATOM      8  C   UNL d   1     -49.890  11.945  23.328  0.00  0.00     0.042 A 
ATOM      9  C   UNL d   1     -50.292  12.644  23.205  0.00  0.00     0.024 A 
ENDROOT
BRANCH   3  10
ATOM     10  S   UNL d   1     -47.219  12.932  22.888  0.00  0.00    -0.041 SA
BRANCH  10  11
ATOM     11  C   UNL d   1     -46.467  12.639  22.796  0.00  0.00     0.101 C 
BRANCH  11  12
ATOM     12  C   UNL d   1     -45.853  13.139  22.606  0.00  0.00     0.286 C 
ATOM     13  N   UNL d   1     -45.077  12.863  22.612  0.00  0.00    -0.206 NA
ATOM     14  O   UNL d   1     -45.991  13.929  22.404  0.00  0.00    -0.265 OA
BRANCH  13  15
ATOM     15  C   UNL d   1     -44.929  12.076  22.812  0.00  0.00     0.104 C 
BRANCH  15  16
ATOM     16  C   UNL d   1     -44.166  11.769  22.733  0.00  0.00     0.042 A 
ATOM     17  C   UNL d   1     -43.976  11.040  23.080  0.00  0.00     0.096 A 
ATOM     18  C   UNL d   1     -43.213  10.728  23.005  0.00  0.00     0.024 A 
ATOM     19  C   UNL d   1     -42.641  11.156  22.575  0.00  0.00     0.002 A 
ATOM     20  C   UNL d   1     -42.838  11.880  22.233  0.00  0.00     0.000 A 
ATOM     21  C   UNL d   1     -43.595  12.186  22.311  0.00  0.00     0.004 A 
BRANCH  17  22
ATOM     22  O   UNL d   1     -44.542  10.617  23.505  0.00  0.00    -0.328 OA
ATOM     23  C   UNL d   1     -44.413   9.834  23.697  0.00  0.00     0.181 C 
ENDBRANCH  17  22
ENDBRANCH  15  16
ENDBRANCH  13  15
ENDBRANCH  11  12
ENDBRANCH  10  11
ENDBRANCH   3  10
BRANCH   7  24
ATOM     24  C   UNL d   1     -50.273  14.047  22.890  0.00  0.00     0.039 A 
ATOM     25  C   UNL d   1     -50.413  14.317  22.142  0.00  0.00     0.101 A 
ATOM     26  N   UNL d   1     -50.804  15.018  22.023  0.00  0.00    -0.242 NA
ATOM     27  C   UNL d   1     -51.063  15.464  22.668  0.00  0.00     0.099 A 
ATOM     28  C   UNL d   1     -50.920  15.189  23.429  0.00  0.00     0.021 A 
ATOM     29  C   UNL d   1     -50.523  14.477  23.547  0.00  0.00     0.005 A 
ENDBRANCH   7  24
TORSDOF 7
ENDMDL
MODEL 3
REMARK VINA RESULT:      -5.4      1.583      5.859
REMARK  7 active torsions:
REMARK  status: ('A' for Active; 'I' for Inactive)
REMARK    1  A    between atoms: S_10  and  C_3 
REMARK    2  A    between atoms: C_12  and  C_7 
REMARK    3  A    between atoms: C_19  and  S_10 
REMARK    4  A    between atoms: C_11  and  C_19 
REMARK       I    between atoms: N_14  and  C_11 
REMARK    5  A    between atoms: C_13  and  C_15 
REMARK    6  A    between atoms: C_15  and  N_14 
REMARK    7  A    between atoms: O_21  and  C_17 
ROOT
ATOM      1  N   UNL d   1     -45.719  12.638  22.970  0.00  0.00    -0.186 N 
ATOM      2  N   UNL d   1     -45.064  12.850  22.533  0.00  0.00    -0.162 NA
ATOM      3  C   UNL d   1     -46.397  13.060  23.188  0.00  0.00     0.217 A 
ATOM      4  C   UNL d   1     -45.790  11.881  23.285  0.00  0.00     0.187 A 
ATOM      5  N   UNL d   1     -46.868  12.559  23.629  0.00  0.00    -0.120 NA
ATOM      6  N   UNL d   1     -46.494  11.828  23.691  0.00  0.00    -0.127 NA
ATOM      7  C   UNL d   1     -44.464  12.296  22.406  0.00  0.00     0.103 A 
ATOM      8  C   UNL d   1     -45.185  11.326  23.156  0.00  0.00     0.042 A 
ATOM      9  C   UNL d   1     -44.529  11.533  22.720  0.00  0.00     0.024 A 
ENDROOT
BRANCH   3  10
ATOM     10  S   UNL d   1     -46.581  13.842  23.004  0.00  0.00    -0.041 SA
BRANCH  10  11
ATOM     11  C   UNL d   1     -47.353  14.069  22.893  0.00  0.00     0.101 C 
BRANCH  11  12
ATOM     12  C   UNL d   1     -47.526  14.816  22.619  0.00  0.00     0.286 C 
ATOM     13  N   UNL d   1     -48.308  15.071  22.574  0.00  0.00    -0.206 NA
ATOM     14  O   UNL d   1     -46.927  15.334  22.382  0.00  0.00    -0.265 OA
BRANCH  13  15
ATOM     15  C   UNL d   1     -48.913  14.562  22.809  0.00  0.00     0.104 C 
BRANCH  15  16
ATOM     16  C   UNL d   1     -49.631  14.872  23.076  0.00  0.00     0.042 A 
ATOM     17  C   UNL d   1     -50.331  14.437  22.983  0.00  0.00     0.096 A 
ATOM     18  C   UNL d   1     -51.052  14.743  23.248  0.00  0.00     0.024 A 
ATOM     19  C   UNL d   1     -51.064  15.494  23.609  0.00  0.00     0.002 A 
ATOM     20  C   UNL d   1     -50.365  15.922  23.698  0.00  0.00     0.000 A 
ATOM     21  C   UNL d   1     -49.652  15.615  23.433  0.00  0.00     0.004 A 
BRANCH  17  22
ATOM     22  O   UNL d   1     -50.318  13.694  22.626  0.00  0.00    -0.328 OA
ATOM     23  C   UNL d   1     -50.991  13.233  22.608  0.00  0.00     0.181 C 
ENDBRANCH  17  22
ENDBRANCH  15  16
ENDBRANCH  13  15
ENDBRANCH  11  12
ENDBRANCH  10  11
ENDBRANCH   3  10
BRANCH   7  24
ATOM     24  C   UNL d   1     -43.802  12.516  21.963  0.00  0.00     0.039 A 
ATOM     25  C   UNL d   1     -43.083  12.170  22.090  0.00  0.00     0.101 A 
ATOM     26  N   UNL d   1     -42.437  12.390  21.652  0.00  0.00    -0.242 NA
ATOM     27  C   UNL d   1     -42.506  12.971  21.070  0.00  0.00     0.099 A 
ATOM     28  C   UNL d   1     -43.237  13.323  20.940  0.00  0.00     0.021 A 
ATOM     29  C   UNL d   1     -43.893  13.098  21.387  0.00  0.00     0.005 A 
ENDBRANCH   7  24
TORSDOF 7
ENDMDL
MODEL 4
REMARK VINA RESULT:      -5.0      2.000      3.489
REMARK  7 active torsions:
REMARK  status: ('A' for Active; 'I' for Inactive)
REMARK    1  A    between atoms: S_10  and  C_3 
REMARK    2  A    between atoms: C_12  and  C_7 
REMARK    3  A    between atoms: C_19  and  S_10 
REMARK    4  A    between atoms: C_11  and  C_19 
REMARK       I    between atoms: N_14  and  C_11 
REMARK    5  A    between atoms: C_13  and  C_15 
REMARK    6  A    between atoms: C_15  and  N_14 
REMARK    7  A    between atoms: O_21  and  C_17 
ROOT
ATOM      1  N   UNL d   1     -46.042  13.573  22.483  0.00  0.00    -0.186 N 
ATOM      2  N   UNL d   1     -46.518  12.917  22.574  0.00  0.00    -0.162 NA
ATOM      3  C   UNL d   1     -45.261  13.655  22.221  0.00  0.00     0.217 A 
ATOM      4  C   UNL d   1     -46.320  14.325  22.665  0.00  0.00     0.187 A 
ATOM      5  N   UNL d   1     -45.074  14.450  22.247  0.00  0.00    -0.120 NA
ATOM      6  N   UNL d   1     -45.729  14.867  22.522  0.00  0.00    -0.127 NA
ATOM      7  C   UNL d   1     -47.290  13.011  22.853  0.00  0.00     0.103 A 
ATOM      8  C   UNL d   1     -47.096  14.417  22.946  0.00  0.00     0.042 A 
ATOM      9  C   UNL d   1     -47.576  13.765  23.038  0.00  0.00     0.024 A 
ENDROOT
BRANCH   3  10
ATOM     10  S   UNL d   1     -44.749  13.057  21.975  0.00  0.00    -0.041 SA
BRANCH  10  11
ATOM     11  C   UNL d   1     -43.994  13.234  21.732  0.00  0.00     0.101 C 
BRANCH  11  12
ATOM     12  C   UNL d   1     -43.433  12.647  21.675  0.00  0.00     0.286 C 
ATOM     13  N   UNL d   1     -42.659  12.832  21.460  0.00  0.00    -0.206 NA
ATOM     14  O   UNL d   1     -43.623  11.857  21.830  0.00  0.00    -0.265 OA
BRANCH  13  15
ATOM     15  C   UNL d   1     -42.460  13.617  21.303  0.00  0.00     0.104 C 
BRANCH  15  16
ATOM     16  C   UNL d   1     -41.666  13.837  21.258  0.00  0.00     0.042 A 
ATOM     17  C   UNL d   1     -41.462  14.604  21.015  0.00  0.00     0.096 A 
ATOM     18  C   UNL d   1     -40.667  14.830  20.968  0.00  0.00     0.024 A 
ATOM     19  C   UNL d   1     -40.076  14.277  21.167  0.00  0.00     0.002 A 
ATOM     20  C   UNL d   1     -40.286  13.516  21.407  0.00  0.00     0.000 A 
ATOM     21  C   UNL d   1     -41.075  13.296  21.453  0.00  0.00     0.004 A 
BRANCH  17  22
ATOM     22  O   UNL d   1     -42.047  15.151  20.818  0.00  0.00    -0.328 OA
ATOM     23  C   UNL d   1     -41.845  15.918  20.623  0.00  0.00     0.181 C 
ENDBRANCH  17  22
ENDBRANCH  15  16
ENDBRANCH  13  15
ENDBRANCH  11  12
ENDBRANCH  10  11
ENDBRANCH   3  10
BRANCH   7  24
ATOM     24  C   UNL d   1     -47.769  12.343  22.943  0.00  0.00     0.039 A 
ATOM     25  C   UNL d   1     -47.614  11.796  23.517  0.00  0.00     0.101 A 
ATOM     26  N   UNL d   1     -48.087  11.143  23.601  0.00  0.00    -0.242 NA
ATOM     27  C   UNL d   1     -48.733  11.029  23.100  0.00  0.00     0.099 A 
ATOM     28  C   UNL d   1     -48.890  11.585  22.517  0.00  0.00     0.021 A 
ATOM     29  C   UNL d   1     -48.408  12.249  22.433  0.00  0.00     0.005 A 
ENDBRANCH   7  24
TORSDOF 7
ENDMDL
MODEL 5
REMARK VINA RESULT:      -4.8      2.554      4.087
REMARK  7 active torsions:
REMARK  status: ('A' for Active; 'I' for Inactive)
REMARK    1  A    between atoms: S_10  and  C_3 
REMARK    2  A    between atoms: C_12  and  C_7 
REMARK    3  A    between atoms: C_19  and  S_10 
REMARK    4  A    between atoms: C_11  and  C_19 
REMARK       I    between atoms: N_14  and  C_11 
REMARK    5  A    between atoms: C_13  and  C_15 
REMARK    6  A    between atoms: C_15  and  N_14 
REMARK    7  A    between atoms: O_21  and  C_17 
ROOT
ATOM      1  N   UNL d   1     -44.585  12.411  22.333  0.00  0.00    -0.186 N 
ATOM      2  N   UNL d   1     -45.220  12.917  22.256  0.00  0.00    -0.162 NA
ATOM      3  C   UNL d   1     -43.838  12.405  21.978  0.00  0.00     0.217 A 
ATOM      4  C   UNL d   1     -44.620  11.763  22.839  0.00  0.00     0.187 A 
ATOM      5  N   UNL d   1     -43.430  11.760  22.269  0.00  0.00    -0.120 NA
ATOM      6  N   UNL d   1     -43.914  11.360  22.803  0.00  0.00    -0.127 NA
ATOM      7  C   UNL d   1     -45.907  12.776  22.693  0.00  0.00     0.103 A 
ATOM      8  C   UNL d   1     -45.312  11.624  23.277  0.00  0.00     0.042 A 
ATOM      9  C   UNL d   1     -45.949  12.127  23.203  0.00  0.00     0.024 A 
ENDROOT
BRANCH   3  10
ATOM     10  S   UNL d   1     -43.539  12.943  21.428  0.00  0.00    -0.041 SA
BRANCH  10  11
ATOM     11  C   UNL d   1     -42.738  13.054  21.352  0.00  0.00     0.101 C 
BRANCH  11  12
ATOM     12  C   UNL d   1     -42.419  13.256  20.631  0.00  0.00     0.286 C 
ATOM     13  N   UNL d   1     -41.747  13.732  20.594  0.00  0.00    -0.206 NA
ATOM     14  O   UNL d   1     -42.757  12.993  19.924  0.00  0.00    -0.265 OA
BRANCH  13  15
ATOM     15  C   UNL d   1     -41.402  14.000  21.294  0.00  0.00     0.104 C 
BRANCH  15  16
ATOM     16  C   UNL d   1     -40.833  14.598  21.268  0.00  0.00     0.042 A 
ATOM     17  C   UNL d   1     -40.075  14.462  21.578  0.00  0.00     0.096 A 
ATOM     18  C   UNL d   1     -39.501  15.057  21.555  0.00  0.00     0.024 A 
ATOM     19  C   UNL d   1     -39.695  15.794  21.216  0.00  0.00     0.002 A 
ATOM     20  C   UNL d   1     -40.450  15.922  20.910  0.00  0.00     0.000 A 
ATOM     21  C   UNL d   1     -41.017  15.329  20.935  0.00  0.00     0.004 A 
BRANCH  17  22
ATOM     22  O   UNL d   1     -39.884  13.733  21.913  0.00  0.00    -0.328 OA
ATOM     23  C   UNL d   1     -39.153  13.617  22.257  0.00  0.00     0.181 C 
ENDBRANCH  17  22
ENDBRANCH  15  16
ENDBRANCH  13  15
ENDBRANCH  11  12
ENDBRANCH  10  11
ENDBRANCH   3  10
BRANCH   7  24
ATOM     24  C   UNL d   1     -46.547  13.292  22.611  0.00  0.00     0.039 A 
ATOM     25  C   UNL d   1     -47.207  13.074  22.200  0.00  0.00     0.101 A 
ATOM     26  N   UNL d   1     -47.833  13.584  22.122  0.00  0.00    -0.242 NA
ATOM     27  C   UNL d   1     -47.802  14.335  22.463  0.00  0.00     0.099 A 
ATOM     28  C   UNL d   1     -47.131  14.558  22.881  0.00  0.00     0.021 A 
ATOM     29  C   UNL d   1     -46.496  14.038  22.959  0.00  0.00     0.005 A 
ENDBRANCH   7  24
TORSDOF 7
ENDMDL
MODEL 6
REMARK VINA RESULT:      -4.5      3.351      7.791
REMARK  7 active torsions:
REMARK  status: ('A' for Active; 'I' for Inactive)
REMARK    1  A    between atoms: S_10  and  C_3 
REMARK    2  A    between atoms: C_12  and  C_7 
REMARK    3  A    between atoms: C_19  and  S_10 
REMARK    4  A    between atoms: C_11  and  C_19 
REMARK       I    between atoms: N_14  and  C_11 
REMARK    5  A    between atoms: C_13  and  C_15 
REMARK    6  A    between atoms: C_15  and  N_14 
REMARK    7  A    between atoms: O_21  and  C_17 
ROOT
ATOM      1  N   UNL d   1     -41.394  14.544  20.408  0.00  0.00    -0.186 N 
ATOM      2  N   UNL d   1     -40.931  14.151  19.863  0.00  0.00    -0.162 NA
ATOM      3  C   UNL d   1     -41.992  14.281  20.915  0.00  0.00     0.217 A 
ATOM      4  C   UNL d   1     -41.306  15.354  20.531  0.00  0.00     0.187 A 
ATOM      5  N   UNL d   1     -42.260  14.927  21.338  0.00  0.00    -0.120 NA
ATOM      6  N   UNL d   1     -41.836  15.592  21.101  0.00  0.00    -0.127 NA
ATOM      7  C   UNL d   1     -40.367  14.573  19.430  0.00  0.00     0.103 A 
ATOM      8  C   UNL d   1     -40.739  15.774  20.095  0.00  0.00     0.042 A 
ATOM      9  C   UNL d   1     -40.274  15.386  19.549  0.00  0.00     0.024 A 
ENDROOT
BRANCH   3  10
ATOM     10  S   UNL d   1     -42.280  13.513  20.995  0.00  0.00    -0.041 SA
BRANCH  10  11
ATOM     11  C   UNL d   1     -42.985  13.373  21.372  0.00  0.00     0.101 C 
BRANCH  11  12
ATOM     12  C   UNL d   1     -43.199  12.614  21.575  0.00  0.00     0.286 C 
ATOM     13  N   UNL d   1     -43.943  12.464  21.895  0.00  0.00    -0.206 NA
ATOM     14  O   UNL d   1     -42.680  11.980  21.466  0.00  0.00    -0.265 OA
BRANCH  13  15
ATOM     15  C   UNL d   1     -44.469  13.090  22.007  0.00  0.00     0.104 C 
BRANCH  15  16
ATOM     16  C   UNL d   1     -45.182  12.961  22.403  0.00  0.00     0.042 A 
ATOM     17  C   UNL d   1     -45.693  13.597  22.553  0.00  0.00     0.096 A 
ATOM     18  C   UNL d   1     -46.409  13.473  22.949  0.00  0.00     0.024 A 
ATOM     19  C   UNL d   1     -46.609  12.702  23.193  0.00  0.00     0.002 A 
ATOM     20  C   UNL d   1     -46.096  12.074  23.040  0.00  0.00     0.000 A 
ATOM     21  C   UNL d   1     -45.387  12.201  22.647  0.00  0.00     0.004 A 
BRANCH  17  22
ATOM     22  O   UNL d   1     -45.495  14.360  22.311  0.00  0.00    -0.328 OA
ATOM     23  C   UNL d   1     -46.004  14.983  22.454  0.00  0.00     0.181 C 
ENDBRANCH  17  22
ENDBRANCH  15  16
ENDBRANCH  13  15
ENDBRANCH  11  12
ENDBRANCH  10  11
ENDBRANCH   3  10
BRANCH   7  24
ATOM     24  C   UNL d   1     -39.901  14.170  18.879  0.00  0.00     0.039 A 
ATOM     25  C   UNL d   1     -40.187  13.990  18.145  0.00  0.00     0.101 A 
ATOM     26  N   UNL d   1     -39.726  13.595  17.608  0.00  0.00    -0.242 NA
ATOM     27  C   UNL d   1     -38.956  13.370  17.806  0.00  0.00     0.099 A 
ATOM     28  C   UNL d   1     -38.665  13.552  18.553  0.00  0.00     0.021 A 
ATOM     29  C   UNL d   1     -39.136  13.955  19.097  0.00  0.00     0.005 A 
ENDBRANCH   7  24
TORSDOF 7
ENDMDL
MODEL 7
REMARK VINA RESULT:      -4.2      1.281      2.087
REMARK  7 active torsions:
REMARK  status: ('A' for Active; 'I' for Inactive)
REMARK    1  A    between atoms: S_10  and  C_3 
REMARK    2  A    between atoms: C_12  and  C_7 
REMARK    3  A    between atoms: C_19  and  S_10 
REMARK    4  A    between atoms: C_11  and  C_19 
REMARK       I    between atoms: N_14  and  C_11 
REMARK    5  A    between atoms: C_13  and  C_15 
REMARK    6  A    between atoms: C_15  and  N_14 
REMARK    7  A    between atoms: O_21  and  C_17 
ROOT
ATOM      1  N   UNL d   1     -49.513  12.141  23.314  0.00  0.00    -0.186 N 
ATOM      2  N   UNL d   1     -49.431  12.937  23.152  0.00  0.00    -0.162 NA
ATOM      3  C   UNL d   1     -48.978  11.512  23.270  0.00  0.00     0.217 A 
ATOM      4  C   UNL d   1     -50.232  11.835  23.573  0.00  0.00     0.187 A 
ATOM      5  N   UNL d   1     -49.373  10.835  23.500  0.00  0.00    -0.120 NA
ATOM      6  N   UNL d   1     -50.150  11.033  23.689  0.00  0.00    -0.127 NA
ATOM      7  C   UNL d   1     -50.079  13.440  23.251  0.00  0.00     0.103 A 
ATOM      8  C   UNL d   1     -50.881  12.343  23.672  0.00  0.00     0.042 A 
ATOM      9  C   UNL d   1     -50.804  13.138  23.511  0.00  0.00     0.024 A 
ENDROOT
BRANCH   3  10
ATOM     10  S   UNL d   1     -48.187  11.541  23.038  0.00  0.00    -0.041 SA
BRANCH  10  11
ATOM     11  C   UNL d   1     -47.599  11.653  23.587  0.00  0.00     0.101 C 
BRANCH  11  12
ATOM     12  C   UNL d   1     -46.890  11.259  23.515  0.00  0.00     0.286 C 
ATOM     13  N   UNL d   1     -46.217  11.659  23.259  0.00  0.00    -0.206 NA
ATOM     14  O   UNL d   1     -46.827  10.455  23.695  0.00  0.00    -0.265 OA
BRANCH  13  15
ATOM     15  C   UNL d   1     -46.270  12.463  23.076  0.00  0.00     0.104 C 
BRANCH  15  16
ATOM     16  C   UNL d   1     -45.664  12.827  22.650  0.00  0.00     0.042 A 
ATOM     17  C   UNL d   1     -45.657  13.652  22.563  0.00  0.00     0.096 A 
ATOM     18  C   UNL d   1     -45.052  14.022  22.137  0.00  0.00     0.024 A 
ATOM     19  C   UNL d   1     -44.451  13.555  21.798  0.00  0.00     0.002 A 
ATOM     20  C   UNL d   1     -44.464  12.735  21.889  0.00  0.00     0.000 A 
ATOM     21  C   UNL d   1     -45.065  12.372  22.312  0.00  0.00     0.004 A 
BRANCH  17  22
ATOM     22  O   UNL d   1     -46.252  14.114  22.898  0.00  0.00    -0.328 OA
ATOM     23  C   UNL d   1     -46.378  14.877  22.637  0.00  0.00     0.181 C 
ENDBRANCH  17  22
ENDBRANCH  15  16
ENDBRANCH  13  15
ENDBRANCH  11  12
ENDBRANCH  10  11
ENDBRANCH   3  10
BRANCH   7  24
ATOM     24  C   UNL d   1     -49.991  14.245  23.086  0.00  0.00     0.039 A 
ATOM     25  C   UNL d   1     -49.859  14.778  23.678  0.00  0.00     0.101 A 
ATOM     26  N   UNL d   1     -49.773  15.567  23.511  0.00  0.00    -0.242 NA
ATOM     27  C   UNL d   1     -49.819  15.835  22.731  0.00  0.00     0.099 A 
ATOM     28  C   UNL d   1     -49.954  15.293  22.129  0.00  0.00     0.021 A 
ATOM     29  C   UNL d   1     -50.041  14.491  22.301  0.00  0.00     0.005 A 
ENDBRANCH   7  24
TORSDOF 7
ENDMDL
MODEL 8
REMARK VINA RESULT:      -4.0      8.329     10.171
REMARK  7 active torsions:
REMARK  status: ('A' for Active; 'I' for Inactive)
REMARK    1  A    between atoms: S_10  and  C_3 
REMARK    2  A    between atoms: C_12  and  C_7 
REMARK    3  A    between atoms: C_19  and  S_10 
REMARK    4  A    between atoms: C_11  and  C_19 
REMARK       I    between atoms: N_14  and  C_11 
REMARK    5  A    between atoms: C_13  and  C_15 
REMARK    6  A    between atoms: C_15  and  N_14 
REMARK    7  A    between atoms: O_21  and  C_17 
ROOT
ATOM      1  N   UNL d   1     -39.213  14.901  19.989  0.00  0.00    -0.186 N 
ATOM      2  N   UNL d   1     -39.024  14.450  20.642  0.00  0.00    -0.162 NA
ATOM      3  C   UNL d   1     -38.991  14.839  19.194  0.00  0.00     0.217 A 
ATOM      4  C   UNL d   1     -39.712  15.552  20.055  0.00  0.00     0.187 A 
ATOM      5  N   UNL d   1     -39.354  15.449  18.789  0.00  0.00    -0.120 NA
ATOM      6  N   UNL d   1     -39.801  15.891  19.320  0.00  0.00    -0.127 NA
ATOM      7  C   UNL d   1     -39.338  14.652  21.379  0.00  0.00     0.103 A 
ATOM      8  C   UNL d   1     -40.027  15.753  20.797  0.00  0.00     0.042 A 
ATOM      9  C   UNL d   1     -39.840  15.306  21.452  0.00  0.00     0.024 A 
ENDROOT
BRANCH   3  10
ATOM     10  S   UNL d   1     -38.496  14.275  18.854  0.00  0.00    -0.041 SA
BRANCH  10  11
ATOM     11  C   UNL d   1     -38.599  14.047  18.081  0.00  0.00     0.101 C 
BRANCH  11  12
ATOM     12  C   UNL d   1     -38.211  13.393  17.791  0.00  0.00     0.286 C 
ATOM     13  N   UNL d   1     -37.982  13.364  17.000  0.00  0.00    -0.206 NA
ATOM     14  O   UNL d   1     -38.037  12.748  18.277  0.00  0.00    -0.265 OA
BRANCH  13  15
ATOM     15  C   UNL d   1     -38.151  14.003  16.506  0.00  0.00     0.104 C 
BRANCH  15  16
ATOM     16  C   UNL d   1     -38.088  13.917  15.687  0.00  0.00     0.042 A 
ATOM     17  C   UNL d   1     -38.102  14.587  15.198  0.00  0.00     0.096 A 
ATOM     18  C   UNL d   1     -38.039  14.507  14.377  0.00  0.00     0.024 A 
ATOM     19  C   UNL d   1     -37.962  13.744  14.050  0.00  0.00     0.002 A 
ATOM     20  C   UNL d   1     -37.949  13.082  14.542  0.00  0.00     0.000 A 
ATOM     21  C   UNL d   1     -38.012  13.167  15.355  0.00  0.00     0.004 A 
BRANCH  17  22
ATOM     22  O   UNL d   1     -38.178  15.341  15.522  0.00  0.00    -0.328 OA
ATOM     23  C   UNL d   1     -38.610  15.915  15.134  0.00  0.00     0.181 C 
ENDBRANCH  17  22
ENDBRANCH  15  16
ENDBRANCH  13  15
ENDBRANCH  11  12
ENDBRANCH  10  11
ENDBRANCH   3  10
BRANCH   7  24
ATOM     24  C   UNL d   1     -39.143  14.193  22.038  0.00  0.00     0.039 A 
ATOM     25  C   UNL d   1     -39.703  13.750  22.416  0.00  0.00     0.101 A 
ATOM     26  N   UNL d   1     -39.507  13.301  23.062  0.00  0.00    -0.242 NA
ATOM     27  C   UNL d   1     -38.730  13.290  23.341  0.00  0.00     0.099 A 
ATOM     28  C   UNL d   1     -38.160  13.741  22.957  0.00  0.00     0.021 A 
ATOM     29  C   UNL d   1     -38.362  14.197  22.300  0.00  0.00     0.005 A 
ENDBRANCH   7  24
TORSDOF 7
ENDMDL
