MODEL 1
REMARK VINA RESULT:      -0.4      0.000      0.000
REMARK  2 active torsions:
REMARK  status: ('A' for Active; 'I' for Inactive)
REMARK    1  A    between atoms: CA_2  and  C_1 
REMARK    2  A    between atoms: C_3  and  CA_2 
ROOT
ATOM      1  C   UNL d   1      45.413 -13.452  44.152  0.00  0.00     0.053 A 
ATOM      2  C   UNL d   1      45.807 -12.739  44.313  0.00  0.00     0.142 A 
ATOM      3  F   UNL d   1      46.328 -12.692  44.951  0.00  0.00    -0.204 F 
ATOM      4  C   UNL d   1      44.887 -13.499  43.508  0.00  0.00     0.004 A 
ATOM      5  C   UNL d   1      45.672 -12.080  43.831  0.00  0.00     0.030 A 
ATOM      6  C   UNL d   1      44.759 -12.831  43.030  0.00  0.00     0.000 A 
ATOM      7  C   UNL d   1      45.151 -12.126  43.193  0.00  0.00     0.002 A 
ENDROOT
BRANCH   1   8
ATOM      8  CA  UNL d   1      45.543 -14.111  44.628  0.00  0.00     0.169 C 
ATOM      9  N   UNL d   1      46.292 -14.258  44.940  0.00  0.00    -0.142 N 
BRANCH   8  10
ATOM     10  C   UNL d   1      44.918 -14.625  44.790  0.00  0.00     0.231 C 
ATOM     11  O   UNL d   1      44.167 -14.332  44.955  0.00  0.00    -0.643 OA
ATOM     12  OXT UNL d   1      45.047 -15.441  44.789  0.00  0.00    -0.643 OA
ENDBRANCH   8  10
ENDBRANCH   1   8
TORSDOF 2
ENDMDL
MODEL 2
REMARK VINA RESULT:      -0.4      5.663      6.212
REMARK  2 active torsions:
REMARK  status: ('A' for Active; 'I' for Inactive)
REMARK    1  A    between atoms: CA_2  and  C_1 
REMARK    2  A    between atoms: C_3  and  CA_2 
ROOT
ATOM      1  C   UNL d   1      46.384 -19.359  43.194  0.00  0.00     0.053 A 
ATOM      2  C   UNL d   1      46.433 -18.743  42.639  0.00  0.00     0.142 A 
ATOM      3  F   UNL d   1      46.353 -17.960  42.888  0.00  0.00    -0.204 F 
ATOM      4  C   UNL d   1      46.465 -20.149  42.943  0.00  0.00     0.004 A 
ATOM      5  C   UNL d   1      46.561 -18.920  41.842  0.00  0.00     0.030 A 
ATOM      6  C   UNL d   1      46.594 -20.316  42.139  0.00  0.00     0.000 A 
ATOM      7  C   UNL d   1      46.641 -19.702  41.593  0.00  0.00     0.002 A 
ENDROOT
BRANCH   1   8
ATOM      8  CA  UNL d   1      46.257 -19.190  43.989  0.00  0.00     0.169 C 
ATOM      9  N   UNL d   1      46.325 -18.415  44.265  0.00  0.00    -0.142 N 
BRANCH   8  10
ATOM     10  C   UNL d   1      46.060 -19.800  44.509  0.00  0.00     0.231 C 
ATOM     11  O   UNL d   1      46.646 -20.206  44.919  0.00  0.00    -0.643 OA
ATOM     12  OXT UNL d   1      45.268 -20.005  44.620  0.00  0.00    -0.643 OA
ENDBRANCH   8  10
ENDBRANCH   1   8
TORSDOF 2
ENDMDL
MODEL 3
REMARK VINA RESULT:       1.4      5.382      6.282
REMARK  2 active torsions:
REMARK  status: ('A' for Active; 'I' for Inactive)
REMARK    1  A    between atoms: CA_2  and  C_1 
REMARK    2  A    between atoms: C_3  and  CA_2 
ROOT
ATOM      1  C   UNL d   1      46.298 -19.212  43.373  0.00  0.00     0.053 A 
ATOM      2  C   UNL d   1      45.948 -19.961  43.460  0.00  0.00     0.142 A 
ATOM      3  F   UNL d   1      45.603 -20.330  42.808  0.00  0.00    -0.204 F 
ATOM      4  C   UNL d   1      46.647 -18.839  44.032  0.00  0.00     0.004 A 
ATOM      5  C   UNL d   1      45.949 -20.329  44.201  0.00  0.00     0.030 A 
ATOM      6  C   UNL d   1      46.642 -19.218  44.771  0.00  0.00     0.000 A 
ATOM      7  C   UNL d   1      46.294 -19.959  44.853  0.00  0.00     0.002 A 
ENDROOT
BRANCH   1   8
ATOM      8  CA  UNL d   1      46.301 -18.840  42.639  0.00  0.00     0.169 C 
ATOM      9  N   UNL d   1      46.547 -19.250  41.967  0.00  0.00    -0.142 N 
BRANCH   8  10
ATOM     10  C   UNL d   1      46.055 -18.055  42.579  0.00  0.00     0.231 C 
ATOM     11  O   UNL d   1      45.262 -17.872  42.464  0.00  0.00    -0.643 OA
ATOM     12  OXT UNL d   1      46.610 -17.446  42.636  0.00  0.00    -0.643 OA
ENDBRANCH   8  10
ENDBRANCH   1   8
TORSDOF 2
ENDMDL
