MODEL 1
REMARK VINA RESULT:      -8.4      0.000      0.000
REMARK  6 active torsions:
REMARK  status: ('A' for Active; 'I' for Inactive)
REMARK    1  A    between atoms: N_14  and  C_6 
REMARK    2  A    between atoms: C_20  and  N_14 
REMARK    3  A    between atoms: O_19  and  C_22 
REMARK    4  A    between atoms: C_23  and  O_19 
REMARK    5  A    between atoms: C_22  and  C_20 
REMARK    6  A    between atoms: C_21  and  C_23 
ROOT
ATOM      1  N   UNL d   1      51.947  33.352  52.981  0.00  0.00    -0.193 N 
ATOM      2  C   UNL d   1      52.681  33.204  53.339  0.00  0.00     0.168 A 
ATOM      3  C   UNL d   1      52.987  32.446  53.363  0.00  0.00     0.073 A 
ATOM      4  C   UNL d   1      52.557  31.837  53.027  0.00  0.00     0.185 A 
ATOM      5  N   UNL d   1      51.823  31.986  52.669  0.00  0.00    -0.143 NA
ATOM      6  C   UNL d   1      51.656  34.116  52.967  0.00  0.00     0.167 A 
ATOM      7  N   UNL d   1      53.104  33.823  53.673  0.00  0.00    -0.227 NA
ATOM      8  C   UNL d   1      53.713  32.299  53.717  0.00  0.00     0.007 A 
ATOM      9  N   UNL d   1      52.854  31.064  53.043  0.00  0.00    -0.225 NA
ATOM     10  C   UNL d   1      52.071  34.732  53.296  0.00  0.00     0.058 A 
ATOM     11  C   UNL d   1      54.020  31.542  53.741  0.00  0.00     0.019 A 
ATOM     12  C   UNL d   1      52.805  34.584  53.654  0.00  0.00     0.086 A 
ATOM     13  C   UNL d   1      53.588  30.916  53.401  0.00  0.00     0.083 A 
ATOM     14  C   UNL d   1      54.138  32.922  54.053  0.00  0.00     0.000 C 
ATOM     15  C   UNL d   1      53.243  35.230  54.001  0.00  0.00     0.021 C 
ATOM     16  C   UNL d   1      53.888  30.159  53.422  0.00  0.00     0.021 C 
ENDROOT
BRANCH   6  17
ATOM     17  N   UNL d   1      50.899  34.260  52.596  0.00  0.00    -0.223 NA
BRANCH  17  18
ATOM     18  C   UNL d   1      50.075  34.448  52.589  0.00  0.00     0.127 C 
BRANCH  18  19
ATOM     19  C   UNL d   1      49.651  34.459  51.849  0.00  0.00     0.143 C 
BRANCH  19  20
ATOM     20  O   UNL d   1      48.854  34.754  51.813  0.00  0.00    -0.298 OA
BRANCH  20  21
ATOM     21  C   UNL d   1      48.422  34.745  51.077  0.00  0.00     0.168 C 
BRANCH  21  22
ATOM     22  C   UNL d   1      47.668  35.140  51.022  0.00  0.00     0.261 C 
ATOM     23  O   UNL d   1      47.001  34.731  50.674  0.00  0.00    -0.281 OA
ENDBRANCH  21  22
ENDBRANCH  20  21
ENDBRANCH  19  20
ENDBRANCH  18  19
ENDBRANCH  17  18
ENDBRANCH   6  17
TORSDOF 6
ENDMDL
MODEL 2
REMARK VINA RESULT:      -7.9      1.303      2.414
REMARK  6 active torsions:
REMARK  status: ('A' for Active; 'I' for Inactive)
REMARK    1  A    between atoms: N_14  and  C_6 
REMARK    2  A    between atoms: C_20  and  N_14 
REMARK    3  A    between atoms: O_19  and  C_22 
REMARK    4  A    between atoms: C_23  and  O_19 
REMARK    5  A    between atoms: C_22  and  C_20 
REMARK    6  A    between atoms: C_21  and  C_23 
ROOT
ATOM      1  N   UNL d   1      52.236  33.727  53.675  0.00  0.00    -0.193 N 
ATOM      2  C   UNL d   1      52.867  33.200  53.794  0.00  0.00     0.168 A 
ATOM      3  C   UNL d   1      53.518  33.423  54.237  0.00  0.00     0.073 A 
ATOM      4  C   UNL d   1      53.536  34.174  54.558  0.00  0.00     0.185 A 
ATOM      5  N   UNL d   1      52.905  34.701  54.439  0.00  0.00    -0.143 NA
ATOM      6  C   UNL d   1      51.595  33.486  53.230  0.00  0.00     0.167 A 
ATOM      7  N   UNL d   1      52.838  32.448  53.466  0.00  0.00    -0.227 NA
ATOM      8  C   UNL d   1      54.142  32.902  54.355  0.00  0.00     0.007 A 
ATOM      9  N   UNL d   1      54.188  34.415  55.008  0.00  0.00    -0.225 NA
ATOM     10  C   UNL d   1      51.561  32.743  52.903  0.00  0.00     0.058 A 
ATOM     11  C   UNL d   1      54.793  33.125  54.796  0.00  0.00     0.019 A 
ATOM     12  C   UNL d   1      52.192  32.216  53.023  0.00  0.00     0.086 A 
ATOM     13  C   UNL d   1      54.819  33.888  55.128  0.00  0.00     0.083 A 
ATOM     14  C   UNL d   1      54.112  32.147  54.024  0.00  0.00     0.000 C 
ATOM     15  C   UNL d   1      52.158  31.435  52.680  0.00  0.00     0.021 C 
ATOM     16  C   UNL d   1      55.464  34.116  55.569  0.00  0.00     0.021 C 
ENDROOT
BRANCH   6  17
ATOM     17  N   UNL d   1      50.949  34.035  53.112  0.00  0.00    -0.223 NA
BRANCH  17  18
ATOM     18  C   UNL d   1      50.288  34.360  52.697  0.00  0.00     0.127 C 
BRANCH  18  19
ATOM     19  C   UNL d   1      49.719  34.838  53.115  0.00  0.00     0.143 C 
BRANCH  19  20
ATOM     20  O   UNL d   1      49.060  35.181  52.705  0.00  0.00    -0.298 OA
BRANCH  20  21
ATOM     21  C   UNL d   1      48.512  35.691  53.116  0.00  0.00     0.168 C 
BRANCH  21  22
ATOM     22  C   UNL d   1      47.840  36.016  52.701  0.00  0.00     0.261 C 
ATOM     23  O   UNL d   1      47.446  36.709  53.011  0.00  0.00    -0.281 OA
ENDBRANCH  21  22
ENDBRANCH  20  21
ENDBRANCH  19  20
ENDBRANCH  18  19
ENDBRANCH  17  18
ENDBRANCH   6  17
TORSDOF 6
ENDMDL
MODEL 3
REMARK VINA RESULT:      -6.4      2.685      4.875
REMARK  6 active torsions:
REMARK  status: ('A' for Active; 'I' for Inactive)
REMARK    1  A    between atoms: N_14  and  C_6 
REMARK    2  A    between atoms: C_20  and  N_14 
REMARK    3  A    between atoms: O_19  and  C_22 
REMARK    4  A    between atoms: C_23  and  O_19 
REMARK    5  A    between atoms: C_22  and  C_20 
REMARK    6  A    between atoms: C_21  and  C_23 
ROOT
ATOM      1  N   UNL d   1      52.980  32.597  53.341  0.00  0.00    -0.193 N 
ATOM      2  C   UNL d   1      52.817  33.382  53.556  0.00  0.00     0.168 A 
ATOM      3  C   UNL d   1      52.115  33.738  53.332  0.00  0.00     0.073 A 
ATOM      4  C   UNL d   1      51.578  33.306  52.892  0.00  0.00     0.185 A 
ATOM      5  N   UNL d   1      51.742  32.521  52.677  0.00  0.00    -0.143 NA
ATOM      6  C   UNL d   1      53.686  32.258  53.574  0.00  0.00     0.167 A 
ATOM      7  N   UNL d   1      53.364  33.806  53.998  0.00  0.00    -0.227 NA
ATOM      8  C   UNL d   1      51.953  34.515  53.545  0.00  0.00     0.007 A 
ATOM      9  N   UNL d   1      50.863  33.653  52.658  0.00  0.00    -0.225 NA
ATOM     10  C   UNL d   1      54.231  32.674  54.011  0.00  0.00     0.058 A 
ATOM     11  C   UNL d   1      51.253  34.871  53.321  0.00  0.00     0.019 A 
ATOM     12  C   UNL d   1      54.067  33.458  54.226  0.00  0.00     0.086 A 
ATOM     13  C   UNL d   1      50.700  34.438  52.873  0.00  0.00     0.083 A 
ATOM     14  C   UNL d   1      52.504  34.940  53.989  0.00  0.00     0.000 C 
ATOM     15  C   UNL d   1      54.638  33.896  54.686  0.00  0.00     0.021 C 
ATOM     16  C   UNL d   1      50.000  34.787  52.647  0.00  0.00     0.021 C 
ENDROOT
BRANCH   6  17
ATOM     17  N   UNL d   1      53.846  31.448  53.348  0.00  0.00    -0.223 NA
BRANCH  17  18
ATOM     18  C   UNL d   1      54.119  30.659  53.476  0.00  0.00     0.127 C 
BRANCH  18  19
ATOM     19  C   UNL d   1      53.559  30.016  53.492  0.00  0.00     0.143 C 
BRANCH  19  20
ATOM     20  O   UNL d   1      53.746  29.292  53.897  0.00  0.00    -0.298 OA
BRANCH  20  21
ATOM     21  C   UNL d   1      53.197  28.956  54.457  0.00  0.00     0.168 C 
BRANCH  21  22
ATOM     22  C   UNL d   1      53.474  28.402  55.044  0.00  0.00     0.261 C 
ATOM     23  O   UNL d   1      53.089  28.366  55.808  0.00  0.00    -0.281 OA
ENDBRANCH  21  22
ENDBRANCH  20  21
ENDBRANCH  19  20
ENDBRANCH  18  19
ENDBRANCH  17  18
ENDBRANCH   6  17
TORSDOF 6
ENDMDL
MODEL 4
REMARK VINA RESULT:      -6.4      2.713      4.593
REMARK  6 active torsions:
REMARK  status: ('A' for Active; 'I' for Inactive)
REMARK    1  A    between atoms: N_14  and  C_6 
REMARK    2  A    between atoms: C_20  and  N_14 
REMARK    3  A    between atoms: O_19  and  C_22 
REMARK    4  A    between atoms: C_23  and  O_19 
REMARK    5  A    between atoms: C_22  and  C_20 
REMARK    6  A    between atoms: C_21  and  C_23 
ROOT
ATOM      1  N   UNL d   1      53.121  32.408  53.513  0.00  0.00    -0.193 N 
ATOM      2  C   UNL d   1      53.101  33.199  53.762  0.00  0.00     0.168 A 
ATOM      3  C   UNL d   1      53.688  33.499  54.247  0.00  0.00     0.073 A 
ATOM      4  C   UNL d   1      54.294  33.004  54.482  0.00  0.00     0.185 A 
ATOM      5  N   UNL d   1      54.314  32.212  54.233  0.00  0.00    -0.143 NA
ATOM      6  C   UNL d   1      52.527  32.126  53.029  0.00  0.00     0.167 A 
ATOM      7  N   UNL d   1      52.486  33.687  53.519  0.00  0.00    -0.227 NA
ATOM      8  C   UNL d   1      53.667  34.283  54.493  0.00  0.00     0.007 A 
ATOM      9  N   UNL d   1      54.895  33.293  54.973  0.00  0.00    -0.225 NA
ATOM     10  C   UNL d   1      51.917  32.605  52.786  0.00  0.00     0.058 A 
ATOM     11  C   UNL d   1      54.253  34.583  54.977  0.00  0.00     0.019 A 
ATOM     12  C   UNL d   1      51.896  33.397  53.035  0.00  0.00     0.086 A 
ATOM     13  C   UNL d   1      54.875  34.085  55.221  0.00  0.00     0.083 A 
ATOM     14  C   UNL d   1      53.050  34.772  54.248  0.00  0.00     0.000 C 
ATOM     15  C   UNL d   1      51.256  33.901  52.780  0.00  0.00     0.021 C 
ATOM     16  C   UNL d   1      55.462  34.377  55.704  0.00  0.00     0.021 C 
ENDROOT
BRANCH   6  17
ATOM     17  N   UNL d   1      52.555  31.308  52.778  0.00  0.00    -0.223 NA
BRANCH  17  18
ATOM     18  C   UNL d   1      52.317  30.498  52.786  0.00  0.00     0.127 C 
BRANCH  18  19
ATOM     19  C   UNL d   1      52.885  29.892  52.983  0.00  0.00     0.143 C 
BRANCH  19  20
ATOM     20  O   UNL d   1      52.718  29.327  53.594  0.00  0.00    -0.298 OA
BRANCH  20  21
ATOM     21  C   UNL d   1      53.354  28.941  54.012  0.00  0.00     0.168 C 
BRANCH  21  22
ATOM     22  C   UNL d   1      53.303  28.833  54.857  0.00  0.00     0.261 C 
ATOM     23  O   UNL d   1      53.431  28.056  55.193  0.00  0.00    -0.281 OA
ENDBRANCH  21  22
ENDBRANCH  20  21
ENDBRANCH  19  20
ENDBRANCH  18  19
ENDBRANCH  17  18
ENDBRANCH   6  17
TORSDOF 6
ENDMDL
MODEL 5
REMARK VINA RESULT:      -5.9      9.685     10.565
REMARK  6 active torsions:
REMARK  status: ('A' for Active; 'I' for Inactive)
REMARK    1  A    between atoms: N_14  and  C_6 
REMARK    2  A    between atoms: C_20  and  N_14 
REMARK    3  A    between atoms: O_19  and  C_22 
REMARK    4  A    between atoms: C_23  and  O_19 
REMARK    5  A    between atoms: C_22  and  C_20 
REMARK    6  A    between atoms: C_21  and  C_23 
ROOT
ATOM      1  N   UNL d   1      44.858  28.803  57.890  0.00  0.00    -0.193 N 
ATOM      2  C   UNL d   1      44.768  29.619  58.017  0.00  0.00     0.168 A 
ATOM      3  C   UNL d   1      44.755  29.924  58.776  0.00  0.00     0.073 A 
ATOM      4  C   UNL d   1      44.831  29.410  59.407  0.00  0.00     0.185 A 
ATOM      5  N   UNL d   1      44.921  28.595  59.280  0.00  0.00    -0.143 NA
ATOM      6  C   UNL d   1      44.869  28.517  57.125  0.00  0.00     0.167 A 
ATOM      7  N   UNL d   1      44.693  30.125  57.374  0.00  0.00    -0.227 NA
ATOM      8  C   UNL d   1      44.667  30.731  58.900  0.00  0.00     0.007 A 
ATOM      9  N   UNL d   1      44.820  29.704  60.181  0.00  0.00    -0.225 NA
ATOM     10  C   UNL d   1      44.794  29.014  56.486  0.00  0.00     0.058 A 
ATOM     11  C   UNL d   1      44.653  31.036  59.658  0.00  0.00     0.019 A 
ATOM     12  C   UNL d   1      44.705  29.829  56.613  0.00  0.00     0.086 A 
ATOM     13  C   UNL d   1      44.730  30.520  60.307  0.00  0.00     0.083 A 
ATOM     14  C   UNL d   1      44.591  31.239  58.254  0.00  0.00     0.000 C 
ATOM     15  C   UNL d   1      44.627  30.353  55.943  0.00  0.00     0.021 C 
ATOM     16  C   UNL d   1      44.718  30.817  61.065  0.00  0.00     0.021 C 
ENDROOT
BRANCH   6  17
ATOM     17  N   UNL d   1      44.961  27.674  57.004  0.00  0.00    -0.223 NA
BRANCH  17  18
ATOM     18  C   UNL d   1      45.343  26.984  56.702  0.00  0.00     0.127 C 
BRANCH  18  19
ATOM     19  C   UNL d   1      44.887  26.277  56.560  0.00  0.00     0.143 C 
BRANCH  19  20
ATOM     20  O   UNL d   1      45.180  25.672  56.040  0.00  0.00    -0.298 OA
BRANCH  20  21
ATOM     21  C   UNL d   1      44.826  24.895  56.038  0.00  0.00     0.168 C 
BRANCH  21  22
ATOM     22  C   UNL d   1      44.853  24.418  55.331  0.00  0.00     0.261 C 
ATOM     23  O   UNL d   1      45.225  23.647  55.355  0.00  0.00    -0.281 OA
ENDBRANCH  21  22
ENDBRANCH  20  21
ENDBRANCH  19  20
ENDBRANCH  18  19
ENDBRANCH  17  18
ENDBRANCH   6  17
TORSDOF 6
ENDMDL
MODEL 6
REMARK VINA RESULT:      -5.8     10.388     10.969
REMARK  6 active torsions:
REMARK  status: ('A' for Active; 'I' for Inactive)
REMARK    1  A    between atoms: N_14  and  C_6 
REMARK    2  A    between atoms: C_20  and  N_14 
REMARK    3  A    between atoms: O_19  and  C_22 
REMARK    4  A    between atoms: C_23  and  O_19 
REMARK    5  A    between atoms: C_22  and  C_20 
REMARK    6  A    between atoms: C_21  and  C_23 
ROOT
ATOM      1  N   UNL d   1      44.903  28.510  58.813  0.00  0.00    -0.193 N 
ATOM      2  C   UNL d   1      44.879  28.013  58.149  0.00  0.00     0.168 A 
ATOM      3  C   UNL d   1      44.834  27.201  58.238  0.00  0.00     0.073 A 
ATOM      4  C   UNL d   1      44.813  26.889  58.993  0.00  0.00     0.185 A 
ATOM      5  N   UNL d   1      44.837  27.386  59.657  0.00  0.00    -0.143 NA
ATOM      6  C   UNL d   1      44.948  29.319  58.705  0.00  0.00     0.167 A 
ATOM      7  N   UNL d   1      44.900  28.339  57.395  0.00  0.00    -0.227 NA
ATOM      8  C   UNL d   1      44.809  26.709  57.581  0.00  0.00     0.007 A 
ATOM      9  N   UNL d   1      44.767  26.069  59.099  0.00  0.00    -0.225 NA
ATOM     10  C   UNL d   1      44.970  29.646  57.961  0.00  0.00     0.058 A 
ATOM     11  C   UNL d   1      44.764  25.898  57.668  0.00  0.00     0.019 A 
ATOM     12  C   UNL d   1      44.945  29.149  57.297  0.00  0.00     0.086 A 
ATOM     13  C   UNL d   1      44.743  25.572  58.434  0.00  0.00     0.083 A 
ATOM     14  C   UNL d   1      44.831  27.037  56.823  0.00  0.00     0.000 C 
ATOM     15  C   UNL d   1      44.968  29.490  56.515  0.00  0.00     0.021 C 
ATOM     16  C   UNL d   1      44.698  24.764  58.529  0.00  0.00     0.021 C 
ENDROOT
BRANCH   6  17
ATOM     17  N   UNL d   1      44.973  29.824  59.396  0.00  0.00    -0.223 NA
BRANCH  17  18
ATOM     18  C   UNL d   1      45.117  30.547  59.808  0.00  0.00     0.127 C 
BRANCH  18  19
ATOM     19  C   UNL d   1      44.583  30.796  60.425  0.00  0.00     0.143 C 
BRANCH  19  20
ATOM     20  O   UNL d   1      44.876  31.203  61.111  0.00  0.00    -0.298 OA
BRANCH  20  21
ATOM     21  C   UNL d   1      44.412  31.233  61.827  0.00  0.00     0.168 C 
BRANCH  21  22
ATOM     22  C   UNL d   1      44.422  31.937  62.309  0.00  0.00     0.261 C 
ATOM     23  O   UNL d   1      44.329  31.870  63.158  0.00  0.00    -0.281 OA
ENDBRANCH  21  22
ENDBRANCH  20  21
ENDBRANCH  19  20
ENDBRANCH  18  19
ENDBRANCH  17  18
ENDBRANCH   6  17
TORSDOF 6
ENDMDL
