MODEL 1
REMARK VINA RESULT:     -10.0      0.000      0.000
REMARK  4 active torsions:
REMARK  status: ('A' for Active; 'I' for Inactive)
REMARK    1  A    between atoms: C_8  and  N_1 
REMARK    2  A    between atoms: C_11  and  C_13 
REMARK       I    between atoms: N_14  and  C_11 
REMARK    3  A    between atoms: C_18  and  N_14 
REMARK    4  A    between atoms: C_20  and  C_18 
ROOT
ATOM      1  C   UNL d   1      51.380  34.046  52.760  0.00  0.00     0.066 A 
ATOM      2  C   UNL d   1      50.721  34.388  53.119  0.00  0.00     0.022 A 
ATOM      3  C   UNL d   1      50.099  34.666  52.646  0.00  0.00     0.059 A 
ATOM      4  C   UNL d   1      51.424  33.979  51.934  0.00  0.00     0.017 A 
ATOM      5  C   UNL d   1      50.144  34.598  51.820  0.00  0.00     0.005 A 
ATOM      6  C   UNL d   1      50.805  34.256  51.471  0.00  0.00     0.002 A 
ENDROOT
BRANCH   1   7
ATOM      7  N   UNL d   1      51.999  33.769  53.223  0.00  0.00    -0.261 N 
ATOM      8  C   UNL d   1      52.513  34.367  53.456  0.00  0.00     0.174 A 
ATOM      9  O   UNL d   1      53.205  34.396  53.912  0.00  0.00    -0.316 OA
ATOM     10  C   UNL d   1      52.529  33.138  53.690  0.00  0.00     0.079 A 
ATOM     11  C   UNL d   1      52.427  35.158  53.255  0.00  0.00     0.055 C 
ATOM     12  C   UNL d   1      53.663  33.846  54.317  0.00  0.00     0.094 A 
ATOM     13  C   UNL d   1      54.288  34.275  54.656  0.00  0.00     0.024 A 
ATOM     14  C   UNL d   1      53.622  33.030  54.438  0.00  0.00     0.022 A 
ATOM     15  C   UNL d   1      54.859  33.889  55.106  0.00  0.00     0.002 A 
ATOM     16  C   UNL d   1      54.812  33.073  55.223  0.00  0.00    -0.000 A 
ATOM     17  C   UNL d   1      54.194  32.643  54.889  0.00  0.00    -0.001 A 
ATOM     18  C   UNL d   1      53.109  32.431  54.205  0.00  0.00     0.137 A 
ATOM     19  N   UNL d   1      52.412  32.394  53.748  0.00  0.00    -0.216 NA
ATOM     20  C   UNL d   1      51.955  32.944  53.343  0.00  0.00     0.348 A 
ATOM     21  O   UNL d   1      51.307  32.608  52.972  0.00  0.00    -0.245 OA
ENDBRANCH   1   7
BRANCH   3  22
ATOM     22  C   UNL d   1      49.439  35.008  53.005  0.00  0.00     0.279 C 
ATOM     23  N   UNL d   1      48.794  35.234  52.549  0.00  0.00    -0.206 NA
ATOM     24  O   UNL d   1      49.433  35.122  53.824  0.00  0.00    -0.265 OA
BRANCH  23  25
ATOM     25  C   UNL d   1      48.133  35.577  52.911  0.00  0.00     0.102 C 
BRANCH  25  26
ATOM     26  C   UNL d   1      47.480  35.785  52.455  0.00  0.00     0.019 A 
ATOM     27  C   UNL d   1      47.290  35.355  51.776  0.00  0.00     0.002 A 
ATOM     28  C   UNL d   1      46.634  35.570  51.326  0.00  0.00     0.000 A 
ATOM     29  C   UNL d   1      46.164  36.210  51.543  0.00  0.00     0.000 A 
ATOM     30  C   UNL d   1      46.358  36.640  52.227  0.00  0.00     0.000 A 
ATOM     31  C   UNL d   1      47.011  36.430  52.680  0.00  0.00     0.002 A 
ENDBRANCH  25  26
ENDBRANCH  23  25
ENDBRANCH   3  22
TORSDOF 4
ENDMDL
MODEL 2
REMARK VINA RESULT:      -9.7      1.765      2.809
REMARK  4 active torsions:
REMARK  status: ('A' for Active; 'I' for Inactive)
REMARK    1  A    between atoms: C_8  and  N_1 
REMARK    2  A    between atoms: C_11  and  C_13 
REMARK       I    between atoms: N_14  and  C_11 
REMARK    3  A    between atoms: C_18  and  N_14 
REMARK    4  A    between atoms: C_20  and  C_18 
ROOT
ATOM      1  C   UNL d   1      52.904  32.969  53.312  0.00  0.00     0.066 A 
ATOM      2  C   UNL d   1      52.172  33.344  53.381  0.00  0.00     0.022 A 
ATOM      3  C   UNL d   1      52.126  34.166  53.283  0.00  0.00     0.059 A 
ATOM      4  C   UNL d   1      53.589  33.406  53.145  0.00  0.00     0.017 A 
ATOM      5  C   UNL d   1      52.812  34.602  53.116  0.00  0.00     0.005 A 
ATOM      6  C   UNL d   1      53.537  34.220  53.048  0.00  0.00     0.002 A 
ENDROOT
BRANCH   1   7
ATOM      7  N   UNL d   1      52.956  32.155  53.409  0.00  0.00    -0.261 N 
ATOM      8  C   UNL d   1      53.229  31.942  54.154  0.00  0.00     0.174 A 
ATOM      9  O   UNL d   1      53.382  31.220  54.535  0.00  0.00    -0.316 OA
ATOM     10  C   UNL d   1      52.892  31.240  53.175  0.00  0.00     0.079 A 
ATOM     11  C   UNL d   1      53.431  32.474  54.746  0.00  0.00     0.055 C 
ATOM     12  C   UNL d   1      53.325  30.426  54.329  0.00  0.00     0.094 A 
ATOM     13  C   UNL d   1      53.574  29.999  54.996  0.00  0.00     0.024 A 
ATOM     14  C   UNL d   1      53.090  30.015  53.652  0.00  0.00     0.022 A 
ATOM     15  C   UNL d   1      53.587  29.176  54.981  0.00  0.00     0.002 A 
ATOM     16  C   UNL d   1      53.350  28.772  54.301  0.00  0.00    -0.000 A 
ATOM     17  C   UNL d   1      53.102  29.191  53.637  0.00  0.00    -0.001 A 
ATOM     18  C   UNL d   1      52.817  30.228  52.907  0.00  0.00     0.137 A 
ATOM     19  N   UNL d   1      52.661  30.949  52.517  0.00  0.00    -0.216 NA
ATOM     20  C   UNL d   1      52.718  31.743  52.724  0.00  0.00     0.348 A 
ATOM     21  O   UNL d   1      52.490  32.246  52.119  0.00  0.00    -0.245 OA
ENDBRANCH   1   7
BRANCH   3  22
ATOM     22  C   UNL d   1      51.395  34.541  53.352  0.00  0.00     0.279 C 
ATOM     23  N   UNL d   1      50.811  34.410  52.789  0.00  0.00    -0.206 NA
ATOM     24  O   UNL d   1      51.255  35.048  53.990  0.00  0.00    -0.265 OA
BRANCH  23  25
ATOM     25  C   UNL d   1      50.077  34.788  52.861  0.00  0.00     0.102 C 
BRANCH  25  26
ATOM     26  C   UNL d   1      49.541  34.759  52.237  0.00  0.00     0.019 A 
ATOM     27  C   UNL d   1      49.731  34.360  51.539  0.00  0.00     0.002 A 
ATOM     28  C   UNL d   1      49.188  34.336  50.920  0.00  0.00     0.000 A 
ATOM     29  C   UNL d   1      48.456  34.705  50.986  0.00  0.00     0.000 A 
ATOM     30  C   UNL d   1      48.267  35.106  51.689  0.00  0.00     0.000 A 
ATOM     31  C   UNL d   1      48.805  35.133  52.310  0.00  0.00     0.002 A 
ENDBRANCH  25  26
ENDBRANCH  23  25
ENDBRANCH   3  22
TORSDOF 4
ENDMDL
MODEL 3
REMARK VINA RESULT:      -8.7      1.617      5.591
REMARK  4 active torsions:
REMARK  status: ('A' for Active; 'I' for Inactive)
REMARK    1  A    between atoms: C_8  and  N_1 
REMARK    2  A    between atoms: C_11  and  C_13 
REMARK       I    between atoms: N_14  and  C_11 
REMARK    3  A    between atoms: C_18  and  N_14 
REMARK    4  A    between atoms: C_20  and  C_18 
ROOT
ATOM      1  C   UNL d   1      52.464  34.187  53.388  0.00  0.00     0.066 A 
ATOM      2  C   UNL d   1      52.853  33.460  53.360  0.00  0.00     0.022 A 
ATOM      3  C   UNL d   1      53.616  33.395  53.679  0.00  0.00     0.059 A 
ATOM      4  C   UNL d   1      52.827  34.848  53.732  0.00  0.00     0.017 A 
ATOM      5  C   UNL d   1      53.979  34.056  54.023  0.00  0.00     0.005 A 
ATOM      6  C   UNL d   1      53.583  34.777  54.047  0.00  0.00     0.002 A 
ENDROOT
BRANCH   1   7
ATOM      7  N   UNL d   1      51.708  34.258  53.073  0.00  0.00    -0.261 N 
ATOM      8  C   UNL d   1      51.711  34.308  52.252  0.00  0.00     0.174 A 
ATOM      9  O   UNL d   1      51.124  34.383  51.671  0.00  0.00    -0.316 OA
ATOM     10  C   UNL d   1      50.764  34.323  53.070  0.00  0.00     0.079 A 
ATOM     11  C   UNL d   1      52.387  34.289  51.788  0.00  0.00     0.055 C 
ATOM     12  C   UNL d   1      50.303  34.440  51.671  0.00  0.00     0.094 A 
ATOM     13  C   UNL d   1      50.079  34.504  50.874  0.00  0.00     0.024 A 
ATOM     14  C   UNL d   1      49.720  34.444  52.256  0.00  0.00     0.022 A 
ATOM     15  C   UNL d   1      49.284  34.571  50.672  0.00  0.00     0.002 A 
ATOM     16  C   UNL d   1      48.706  34.575  51.262  0.00  0.00    -0.000 A 
ATOM     17  C   UNL d   1      48.924  34.512  52.054  0.00  0.00    -0.001 A 
ATOM     18  C   UNL d   1      49.717  34.395  53.077  0.00  0.00     0.137 A 
ATOM     19  N   UNL d   1      50.301  34.319  53.667  0.00  0.00    -0.216 NA
ATOM     20  C   UNL d   1      51.122  34.262  53.666  0.00  0.00     0.348 A 
ATOM     21  O   UNL d   1      51.437  34.195  54.419  0.00  0.00    -0.245 OA
ENDBRANCH   1   7
BRANCH   3  22
ATOM     22  C   UNL d   1      54.005  32.668  53.651  0.00  0.00     0.279 C 
ATOM     23  N   UNL d   1      53.573  31.969  53.675  0.00  0.00    -0.206 NA
ATOM     24  O   UNL d   1      54.830  32.649  53.598  0.00  0.00    -0.265 OA
BRANCH  23  25
ATOM     25  C   UNL d   1      53.967  31.241  53.646  0.00  0.00     0.102 C 
BRANCH  25  26
ATOM     26  C   UNL d   1      53.531  30.542  53.638  0.00  0.00     0.019 A 
ATOM     27  C   UNL d   1      52.979  30.400  53.041  0.00  0.00     0.002 A 
ATOM     28  C   UNL d   1      52.548  29.699  53.041  0.00  0.00     0.000 A 
ATOM     29  C   UNL d   1      52.659  29.134  53.630  0.00  0.00     0.000 A 
ATOM     30  C   UNL d   1      53.215  29.280  54.229  0.00  0.00     0.000 A 
ATOM     31  C   UNL d   1      53.648  29.979  54.234  0.00  0.00     0.002 A 
ENDBRANCH  25  26
ENDBRANCH  23  25
ENDBRANCH   3  22
TORSDOF 4
ENDMDL
MODEL 4
REMARK VINA RESULT:      -8.5      0.898      5.995
REMARK  4 active torsions:
REMARK  status: ('A' for Active; 'I' for Inactive)
REMARK    1  A    between atoms: C_8  and  N_1 
REMARK    2  A    between atoms: C_11  and  C_13 
REMARK       I    between atoms: N_14  and  C_11 
REMARK    3  A    between atoms: C_18  and  N_14 
REMARK    4  A    between atoms: C_20  and  C_18 
ROOT
ATOM      1  C   UNL d   1      49.835  34.699  52.193  0.00  0.00     0.066 A 
ATOM      2  C   UNL d   1      50.174  34.221  52.774  0.00  0.00     0.022 A 
ATOM      3  C   UNL d   1      50.903  33.855  52.625  0.00  0.00     0.059 A 
ATOM      4  C   UNL d   1      50.217  34.815  51.466  0.00  0.00     0.017 A 
ATOM      5  C   UNL d   1      51.285  33.973  51.898  0.00  0.00     0.005 A 
ATOM      6  C   UNL d   1      50.940  34.451  51.325  0.00  0.00     0.002 A 
ENDROOT
BRANCH   1   7
ATOM      7  N   UNL d   1      49.113  35.063  52.334  0.00  0.00    -0.261 N 
ATOM      8  C   UNL d   1      48.551  34.886  51.760  0.00  0.00     0.174 A 
ATOM      9  O   UNL d   1      47.758  35.097  51.635  0.00  0.00    -0.316 OA
ATOM     10  C   UNL d   1      48.477  35.603  52.782  0.00  0.00     0.079 A 
ATOM     11  C   UNL d   1      48.685  34.399  51.113  0.00  0.00     0.055 C 
ATOM     12  C   UNL d   1      47.209  35.567  52.027  0.00  0.00     0.094 A 
ATOM     13  C   UNL d   1      46.511  35.524  51.579  0.00  0.00     0.024 A 
ATOM     14  C   UNL d   1      47.219  36.026  52.714  0.00  0.00     0.022 A 
ATOM     15  C   UNL d   1      45.839  35.935  51.817  0.00  0.00     0.002 A 
ATOM     16  C   UNL d   1      45.857  36.393  52.504  0.00  0.00    -0.000 A 
ATOM     17  C   UNL d   1      46.547  36.438  52.953  0.00  0.00    -0.001 A 
ATOM     18  C   UNL d   1      47.781  36.204  53.287  0.00  0.00     0.137 A 
ATOM     19  N   UNL d   1      48.577  35.996  53.420  0.00  0.00    -0.216 NA
ATOM     20  C   UNL d   1      49.127  35.527  53.027  0.00  0.00     0.348 A 
ATOM     21  O   UNL d   1      49.855  35.508  53.402  0.00  0.00    -0.245 OA
ENDBRANCH   1   7
BRANCH   3  22
ATOM     22  C   UNL d   1      51.242  33.378  53.206  0.00  0.00     0.279 C 
ATOM     23  N   UNL d   1      52.023  33.498  53.433  0.00  0.00    -0.206 NA
ATOM     24  O   UNL d   1      50.791  32.780  53.557  0.00  0.00    -0.265 OA
BRANCH  23  25
ATOM     25  C   UNL d   1      52.361  33.017  54.016  0.00  0.00     0.102 C 
BRANCH  25  26
ATOM     26  C   UNL d   1      53.150  33.123  54.225  0.00  0.00     0.019 A 
ATOM     27  C   UNL d   1      53.362  33.685  54.791  0.00  0.00     0.002 A 
ATOM     28  C   UNL d   1      54.154  33.784  54.994  0.00  0.00     0.000 A 
ATOM     29  C   UNL d   1      54.741  33.329  54.639  0.00  0.00     0.000 A 
ATOM     30  C   UNL d   1      54.525  32.764  54.069  0.00  0.00     0.000 A 
ATOM     31  C   UNL d   1      53.736  32.661  53.864  0.00  0.00     0.002 A 
ENDBRANCH  25  26
ENDBRANCH  23  25
ENDBRANCH   3  22
TORSDOF 4
ENDMDL
