MODEL 1
REMARK VINA RESULT:      34.0      0.000      0.000
REMARK  5 active torsions:
REMARK  status: ('A' for Active; 'I' for Inactive)
REMARK       I    between atoms: N_2  and  C_1 
REMARK    1  A    between atoms: C_8  and  C_1 
REMARK    2  A    between atoms: C_4  and  N_2 
REMARK    3  A    between atoms: C_3  and  C_4 
REMARK    4  A    between atoms: C_5  and  C_3 
REMARK    5  A    between atoms: N_6  and  C_3 
ROOT
ATOM      1  C   UNL d   1      13.459  12.819  -4.092  0.00  0.00     0.088 C 
ENDROOT
BRANCH   1   2
ATOM      2  C   UNL d   1      13.374  12.328  -3.437  0.00  0.00     0.101 C 
ATOM      3  C   UNL d   1      12.769  11.779  -3.417  0.00  0.00     0.022 C 
BRANCH   2   4
ATOM      4  N   UNL d   1      13.900  12.396  -2.810  0.00  0.00    -0.206 NA
ATOM      5  C   UNL d   1      13.677  12.136  -2.056  0.00  0.00     0.279 C 
ATOM      6  O   UNL d   1      12.931  11.811  -1.944  0.00  0.00    -0.265 OA
BRANCH   5   7
ATOM      7  C   UNL d   1      14.203  12.204  -1.429  0.00  0.00     0.058 A 
ATOM      8  C   UNL d   1      15.000  12.388  -1.562  0.00  0.00     0.005 A 
ATOM      9  C   UNL d   1      15.529  12.456  -0.927  0.00  0.00     0.000 A 
ATOM     10  C   UNL d   1      16.311  12.638  -1.067  0.00  0.00     0.000 C 
ATOM     11  C   UNL d   1      15.249  12.337  -0.156  0.00  0.00     0.000 A 
ATOM     12  C   UNL d   1      14.453  12.152  -0.014  0.00  0.00     0.000 A 
ATOM     13  C   UNL d   1      13.938  12.087  -0.650  0.00  0.00     0.005 A 
ENDBRANCH   5   7
ENDBRANCH   2   4
ENDBRANCH   1   2
BRANCH   1  14
ATOM     14  C   UNL d   1      13.385  13.633  -4.009  0.00  0.00     0.047 A 
ATOM     15  S   UNL d   1      13.880  14.132  -3.572  0.00  0.00    -0.085 SA
ATOM     16  C   UNL d   1      13.600  14.901  -3.644  0.00  0.00     0.035 A 
ATOM     17  C   UNL d   1      12.929  14.894  -4.126  0.00  0.00     0.007 A 
ATOM     18  C   UNL d   1      12.792  14.106  -4.356  0.00  0.00     0.009 A 
ENDBRANCH   1  14
BRANCH   1  19
ATOM     19  N   UNL d   1      13.620  12.496  -4.837  0.00  0.00    -0.299 N 
ATOM     20  C   UNL d   1      14.367  12.561  -5.159  0.00  0.00     0.107 A 
ATOM     21  C   UNL d   1      14.534  12.244  -5.898  0.00  0.00     0.142 A 
ATOM     22  O   UNL d   1      13.944  11.850  -6.329  0.00  0.00    -0.300 OA
ATOM     23  C   UNL d   1      13.185  11.785  -5.999  0.00  0.00     0.142 A 
ATOM     24  C   UNL d   1      13.025  12.107  -5.256  0.00  0.00     0.107 A 
ENDBRANCH   1  19
TORSDOF 5
ENDMDL
