MODEL 1
REMARK VINA RESULT:      -3.5      0.000      0.000
REMARK  5 active torsions:
REMARK  status: ('A' for Active; 'I' for Inactive)
REMARK    1  A    between atoms: C_6  and  C_1 
REMARK    2  A    between atoms: C_14  and  N_3 
REMARK    3  A    between atoms: O_9  and  C_6 
REMARK    4  A    between atoms: C_15  and  O_9 
REMARK    5  A    between atoms: C_16  and  C_14 
ROOT
ATOM      1  C   UNL d   1      58.816  -1.216  29.468  0.00  0.00     0.120 A 
ATOM      2  C   UNL d   1      59.402  -0.670  29.268  0.00  0.00     0.177 A 
ATOM      3  N   UNL d   1      59.327  -0.024  29.774  0.00  0.00    -0.273 N 
ATOM      4  C   UNL d   1      58.699  -0.166  30.287  0.00  0.00     0.167 A 
ATOM      5  C   UNL d   1      58.385  -0.901  30.097  0.00  0.00     0.124 A 
ATOM      6  N   UNL d   1      58.381   0.281  30.896  0.00  0.00    -0.225 NA
ATOM      7  N   UNL d   1      57.746  -1.190  30.523  0.00  0.00    -0.241 NA
ATOM      8  C   UNL d   1      57.741  -0.009  31.321  0.00  0.00     0.101 A 
ATOM      9  C   UNL d   1      57.421  -0.745  31.137  0.00  0.00     0.099 A 
ATOM     10  N   UNL d   1      59.965  -0.749  28.668  0.00  0.00    -0.128 N 
ATOM     11  C   UNL d   1      57.423   0.438  31.930  0.00  0.00     0.021 A 
ATOM     12  C   UNL d   1      56.782  -1.031  31.563  0.00  0.00     0.021 A 
ATOM     13  C   UNL d   1      56.774   0.146  32.362  0.00  0.00     0.002 A 
ATOM     14  C   UNL d   1      56.464  -0.584  32.172  0.00  0.00     0.002 A 
ENDROOT
BRANCH   1  15
ATOM     15  C   UNL d   1      58.691  -1.945  29.099  0.00  0.00     0.300 C 
ATOM     16  O   UNL d   1      58.182  -1.992  28.455  0.00  0.00    -0.259 OA
BRANCH  15  17
ATOM     17  O   UNL d   1      59.075  -2.625  29.373  0.00  0.00    -0.303 OA
BRANCH  17  18
ATOM     18  C   UNL d   1      59.040  -3.310  28.934  0.00  0.00     0.102 C 
ATOM     19  C   UNL d   1      58.219  -3.238  28.863  0.00  0.00     0.030 C 
ATOM     20  C   UNL d   1      59.860  -3.394  28.999  0.00  0.00     0.030 C 
ATOM     21  C   UNL d   1      59.012  -4.018  28.483  0.00  0.00     0.030 C 
ENDBRANCH  17  18
ENDBRANCH  15  17
ENDBRANCH   1  15
BRANCH   3  22
ATOM     22  C   UNL d   1      59.798   0.651  29.772  0.00  0.00     0.083 C 
BRANCH  22  23
ATOM     23  C   UNL d   1      60.620   0.571  29.786  0.00  0.00     0.019 C 
ATOM     24  C   UNL d   1      61.029   0.680  30.497  0.00  0.00     0.002 C 
ENDBRANCH  22  23
ENDBRANCH   3  22
TORSDOF 5
ENDMDL
MODEL 2
REMARK VINA RESULT:      -3.1      1.150      3.420
REMARK  5 active torsions:
REMARK  status: ('A' for Active; 'I' for Inactive)
REMARK    1  A    between atoms: C_6  and  C_1 
REMARK    2  A    between atoms: C_14  and  N_3 
REMARK    3  A    between atoms: O_9  and  C_6 
REMARK    4  A    between atoms: C_15  and  O_9 
REMARK    5  A    between atoms: C_16  and  C_14 
ROOT
ATOM      1  C   UNL d   1      58.290  -0.563  30.556  0.00  0.00     0.120 A 
ATOM      2  C   UNL d   1      58.935  -0.049  30.534  0.00  0.00     0.177 A 
ATOM      3  N   UNL d   1      59.514  -0.393  30.059  0.00  0.00    -0.273 N 
ATOM      4  C   UNL d   1      59.232  -1.117  29.788  0.00  0.00     0.167 A 
ATOM      5  C   UNL d   1      58.477  -1.221  30.095  0.00  0.00     0.124 A 
ATOM      6  N   UNL d   1      59.569  -1.687  29.304  0.00  0.00    -0.225 NA
ATOM      7  N   UNL d   1      58.057  -1.902  29.915  0.00  0.00    -0.241 NA
ATOM      8  C   UNL d   1      59.147  -2.368  29.124  0.00  0.00     0.101 A 
ATOM      9  C   UNL d   1      58.390  -2.479  29.429  0.00  0.00     0.099 A 
ATOM     10  N   UNL d   1      58.997   0.682  30.915  0.00  0.00    -0.128 N 
ATOM     11  C   UNL d   1      59.484  -2.937  28.641  0.00  0.00     0.021 A 
ATOM     12  C   UNL d   1      57.973  -3.160  29.247  0.00  0.00     0.021 A 
ATOM     13  C   UNL d   1      59.059  -3.629  28.457  0.00  0.00     0.002 A 
ATOM     14  C   UNL d   1      58.309  -3.730  28.763  0.00  0.00     0.002 A 
ENDROOT
BRANCH   1  15
ATOM     15  C   UNL d   1      57.586  -0.434  30.970  0.00  0.00     0.300 C 
ATOM     16  O   UNL d   1      56.973  -0.022  30.609  0.00  0.00    -0.259 OA
BRANCH  15  17
ATOM     17  O   UNL d   1      57.496  -0.714  31.744  0.00  0.00    -0.303 OA
BRANCH  17  18
ATOM     18  C   UNL d   1      56.803  -0.571  32.145  0.00  0.00     0.102 C 
ATOM     19  C   UNL d   1      56.534  -1.335  31.982  0.00  0.00     0.030 C 
ATOM     20  C   UNL d   1      57.060   0.197  32.315  0.00  0.00     0.030 C 
ATOM     21  C   UNL d   1      56.090  -0.415  32.561  0.00  0.00     0.030 C 
ENDBRANCH  17  18
ENDBRANCH  15  17
ENDBRANCH   1  15
BRANCH   3  22
ATOM     22  C   UNL d   1      60.251  -0.072  29.883  0.00  0.00     0.083 C 
BRANCH  22  23
ATOM     23  C   UNL d   1      60.377   0.272  29.143  0.00  0.00     0.019 C 
ATOM     24  C   UNL d   1      61.133   0.543  28.943  0.00  0.00     0.002 C 
ENDBRANCH  22  23
ENDBRANCH   3  22
TORSDOF 5
ENDMDL
MODEL 3
REMARK VINA RESULT:      -0.6      1.657      3.630
REMARK  5 active torsions:
REMARK  status: ('A' for Active; 'I' for Inactive)
REMARK    1  A    between atoms: C_6  and  C_1 
REMARK    2  A    between atoms: C_14  and  N_3 
REMARK    3  A    between atoms: O_9  and  C_6 
REMARK    4  A    between atoms: C_15  and  O_9 
REMARK    5  A    between atoms: C_16  and  C_14 
ROOT
ATOM      1  C   UNL d   1      57.847  -0.195  31.624  0.00  0.00     0.120 A 
ATOM      2  C   UNL d   1      58.406   0.272  32.014  0.00  0.00     0.177 A 
ATOM      3  N   UNL d   1      59.099   0.259  31.567  0.00  0.00    -0.273 N 
ATOM      4  C   UNL d   1      58.972  -0.212  30.904  0.00  0.00     0.167 A 
ATOM      5  C   UNL d   1      58.201  -0.491  30.941  0.00  0.00     0.124 A 
ATOM      6  N   UNL d   1      59.462  -0.417  30.279  0.00  0.00    -0.225 NA
ATOM      7  N   UNL d   1      57.918  -0.981  30.346  0.00  0.00    -0.241 NA
ATOM      8  C   UNL d   1      59.179  -0.907  29.684  0.00  0.00     0.101 A 
ATOM      9  C   UNL d   1      58.406  -1.190  29.715  0.00  0.00     0.099 A 
ATOM     10  N   UNL d   1      58.298   0.681  32.724  0.00  0.00    -0.128 N 
ATOM     11  C   UNL d   1      59.669  -1.111  29.060  0.00  0.00     0.021 A 
ATOM     12  C   UNL d   1      58.128  -1.679  29.119  0.00  0.00     0.021 A 
ATOM     13  C   UNL d   1      59.384  -1.607  28.456  0.00  0.00     0.002 A 
ATOM     14  C   UNL d   1      58.617  -1.884  28.495  0.00  0.00     0.002 A 
ENDROOT
BRANCH   1  15
ATOM     15  C   UNL d   1      57.074  -0.334  31.882  0.00  0.00     0.300 C 
ATOM     16  O   UNL d   1      56.442  -0.047  31.443  0.00  0.00    -0.259 OA
BRANCH  15  17
ATOM     17  O   UNL d   1      56.934  -0.761  32.578  0.00  0.00    -0.303 OA
BRANCH  17  18
ATOM     18  C   UNL d   1      56.169  -0.880  32.829  0.00  0.00     0.102 C 
ATOM     19  C   UNL d   1      56.108  -0.090  33.063  0.00  0.00     0.030 C 
ATOM     20  C   UNL d   1      56.217  -1.674  32.598  0.00  0.00     0.030 C 
ATOM     21  C   UNL d   1      55.380  -1.012  33.085  0.00  0.00     0.030 C 
ENDBRANCH  17  18
ENDBRANCH  15  17
ENDBRANCH   1  15
BRANCH   3  22
ATOM     22  C   UNL d   1      59.800   0.650  31.748  0.00  0.00     0.083 C 
BRANCH  22  23
ATOM     23  C   UNL d   1      60.377   0.261  32.194  0.00  0.00     0.019 C 
ATOM     24  C   UNL d   1      61.071   0.662  32.401  0.00  0.00     0.002 C 
ENDBRANCH  22  23
ENDBRANCH   3  22
TORSDOF 5
ENDMDL
