MODEL 1
REMARK VINA RESULT:       6.4      0.000      0.000
REMARK  7 active torsions:
REMARK  status: ('A' for Active; 'I' for Inactive)
REMARK    1  A    between atoms: C_7  and  C_1 
REMARK    2  A    between atoms: N_5  and  C_2 
REMARK       I    between atoms: C_8  and  N_5 
REMARK    3  A    between atoms: N_9  and  C_7 
REMARK    4  A    between atoms: C_12  and  C_7 
REMARK    5  A    between atoms: C_10  and  C_8 
REMARK    6  A    between atoms: C_26  and  N_11 
REMARK    7  A    between atoms: C_30  and  C_26 
ROOT
ATOM      1  C   UNL d   1      32.189  18.091 -23.367  0.00  0.00     0.068 C 
ENDROOT
BRANCH   1   2
ATOM      2  C   UNL d   1      31.543  18.378 -23.849  0.00  0.00     0.041 A 
ATOM      3  C   UNL d   1      30.820  18.069 -24.051  0.00  0.00     0.115 A 
ATOM      4  S   UNL d   1      30.448  18.625 -24.537  0.00  0.00    -0.068 SA
ATOM      5  C   UNL d   1      30.918  19.284 -24.650  0.00  0.00     0.031 A 
ATOM      6  C   UNL d   1      31.632  19.139 -24.210  0.00  0.00     0.009 A 
ATOM      7  C   UNL d   1      30.735  19.947 -25.097  0.00  0.00     0.007 C 
ATOM      8  C   UNL d   1      32.273  19.651 -24.157  0.00  0.00     0.001 C 
BRANCH   3   9
ATOM      9  N   UNL d   1      30.508  17.348 -23.824  0.00  0.00    -0.200 NA
ATOM     10  C   UNL d   1      29.691  17.282 -23.718  0.00  0.00     0.302 C 
ATOM     11  O   UNL d   1      29.205  17.938 -23.841  0.00  0.00    -0.263 OA
BRANCH  10  12
ATOM     12  C   UNL d   1      29.349  16.567 -23.490  0.00  0.00     0.158 A 
ATOM     13  O   UNL d   1      29.392  16.163 -22.756  0.00  0.00    -0.300 OA
ATOM     14  C   UNL d   1      28.944  15.473 -22.837  0.00  0.00     0.123 A 
ATOM     15  C   UNL d   1      28.643  15.467 -23.597  0.00  0.00     0.029 A 
ATOM     16  C   UNL d   1      28.881  16.133 -24.015  0.00  0.00     0.032 A 
ENDBRANCH  10  12
ENDBRANCH   3   9
ENDBRANCH   1   2
BRANCH   1  17
ATOM     17  N   UNL d   1      32.460  18.588 -22.725  0.00  0.00    -0.301 N 
ATOM     18  C   UNL d   1      32.191  19.365 -22.700  0.00  0.00     0.100 A 
ATOM     19  C   UNL d   1      32.451  19.844 -22.083  0.00  0.00     0.100 A 
ATOM     20  N   UNL d   1      32.978  19.547 -21.494  0.00  0.00    -0.297 N 
ATOM     21  C   UNL d   1      33.227  18.781 -21.542  0.00  0.00     0.100 A 
ATOM     22  C   UNL d   1      32.987  18.291 -22.136  0.00  0.00     0.100 A 
BRANCH  20  23
ATOM     23  C   UNL d   1      33.235  20.052 -20.868  0.00  0.00     0.126 C 
BRANCH  23  24
ATOM     24  C   UNL d   1      32.764  20.711 -20.629  0.00  0.00     0.253 C 
ATOM     25  O   UNL d   1      33.123  21.453 -20.471  0.00  0.00    -0.281 OA
ENDBRANCH  23  24
ENDBRANCH  20  23
ENDBRANCH   1  17
BRANCH   1  26
ATOM     26  C   UNL d   1      32.546  17.347 -23.518  0.00  0.00     0.035 A 
ATOM     27  C   UNL d   1      32.834  17.189 -24.287  0.00  0.00     0.100 A 
ATOM     28  N   UNL d   1      33.192  16.442 -24.439  0.00  0.00    -0.242 NA
ATOM     29  C   UNL d   1      33.241  15.896 -23.815  0.00  0.00     0.099 A 
ATOM     30  C   UNL d   1      32.961  16.053 -23.074  0.00  0.00     0.021 A 
ATOM     31  C   UNL d   1      32.603  16.801 -22.922  0.00  0.00     0.005 A 
ENDBRANCH   1  26
TORSDOF 7
ENDMDL
MODEL 2
REMARK VINA RESULT:       6.5      1.434      4.574
REMARK  7 active torsions:
REMARK  status: ('A' for Active; 'I' for Inactive)
REMARK    1  A    between atoms: C_7  and  C_1 
REMARK    2  A    between atoms: N_5  and  C_2 
REMARK       I    between atoms: C_8  and  N_5 
REMARK    3  A    between atoms: N_9  and  C_7 
REMARK    4  A    between atoms: C_12  and  C_7 
REMARK    5  A    between atoms: C_10  and  C_8 
REMARK    6  A    between atoms: C_26  and  N_11 
REMARK    7  A    between atoms: C_30  and  C_26 
ROOT
ATOM      1  C   UNL d   1      31.015  17.500 -24.193  0.00  0.00     0.068 C 
ENDROOT
BRANCH   1   2
ATOM      2  C   UNL d   1      31.803  17.185 -24.080  0.00  0.00     0.041 A 
ATOM      3  C   UNL d   1      32.447  17.438 -23.657  0.00  0.00     0.115 A 
ATOM      4  S   UNL d   1      33.047  16.881 -23.775  0.00  0.00    -0.068 SA
ATOM      5  C   UNL d   1      32.800  16.276 -24.265  0.00  0.00     0.031 A 
ATOM      6  C   UNL d   1      31.994  16.458 -24.472  0.00  0.00     0.009 A 
ATOM      7  C   UNL d   1      33.240  15.628 -24.506  0.00  0.00     0.007 C 
ATOM      8  C   UNL d   1      31.512  16.005 -24.958  0.00  0.00     0.001 C 
BRANCH   3   9
ATOM      9  N   UNL d   1      32.506  18.112 -23.198  0.00  0.00    -0.200 NA
ATOM     10  C   UNL d   1      32.902  18.070 -22.473  0.00  0.00     0.302 C 
ATOM     11  O   UNL d   1      33.230  17.354 -22.224  0.00  0.00    -0.263 OA
BRANCH  10  12
ATOM     12  C   UNL d   1      32.976  18.733 -21.990  0.00  0.00     0.158 A 
ATOM     13  O   UNL d   1      33.046  19.543 -22.200  0.00  0.00    -0.300 OA
ATOM     14  C   UNL d   1      33.104  19.968 -21.493  0.00  0.00     0.123 A 
ATOM     15  C   UNL d   1      33.068  19.428 -20.881  0.00  0.00     0.029 A 
ATOM     16  C   UNL d   1      32.990  18.661 -21.167  0.00  0.00     0.032 A 
ENDBRANCH  10  12
ENDBRANCH   3   9
ENDBRANCH   1   2
BRANCH   1  17
ATOM     17  N   UNL d   1      30.352  17.001 -23.986  0.00  0.00    -0.301 N 
ATOM     18  C   UNL d   1      29.792  16.844 -24.567  0.00  0.00     0.100 A 
ATOM     19  C   UNL d   1      29.153  16.364 -24.369  0.00  0.00     0.100 A 
ATOM     20  N   UNL d   1      29.076  16.043 -23.592  0.00  0.00    -0.297 N 
ATOM     21  C   UNL d   1      29.639  16.212 -23.041  0.00  0.00     0.100 A 
ATOM     22  C   UNL d   1      30.274  16.679 -23.209  0.00  0.00     0.100 A 
BRANCH  20  23
ATOM     23  C   UNL d   1      28.414  15.553 -23.406  0.00  0.00     0.126 C 
BRANCH  23  24
ATOM     24  C   UNL d   1      27.823  15.818 -22.865  0.00  0.00     0.253 C 
ATOM     25  O   UNL d   1      27.036  15.950 -23.127  0.00  0.00    -0.281 OA
ENDBRANCH  23  24
ENDBRANCH  20  23
ENDBRANCH   1  17
BRANCH   1  26
ATOM     26  C   UNL d   1      30.898  18.272 -24.498  0.00  0.00     0.035 A 
ATOM     27  C   UNL d   1      30.134  18.489 -24.758  0.00  0.00     0.100 A 
ATOM     28  N   UNL d   1      30.015  19.265 -25.064  0.00  0.00    -0.242 NA
ATOM     29  C   UNL d   1      30.668  19.779 -25.093  0.00  0.00     0.099 A 
ATOM     30  C   UNL d   1      31.404  19.565 -24.841  0.00  0.00     0.021 A 
ATOM     31  C   UNL d   1      31.522  18.789 -24.535  0.00  0.00     0.005 A 
ENDBRANCH   1  26
TORSDOF 7
ENDMDL
MODEL 3
REMARK VINA RESULT:       6.9      1.369      2.569
REMARK  7 active torsions:
REMARK  status: ('A' for Active; 'I' for Inactive)
REMARK    1  A    between atoms: C_7  and  C_1 
REMARK    2  A    between atoms: N_5  and  C_2 
REMARK       I    between atoms: C_8  and  N_5 
REMARK    3  A    between atoms: N_9  and  C_7 
REMARK    4  A    between atoms: C_12  and  C_7 
REMARK    5  A    between atoms: C_10  and  C_8 
REMARK    6  A    between atoms: C_26  and  N_11 
REMARK    7  A    between atoms: C_30  and  C_26 
ROOT
ATOM      1  C   UNL d   1      31.188  17.788 -24.012  0.00  0.00     0.068 C 
ENDROOT
BRANCH   1   2
ATOM      2  C   UNL d   1      31.420  16.969 -24.102  0.00  0.00     0.041 A 
ATOM      3  C   UNL d   1      31.157  16.277 -23.770  0.00  0.00     0.115 A 
ATOM      4  S   UNL d   1      31.615  15.667 -24.089  0.00  0.00    -0.068 SA
ATOM      5  C   UNL d   1      32.166  15.954 -24.619  0.00  0.00     0.031 A 
ATOM      6  C   UNL d   1      32.053  16.798 -24.639  0.00  0.00     0.009 A 
ATOM      7  C   UNL d   1      32.714  15.517 -25.044  0.00  0.00     0.007 C 
ATOM      8  C   UNL d   1      32.483  17.327 -25.097  0.00  0.00     0.001 C 
BRANCH   3   9
ATOM      9  N   UNL d   1      30.556  16.186 -23.223  0.00  0.00    -0.200 NA
ATOM     10  C   UNL d   1      29.876  15.769 -23.442  0.00  0.00     0.302 C 
ATOM     11  O   UNL d   1      29.813  15.453 -24.202  0.00  0.00    -0.263 OA
BRANCH  10  12
ATOM     12  C   UNL d   1      29.254  15.663 -22.911  0.00  0.00     0.158 A 
ATOM     13  O   UNL d   1      28.427  15.653 -23.051  0.00  0.00    -0.300 OA
ATOM     14  C   UNL d   1      28.063  15.524 -22.319  0.00  0.00     0.123 A 
ATOM     15  C   UNL d   1      28.657  15.460 -21.761  0.00  0.00     0.029 A 
ATOM     16  C   UNL d   1      29.398  15.542 -22.106  0.00  0.00     0.032 A 
ENDBRANCH  10  12
ENDBRANCH   3   9
ENDBRANCH   1   2
BRANCH   1  17
ATOM     17  N   UNL d   1      31.695  18.298 -23.549  0.00  0.00    -0.301 N 
ATOM     18  C   UNL d   1      31.628  18.265 -22.729  0.00  0.00     0.100 A 
ATOM     19  C   UNL d   1      32.115  18.755 -22.282  0.00  0.00     0.100 A 
ATOM     20  N   UNL d   1      32.666  19.276 -22.653  0.00  0.00    -0.297 N 
ATOM     21  C   UNL d   1      32.710  19.289 -23.458  0.00  0.00     0.100 A 
ATOM     22  C   UNL d   1      32.245  18.819 -23.919  0.00  0.00     0.100 A 
BRANCH  20  23
ATOM     23  C   UNL d   1      33.157  19.772 -22.179  0.00  0.00     0.126 C 
BRANCH  23  24
ATOM     24  C   UNL d   1      32.909  20.554 -21.976  0.00  0.00     0.253 C 
ATOM     25  O   UNL d   1      33.072  21.197 -22.491  0.00  0.00    -0.281 OA
ENDBRANCH  23  24
ENDBRANCH  20  23
ENDBRANCH   1  17
BRANCH   1  26
ATOM     26  C   UNL d   1      30.487  18.081 -24.368  0.00  0.00     0.035 A 
ATOM     27  C   UNL d   1      29.793  17.616 -24.329  0.00  0.00     0.100 A 
ATOM     28  N   UNL d   1      29.089  17.910 -24.686  0.00  0.00    -0.242 NA
ATOM     29  C   UNL d   1      29.119  18.652 -25.061  0.00  0.00     0.099 A 
ATOM     30  C   UNL d   1      29.792  19.096 -25.096  0.00  0.00     0.021 A 
ATOM     31  C   UNL d   1      30.496  18.802 -24.739  0.00  0.00     0.005 A 
ENDBRANCH   1  26
TORSDOF 7
ENDMDL
