MODEL 1
REMARK VINA RESULT:      23.6      0.000      0.000
REMARK  10 active torsions:
REMARK  status: ('A' for Active; 'I' for Inactive)
REMARK    1  A    between atoms: C_18  and  N_1 
REMARK    2  A    between atoms: S_7  and  C_2 
REMARK       I    between atoms: C_6  and  N_14 
REMARK    3  A    between atoms: C_9  and  C_6 
REMARK    4  A    between atoms: C_15  and  S_7 
REMARK    5  A    between atoms: C_8  and  C_15 
REMARK       I    between atoms: N_10  and  C_8 
REMARK    6  A    between atoms: C_19  and  N_10 
REMARK    7  A    between atoms: N_14  and  C_25 
REMARK    8  A    between atoms: C_25  and  C_18 
REMARK    9  A    between atoms: C_23  and  C_19 
REMARK   10  A    between atoms: O_27  and  C_20 
ROOT
ATOM      1  N   UNL d   1     -41.893-123.112 -50.263  0.00  0.00    -0.302 N 
ATOM      2  C   UNL d   1     -43.018-122.786 -49.599  0.00  0.00     0.049 A 
ATOM      3  C   UNL d   1     -42.654-122.780 -50.344  0.00  0.00     0.087 A 
ATOM      4  C   UNL d   1     -42.483-123.122 -49.055  0.00  0.00     0.024 A 
ATOM      5  C   UNL d   1     -41.790-123.322 -49.466  0.00  0.00     0.065 A 
ATOM      6  C   UNL d   1     -42.536-123.271 -48.242  0.00  0.00     0.002 A 
ATOM      7  C   UNL d   1     -41.155-123.669 -49.068  0.00  0.00     0.018 A 
ATOM      8  C   UNL d   1     -41.904-123.616 -47.847  0.00  0.00     0.000 A 
ATOM      9  C   UNL d   1     -41.211-123.816 -48.258  0.00  0.00     0.002 A 
ENDROOT
BRANCH   1  10
ATOM     10  C   UNL d   1     -41.342-123.213 -50.868  0.00  0.00     0.101 C 
BRANCH  10  11
ATOM     11  C   UNL d   1     -41.199-122.602 -51.400  0.00  0.00     0.121 C 
BRANCH  11  12
ATOM     12  N   UNL d   1     -41.367-122.706 -52.201  0.00  0.00    -0.205 NA
ATOM     13  C   UNL d   1     -41.331-122.065 -52.720  0.00  0.00     0.279 C 
ATOM     14  O   UNL d   1     -41.124-121.317 -52.434  0.00  0.00    -0.265 OA
BRANCH  13  15
ATOM     15  C   UNL d   1     -41.499-122.169 -53.520  0.00  0.00     0.058 A 
ATOM     16  C   UNL d   1     -41.337-122.902 -53.891  0.00  0.00     0.007 A 
ATOM     17  C   UNL d   1     -41.505-123.005 -54.691  0.00  0.00     0.024 A 
ATOM     18  C   UNL d   1     -41.834-122.374 -55.115  0.00  0.00     0.094 A 
ATOM     19  C   UNL d   1     -41.994-121.655 -54.753  0.00  0.00     0.024 A 
ATOM     20  C   UNL d   1     -41.825-121.555 -53.956  0.00  0.00     0.007 A 
BRANCH  18  21
ATOM     21  O   UNL d   1     -42.010-122.468 -55.929  0.00  0.00    -0.328 OA
ATOM     22  C   UNL d   1     -42.544-121.969 -56.313  0.00  0.00     0.181 C 
ENDBRANCH  18  21
ENDBRANCH  13  15
ENDBRANCH  11  12
ENDBRANCH  10  11
ENDBRANCH   1  10
BRANCH   2  23
ATOM     23  S   UNL d   1     -43.775-122.510 -49.421  0.00  0.00    -0.080 SA
BRANCH  23  24
ATOM     24  C   UNL d   1     -44.065-121.837 -49.810  0.00  0.00     0.098 C 
BRANCH  24  25
ATOM     25  C   UNL d   1     -44.875-121.685 -49.816  0.00  0.00     0.286 C 
ATOM     26  N   UNL d   1     -45.156-120.923 -49.672  0.00  0.00    -0.204 NA
ATOM     27  O   UNL d   1     -45.408-122.296 -49.966  0.00  0.00    -0.265 OA
BRANCH  26  28
ATOM     28  C   UNL d   1     -45.970-120.773 -49.678  0.00  0.00     0.127 C 
BRANCH  28  29
ATOM     29  C   UNL d   1     -46.248-120.037 -49.480  0.00  0.00     0.119 A 
ATOM     30  O   UNL d   1     -46.713-119.541 -49.940  0.00  0.00    -0.304 OA
ATOM     31  C   UNL d   1     -46.866-118.846 -49.519  0.00  0.00     0.123 A 
ATOM     32  C   UNL d   1     -46.492-118.910 -48.786  0.00  0.00     0.029 A 
ATOM     33  C   UNL d   1     -46.116-119.635 -48.763  0.00  0.00     0.028 A 
ENDBRANCH  28  29
ENDBRANCH  26  28
ENDBRANCH  24  25
ENDBRANCH  23  24
ENDBRANCH   2  23
TORSDOF 10
ENDMDL
