MODEL 1
REMARK VINA RESULT:      -5.2      0.000      0.000
REMARK  1 active torsions:
REMARK  status: ('A' for Active; 'I' for Inactive)
REMARK    1  A    between atoms: C_11  and  C_9 
ROOT
ATOM      1  C   UNL d   1     -41.220-123.115 -51.905  0.00  0.00     0.215 A 
ATOM      2  N   UNL d   1     -41.227-123.745 -52.429  0.00  0.00    -0.219 NA
ATOM      3  S   UNL d   1     -41.326-122.422 -52.331  0.00  0.00    -0.045 SA
ATOM      4  C   UNL d   1     -41.400-122.627 -53.131  0.00  0.00     0.050 A 
ATOM      5  C   UNL d   1     -41.338-123.442 -53.192  0.00  0.00     0.090 A 
ATOM      6  C   UNL d   1     -41.515-122.166 -53.806  0.00  0.00     0.008 A 
ATOM      7  N   UNL d   1     -41.123-123.169 -51.082  0.00  0.00    -0.120 N 
ATOM      8  C   UNL d   1     -41.390-123.812 -53.928  0.00  0.00     0.020 A 
ATOM      9  C   UNL d   1     -41.565-122.536 -54.527  0.00  0.00     0.001 A 
ATOM     10  C   UNL d   1     -41.503-123.356 -54.588  0.00  0.00     0.002 A 
ENDROOT
BRANCH   9  11
ATOM     11  C   UNL d   1     -41.680-122.080 -55.207  0.00  0.00     0.000 C 
ATOM     12  C   UNL d   1     -42.420-122.049 -55.558  0.00  0.00     0.000 C 
ENDBRANCH   9  11
TORSDOF 1
ENDMDL
MODEL 2
REMARK VINA RESULT:      -4.7      1.409      3.183
REMARK  1 active torsions:
REMARK  status: ('A' for Active; 'I' for Inactive)
REMARK    1  A    between atoms: C_11  and  C_9 
ROOT
ATOM      1  C   UNL d   1     -41.159-122.889 -53.980  0.00  0.00     0.215 A 
ATOM      2  N   UNL d   1     -41.145-122.236 -53.485  0.00  0.00    -0.219 NA
ATOM      3  S   UNL d   1     -41.162-123.566 -53.517  0.00  0.00    -0.045 SA
ATOM      4  C   UNL d   1     -41.149-123.328 -52.722  0.00  0.00     0.050 A 
ATOM      5  C   UNL d   1     -41.139-122.508 -52.702  0.00  0.00     0.090 A 
ATOM      6  C   UNL d   1     -41.146-123.762 -52.021  0.00  0.00     0.008 A 
ATOM      7  N   UNL d   1     -41.169-122.869 -54.810  0.00  0.00    -0.120 N 
ATOM      8  C   UNL d   1     -41.126-122.108 -51.981  0.00  0.00     0.020 A 
ATOM      9  C   UNL d   1     -41.133-123.362 -51.315  0.00  0.00     0.001 A 
ATOM     10  C   UNL d   1     -41.123-122.537 -51.295  0.00  0.00     0.002 A 
ENDROOT
BRANCH   9  11
ATOM     11  C   UNL d   1     -41.130-123.791 -50.608  0.00  0.00     0.000 C 
ATOM     12  C   UNL d   1     -41.214-123.400 -49.892  0.00  0.00     0.000 C 
ENDBRANCH   9  11
TORSDOF 1
ENDMDL
MODEL 3
REMARK VINA RESULT:      -4.2      1.152      1.904
REMARK  1 active torsions:
REMARK  status: ('A' for Active; 'I' for Inactive)
REMARK    1  A    between atoms: C_11  and  C_9 
ROOT
ATOM      1  C   UNL d   1     -41.373-122.967 -50.355  0.00  0.00     0.215 A 
ATOM      2  N   UNL d   1     -41.499-122.274 -50.773  0.00  0.00    -0.219 NA
ATOM      3  S   UNL d   1     -41.224-123.570 -50.890  0.00  0.00    -0.045 SA
ATOM      4  C   UNL d   1     -41.258-123.245 -51.652  0.00  0.00     0.050 A 
ATOM      5  C   UNL d   1     -41.428-122.446 -51.581  0.00  0.00     0.090 A 
ATOM      6  C   UNL d   1     -41.155-123.584 -52.398  0.00  0.00     0.008 A 
ATOM      7  N   UNL d   1     -41.392-123.045 -49.529  0.00  0.00    -0.120 N 
ATOM      8  C   UNL d   1     -41.497-121.972 -52.253  0.00  0.00     0.020 A 
ATOM      9  C   UNL d   1     -41.225-123.112 -53.054  0.00  0.00     0.001 A 
ATOM     10  C   UNL d   1     -41.395-122.308 -52.982  0.00  0.00     0.002 A 
ENDROOT
BRANCH   9  11
ATOM     11  C   UNL d   1     -41.123-123.446 -53.803  0.00  0.00     0.000 C 
ATOM     12  C   UNL d   1     -41.435-123.073 -54.463  0.00  0.00     0.000 C 
ENDBRANCH   9  11
TORSDOF 1
ENDMDL
MODEL 4
REMARK VINA RESULT:      -4.0      2.876      4.835
REMARK  1 active torsions:
REMARK  status: ('A' for Active; 'I' for Inactive)
REMARK    1  A    between atoms: C_11  and  C_9 
ROOT
ATOM      1  C   UNL d   1     -41.517-122.510 -51.101  0.00  0.00     0.215 A 
ATOM      2  N   UNL d   1     -42.267-122.318 -50.834  0.00  0.00    -0.219 NA
ATOM      3  S   UNL d   1     -41.129-122.925 -50.510  0.00  0.00    -0.045 SA
ATOM      4  C   UNL d   1     -41.648-122.990 -49.865  0.00  0.00     0.050 A 
ATOM      5  C   UNL d   1     -42.350-122.616 -50.065  0.00  0.00     0.090 A 
ATOM      6  C   UNL d   1     -41.560-123.345 -49.126  0.00  0.00     0.008 A 
ATOM      7  N   UNL d   1     -41.203-122.319 -51.845  0.00  0.00    -0.120 N 
ATOM      8  C   UNL d   1     -42.977-122.590 -49.529  0.00  0.00     0.020 A 
ATOM      9  C   UNL d   1     -42.181-123.315 -48.603  0.00  0.00     0.001 A 
ATOM     10  C   UNL d   1     -42.887-122.939 -48.805  0.00  0.00     0.002 A 
ENDROOT
BRANCH   9  11
ATOM     11  C   UNL d   1     -42.100-123.669 -47.860  0.00  0.00     0.000 C 
ATOM     12  C   UNL d   1     -42.177-123.216 -47.181  0.00  0.00     0.000 C 
ENDBRANCH   9  11
TORSDOF 1
ENDMDL
MODEL 5
REMARK VINA RESULT:      -3.9      1.903      3.057
REMARK  1 active torsions:
REMARK  status: ('A' for Active; 'I' for Inactive)
REMARK    1  A    between atoms: C_11  and  C_9 
ROOT
ATOM      1  C   UNL d   1     -42.100-121.936 -55.473  0.00  0.00     0.215 A 
ATOM      2  N   UNL d   1     -42.376-121.498 -54.838  0.00  0.00    -0.219 NA
ATOM      3  S   UNL d   1     -41.672-122.572 -55.184  0.00  0.00    -0.045 SA
ATOM      4  C   UNL d   1     -41.681-122.527 -54.355  0.00  0.00     0.050 A 
ATOM      5  C   UNL d   1     -42.115-121.865 -54.142  0.00  0.00     0.090 A 
ATOM      6  C   UNL d   1     -41.346-123.011 -53.777  0.00  0.00     0.008 A 
ATOM      7  N   UNL d   1     -42.233-121.765 -56.274  0.00  0.00    -0.120 N 
ATOM      8  C   UNL d   1     -42.223-121.674 -53.346  0.00  0.00     0.020 A 
ATOM      9  C   UNL d   1     -41.456-122.817 -52.996  0.00  0.00     0.001 A 
ATOM     10  C   UNL d   1     -41.892-122.151 -52.781  0.00  0.00     0.002 A 
ENDROOT
BRANCH   9  11
ATOM     11  C   UNL d   1     -41.123-123.298 -52.411  0.00  0.00     0.000 C 
ATOM     12  C   UNL d   1     -41.426-123.284 -51.650  0.00  0.00     0.000 C 
ENDBRANCH   9  11
TORSDOF 1
ENDMDL
MODEL 6
REMARK VINA RESULT:      -3.7      2.218      3.287
REMARK  1 active torsions:
REMARK  status: ('A' for Active; 'I' for Inactive)
REMARK    1  A    between atoms: C_11  and  C_9 
ROOT
ATOM      1  C   UNL d   1     -42.533-123.375 -48.889  0.00  0.00     0.215 A 
ATOM      2  N   UNL d   1     -41.944-123.817 -49.248  0.00  0.00    -0.219 NA
ATOM      3  S   UNL d   1     -42.703-122.732 -49.369  0.00  0.00    -0.045 SA
ATOM      4  C   UNL d   1     -42.210-122.777 -50.035  0.00  0.00     0.050 A 
ATOM      5  C   UNL d   1     -41.743-123.446 -49.960  0.00  0.00     0.090 A 
ATOM      6  C   UNL d   1     -42.136-122.288 -50.695  0.00  0.00     0.008 A 
ATOM      7  N   UNL d   1     -42.897-123.548 -48.164  0.00  0.00    -0.120 N 
ATOM      8  C   UNL d   1     -41.192-123.639 -50.545  0.00  0.00     0.020 A 
ATOM      9  C   UNL d   1     -41.593-122.483 -51.266  0.00  0.00     0.001 A 
ATOM     10  C   UNL d   1     -41.123-123.156 -51.191  0.00  0.00     0.002 A 
ENDROOT
BRANCH   9  11
ATOM     11  C   UNL d   1     -41.514-121.997 -51.930  0.00  0.00     0.000 C 
ATOM     12  C   UNL d   1     -41.258-122.315 -52.641  0.00  0.00     0.000 C 
ENDBRANCH   9  11
TORSDOF 1
ENDMDL
