MODEL 1
REMARK VINA RESULT:      -1.8      0.000      0.000
REMARK  4 active torsions:
REMARK  status: ('A' for Active; 'I' for Inactive)
REMARK    1  A    between atoms: C_2  and  S_1 
REMARK    2  A    between atoms: N_3  and  S_1 
REMARK    3  A    between atoms: C_7  and  C_14 
REMARK       I    between atoms: N_9  and  C_7 
REMARK    4  A    between atoms: C_13  and  N_10 
ROOT
ATOM      1  N   UNL d   1      32.541  18.362 -23.570  0.00  0.00    -0.229 N 
ATOM      2  C   UNL d   1      32.860  19.975 -23.321  0.00  0.00     0.060 A 
ATOM      3  C   UNL d   1      32.238  18.925 -24.094  0.00  0.00     0.092 A 
ATOM      4  C   UNL d   1      32.998  18.607 -22.930  0.00  0.00     0.092 A 
ATOM      5  C   UNL d   1      33.156  19.404 -22.807  0.00  0.00     0.025 A 
ATOM      6  C   UNL d   1      32.400  19.741 -23.968  0.00  0.00     0.025 A 
ENDROOT
BRANCH   2   7
ATOM      7  C   UNL d   1      33.019  20.773 -23.198  0.00  0.00     0.265 C 
ATOM      8  N   UNL d   1      32.961  21.098 -22.458  0.00  0.00    -0.269 N 
ATOM      9  C   UNL d   1      32.739  20.626 -21.811  0.00  0.00     0.102 A 
ATOM     10  C   UNL d   1      33.119  21.896 -22.336  0.00  0.00     0.102 A 
ATOM     11  C   UNL d   1      32.678  20.948 -21.054  0.00  0.00     0.100 A 
ATOM     12  N   UNL d   1      32.839  21.755 -20.938  0.00  0.00    -0.301 N 
ATOM     13  C   UNL d   1      33.061  22.229 -21.586  0.00  0.00     0.100 A 
ATOM     14  O   UNL d   1      33.241  21.246 -23.845  0.00  0.00    -0.267 OA
BRANCH  12  15
ATOM     15  C   UNL d   1      32.901  22.421 -20.439  0.00  0.00     0.064 A 
ATOM     16  C   UNL d   1      32.914  23.243 -20.357  0.00  0.00     0.020 A 
ATOM     17  C   UNL d   1      33.005  23.578 -19.601  0.00  0.00     0.031 A 
ATOM     18  C   UNL d   1      33.082  23.076 -18.940  0.00  0.00     0.140 A 
ATOM     19  C   UNL d   1      33.068  22.257 -19.028  0.00  0.00     0.031 A 
ATOM     20  F   UNL d   1      33.174  23.407 -18.171  0.00  0.00    -0.204 F 
ATOM     21  C   UNL d   1      32.976  21.929 -19.787  0.00  0.00     0.020 A 
ENDBRANCH  12  15
ENDBRANCH   2   7
BRANCH   1  22
ATOM     22  S   UNL d   1      32.383  17.564 -23.694  0.00  0.00     0.275 S 
ATOM     23  O   UNL d   1      31.778  17.776 -24.223  0.00  0.00    -0.199 OA
ATOM     24  O   UNL d   1      32.994  17.365 -23.158  0.00  0.00    -0.199 OA
BRANCH  22  25
ATOM     25  C   UNL d   1      32.223  16.757 -23.818  0.00  0.00     0.148 A 
ATOM     26  C   UNL d   1      31.692  16.241 -23.465  0.00  0.00     0.139 A 
ATOM     27  O   UNL d   1      31.780  15.504 -23.815  0.00  0.00    -0.210 OA
ATOM     28  C   UNL d   1      31.161  16.439 -22.860  0.00  0.00     0.030 C 
ATOM     29  N   UNL d   1      32.370  15.557 -24.391  0.00  0.00    -0.126 NA
ATOM     30  C   UNL d   1      32.647  16.346 -24.391  0.00  0.00     0.122 A 
ATOM     31  C   UNL d   1      33.240  16.653 -24.881  0.00  0.00     0.024 C 
ENDBRANCH  22  25
ENDBRANCH   1  22
TORSDOF 4
ENDMDL
MODEL 2
REMARK VINA RESULT:       1.0      2.665      6.111
REMARK  4 active torsions:
REMARK  status: ('A' for Active; 'I' for Inactive)
REMARK    1  A    between atoms: C_2  and  S_1 
REMARK    2  A    between atoms: N_3  and  S_1 
REMARK    3  A    between atoms: C_7  and  C_14 
REMARK       I    between atoms: N_9  and  C_7 
REMARK    4  A    between atoms: C_13  and  N_10 
ROOT
ATOM      1  N   UNL d   1      32.646  21.659 -21.459  0.00  0.00    -0.229 N 
ATOM      2  C   UNL d   1      32.808  20.764 -22.850  0.00  0.00     0.060 A 
ATOM      3  C   UNL d   1      32.207  21.861 -22.129  0.00  0.00     0.092 A 
ATOM      4  C   UNL d   1      33.160  21.016 -21.488  0.00  0.00     0.092 A 
ATOM      5  C   UNL d   1      33.240  20.573 -22.176  0.00  0.00     0.025 A 
ATOM      6  C   UNL d   1      32.289  21.408 -22.833  0.00  0.00     0.025 A 
ENDROOT
BRANCH   2   7
ATOM      7  C   UNL d   1      32.888  20.320 -23.539  0.00  0.00     0.265 C 
ATOM      8  N   UNL d   1      32.645  19.548 -23.566  0.00  0.00    -0.269 N 
ATOM      9  C   UNL d   1      32.310  19.192 -22.894  0.00  0.00     0.102 A 
ATOM     10  C   UNL d   1      32.726  19.105 -24.255  0.00  0.00     0.102 A 
ATOM     11  C   UNL d   1      32.059  18.406 -22.912  0.00  0.00     0.100 A 
ATOM     12  N   UNL d   1      32.144  17.965 -23.612  0.00  0.00    -0.301 N 
ATOM     13  C   UNL d   1      32.480  18.321 -24.285  0.00  0.00     0.100 A 
ATOM     14  O   UNL d   1      33.224  20.676 -24.212  0.00  0.00    -0.267 OA
BRANCH  12  15
ATOM     15  C   UNL d   1      32.053  17.256 -24.041  0.00  0.00     0.064 A 
ATOM     16  C   UNL d   1      32.398  16.642 -24.472  0.00  0.00     0.020 A 
ATOM     17  C   UNL d   1      31.918  16.037 -24.781  0.00  0.00     0.031 A 
ATOM     18  C   UNL d   1      31.095  16.062 -24.648  0.00  0.00     0.140 A 
ATOM     19  C   UNL d   1      30.756  16.677 -24.217  0.00  0.00     0.031 A 
ATOM     20  F   UNL d   1      30.602  15.454 -24.958  0.00  0.00    -0.204 F 
ATOM     21  C   UNL d   1      31.243  17.278 -23.911  0.00  0.00     0.020 A 
ENDBRANCH  12  15
ENDBRANCH   2   7
BRANCH   1  22
ATOM     22  S   UNL d   1      32.566  22.103 -20.770  0.00  0.00     0.275 S 
ATOM     23  O   UNL d   1      32.030  21.537 -20.480  0.00  0.00    -0.199 OA
ATOM     24  O   UNL d   1      33.106  22.664 -21.075  0.00  0.00    -0.199 OA
BRANCH  22  25
ATOM     25  C   UNL d   1      32.485  22.551 -20.075  0.00  0.00     0.148 A 
ATOM     26  C   UNL d   1      32.729  22.417 -19.302  0.00  0.00     0.139 A 
ATOM     27  O   UNL d   1      32.494  23.057 -18.845  0.00  0.00    -0.210 OA
ATOM     28  C   UNL d   1      33.142  21.748 -19.040  0.00  0.00     0.030 C 
ATOM     29  N   UNL d   1      32.100  23.596 -19.332  0.00  0.00    -0.126 NA
ATOM     30  C   UNL d   1      32.096  23.275 -20.105  0.00  0.00     0.122 A 
ATOM     31  C   UNL d   1      31.759  23.627 -20.775  0.00  0.00     0.024 C 
ENDBRANCH  22  25
ENDBRANCH   1  22
TORSDOF 4
ENDMDL
