MODEL 1
REMARK VINA RESULT:      -7.4      0.000      0.000
REMARK  7 active torsions:
REMARK  status: ('A' for Active; 'I' for Inactive)
REMARK    1  A    between atoms: C_3  and  C_1 
REMARK    2  A    between atoms: C_6  and  C_2 
REMARK       I    between atoms: N_5  and  C_3 
REMARK    3  A    between atoms: C_9  and  N_5 
REMARK    4  A    between atoms: N_10  and  C_9 
REMARK    5  A    between atoms: C_15  and  N_10 
REMARK    6  A    between atoms: C_13  and  C_15 
REMARK    7  A    between atoms: C_17  and  C_13 
ROOT
ATOM      1  C   UNL d   1     -49.030  14.569  22.586  0.00  0.00     0.285 C 
ATOM      2  N   UNL d   1     -48.415  14.540  23.133  0.00  0.00    -0.179 NA
ATOM      3  O   UNL d   1     -48.867  14.602  21.777  0.00  0.00    -0.265 OA
ENDROOT
BRANCH   1   4
ATOM      4  C   UNL d   1     -49.818  14.565  22.857  0.00  0.00     0.103 A 
ATOM      5  C   UNL d   1     -50.353  13.949  22.779  0.00  0.00     0.116 A 
ATOM      6  N   UNL d   1     -51.062  14.179  23.123  0.00  0.00    -0.126 NA
ATOM      7  O   UNL d   1     -50.961  14.944  23.416  0.00  0.00    -0.211 OA
ATOM      8  C   UNL d   1     -50.194  15.179  23.251  0.00  0.00     0.131 A 
ATOM      9  C   UNL d   1     -49.867  15.912  23.452  0.00  0.00     0.029 C 
BRANCH   5  10
ATOM     10  C   UNL d   1     -50.239  13.214  22.424  0.00  0.00     0.031 A 
ATOM     11  C   UNL d   1     -50.273  12.526  22.874  0.00  0.00     0.059 A 
ATOM     12 CL   UNL d   1     -50.423  12.567  23.695  0.00  0.00    -0.082 Cl
ATOM     13  C   UNL d   1     -50.161  11.799  22.524  0.00  0.00     0.011 A 
ATOM     14  C   UNL d   1     -50.013  11.754  21.714  0.00  0.00     0.001 A 
ATOM     15  C   UNL d   1     -49.978  12.433  21.263  0.00  0.00     0.000 A 
ATOM     16  C   UNL d   1     -50.091  13.169  21.613  0.00  0.00     0.002 A 
ENDBRANCH   5  10
ENDBRANCH   1   4
BRANCH   2  17
ATOM     17  C   UNL d   1     -47.633  14.543  22.872  0.00  0.00     0.224 C 
ATOM     18  S   UNL d   1     -47.415  15.024  22.238  0.00  0.00    -0.037 SA
BRANCH  17  19
ATOM     19  N   UNL d   1     -47.074  14.067  23.246  0.00  0.00    -0.212 NA
BRANCH  19  20
ATOM     20  C   UNL d   1     -46.874  13.338  22.916  0.00  0.00     0.143 C 
BRANCH  20  21
ATOM     21  C   UNL d   1     -46.194  12.936  23.168  0.00  0.00     0.215 C 
ATOM     22  O   UNL d   1     -45.487  13.340  23.270  0.00  0.00    -0.285 OA
BRANCH  21  23
ATOM     23  C   UNL d   1     -46.231  12.125  23.317  0.00  0.00     0.041 A 
ATOM     24  C   UNL d   1     -46.943  11.771  23.518  0.00  0.00     0.003 A 
ATOM     25  C   UNL d   1     -46.981  10.960  23.667  0.00  0.00     0.000 A 
ATOM     26  C   UNL d   1     -46.294  10.503  23.613  0.00  0.00     0.000 A 
ATOM     27  C   UNL d   1     -45.582  10.857  23.412  0.00  0.00     0.000 A 
ATOM     28  C   UNL d   1     -45.544  11.668  23.263  0.00  0.00     0.003 A 
ENDBRANCH  21  23
ENDBRANCH  20  21
ENDBRANCH  19  20
ENDBRANCH  17  19
ENDBRANCH   2  17
TORSDOF 7
ENDMDL
MODEL 2
REMARK VINA RESULT:      -7.1      1.437      2.127
REMARK  7 active torsions:
REMARK  status: ('A' for Active; 'I' for Inactive)
REMARK    1  A    between atoms: C_3  and  C_1 
REMARK    2  A    between atoms: C_6  and  C_2 
REMARK       I    between atoms: N_5  and  C_3 
REMARK    3  A    between atoms: C_9  and  N_5 
REMARK    4  A    between atoms: N_10  and  C_9 
REMARK    5  A    between atoms: C_15  and  N_10 
REMARK    6  A    between atoms: C_13  and  C_15 
REMARK    7  A    between atoms: C_17  and  C_13 
ROOT
ATOM      1  C   UNL d   1     -50.222  14.256  22.428  0.00  0.00     0.285 C 
ATOM      2  N   UNL d   1     -49.500  14.641  22.329  0.00  0.00    -0.179 NA
ATOM      3  O   UNL d   1     -50.656  14.355  23.123  0.00  0.00    -0.265 OA
ENDROOT
BRANCH   1   4
ATOM      4  C   UNL d   1     -50.510  13.765  21.818  0.00  0.00     0.103 A 
ATOM      5  C   UNL d   1     -50.485  12.947  21.805  0.00  0.00     0.116 A 
ATOM      6  N   UNL d   1     -50.827  12.690  21.104  0.00  0.00    -0.126 NA
ATOM      7  O   UNL d   1     -51.064  13.359  20.683  0.00  0.00    -0.211 OA
ATOM      8  C   UNL d   1     -50.867  14.020  21.124  0.00  0.00     0.131 A 
ATOM      9  C   UNL d   1     -51.010  14.803  20.899  0.00  0.00     0.029 C 
BRANCH   5  10
ATOM     10  C   UNL d   1     -50.180  12.434  22.374  0.00  0.00     0.031 A 
ATOM     11  C   UNL d   1     -49.554  11.933  22.189  0.00  0.00     0.059 A 
ATOM     12 CL   UNL d   1     -49.221  11.940  21.422  0.00  0.00    -0.082 Cl
ATOM     13  C   UNL d   1     -49.252  11.426  22.751  0.00  0.00     0.011 A 
ATOM     14  C   UNL d   1     -49.577  11.416  23.508  0.00  0.00     0.001 A 
ATOM     15  C   UNL d   1     -50.198  11.910  23.697  0.00  0.00     0.000 A 
ATOM     16  C   UNL d   1     -50.506  12.424  23.132  0.00  0.00     0.002 A 
ENDBRANCH   5  10
ENDBRANCH   1   4
BRANCH   2  17
ATOM     17  C   UNL d   1     -49.210  15.128  22.927  0.00  0.00     0.224 C 
ATOM     18  S   UNL d   1     -49.721  15.641  23.323  0.00  0.00    -0.037 SA
BRANCH  17  19
ATOM     19  N   UNL d   1     -48.412  15.099  23.126  0.00  0.00    -0.212 NA
BRANCH  19  20
ATOM     20  C   UNL d   1     -47.879  14.718  22.623  0.00  0.00     0.143 C 
BRANCH  20  21
ATOM     21  C   UNL d   1     -47.062  14.792  22.744  0.00  0.00     0.215 C 
ATOM     22  O   UNL d   1     -46.723  15.532  22.850  0.00  0.00    -0.285 OA
BRANCH  21  23
ATOM     23  C   UNL d   1     -46.589  14.116  22.758  0.00  0.00     0.041 A 
ATOM     24  C   UNL d   1     -46.620  13.599  23.394  0.00  0.00     0.003 A 
ATOM     25  C   UNL d   1     -46.147  12.923  23.408  0.00  0.00     0.000 A 
ATOM     26  C   UNL d   1     -45.639  12.767  22.775  0.00  0.00     0.000 A 
ATOM     27  C   UNL d   1     -45.608  13.284  22.139  0.00  0.00     0.000 A 
ATOM     28  C   UNL d   1     -46.080  13.960  22.125  0.00  0.00     0.003 A 
ENDBRANCH  21  23
ENDBRANCH  20  21
ENDBRANCH  19  20
ENDBRANCH  17  19
ENDBRANCH   2  17
TORSDOF 7
ENDMDL
MODEL 3
REMARK VINA RESULT:      -6.2      1.769      2.610
REMARK  7 active torsions:
REMARK  status: ('A' for Active; 'I' for Inactive)
REMARK    1  A    between atoms: C_3  and  C_1 
REMARK    2  A    between atoms: C_6  and  C_2 
REMARK       I    between atoms: N_5  and  C_3 
REMARK    3  A    between atoms: C_9  and  N_5 
REMARK    4  A    between atoms: N_10  and  C_9 
REMARK    5  A    between atoms: C_15  and  N_10 
REMARK    6  A    between atoms: C_13  and  C_15 
REMARK    7  A    between atoms: C_17  and  C_13 
ROOT
ATOM      1  C   UNL d   1     -48.530  12.986  23.174  0.00  0.00     0.285 C 
ATOM      2  N   UNL d   1     -47.964  12.815  22.601  0.00  0.00    -0.179 NA
ATOM      3  O   UNL d   1     -48.418  13.614  23.698  0.00  0.00    -0.265 OA
ENDROOT
BRANCH   1   4
ATOM      4  C   UNL d   1     -49.219  12.517  23.220  0.00  0.00     0.103 A 
ATOM      5  C   UNL d   1     -49.986  12.772  23.087  0.00  0.00     0.116 A 
ATOM      6  N   UNL d   1     -50.490  12.133  23.191  0.00  0.00    -0.126 NA
ATOM      7  O   UNL d   1     -50.028  11.479  23.389  0.00  0.00    -0.211 OA
ATOM      8  C   UNL d   1     -49.245  11.718  23.407  0.00  0.00     0.131 A 
ATOM      9  C   UNL d   1     -48.601  11.230  23.584  0.00  0.00     0.029 C 
BRANCH   5  10
ATOM     10  C   UNL d   1     -50.247  13.527  22.883  0.00  0.00     0.031 A 
ATOM     11  C   UNL d   1     -50.610  13.658  22.157  0.00  0.00     0.059 A 
ATOM     12 CL   UNL d   1     -50.717  13.028  21.619  0.00  0.00    -0.082 Cl
ATOM     13  C   UNL d   1     -50.869  14.404  21.955  0.00  0.00     0.011 A 
ATOM     14  C   UNL d   1     -50.766  15.029  22.483  0.00  0.00     0.001 A 
ATOM     15  C   UNL d   1     -50.406  14.904  23.204  0.00  0.00     0.000 A 
ATOM     16  C   UNL d   1     -50.144  14.152  23.412  0.00  0.00     0.002 A 
ENDBRANCH   5  10
ENDBRANCH   1   4
BRANCH   2  17
ATOM     17  C   UNL d   1     -47.282  13.274  22.549  0.00  0.00     0.224 C 
ATOM     18  S   UNL d   1     -47.306  14.005  22.168  0.00  0.00    -0.037 SA
BRANCH  17  19
ATOM     19  N   UNL d   1     -46.578  13.000  22.880  0.00  0.00    -0.212 NA
BRANCH  19  20
ATOM     20  C   UNL d   1     -45.890  12.989  22.423  0.00  0.00     0.143 C 
BRANCH  20  21
ATOM     21  C   UNL d   1     -45.248  12.515  22.644  0.00  0.00     0.215 C 
ATOM     22  O   UNL d   1     -45.312  11.999  23.278  0.00  0.00    -0.285 OA
BRANCH  21  23
ATOM     23  C   UNL d   1     -44.540  12.564  22.222  0.00  0.00     0.041 A 
ATOM     24  C   UNL d   1     -44.487  13.035  21.552  0.00  0.00     0.003 A 
ATOM     25  C   UNL d   1     -43.780  13.085  21.130  0.00  0.00     0.000 A 
ATOM     26  C   UNL d   1     -43.120  12.656  21.385  0.00  0.00     0.000 A 
ATOM     27  C   UNL d   1     -43.174  12.185  22.055  0.00  0.00     0.000 A 
ATOM     28  C   UNL d   1     -43.881  12.135  22.478  0.00  0.00     0.003 A 
ENDBRANCH  21  23
ENDBRANCH  20  21
ENDBRANCH  19  20
ENDBRANCH  17  19
ENDBRANCH   2  17
TORSDOF 7
ENDMDL
MODEL 4
REMARK VINA RESULT:      -5.1      9.397     10.641
REMARK  7 active torsions:
REMARK  status: ('A' for Active; 'I' for Inactive)
REMARK    1  A    between atoms: C_3  and  C_1 
REMARK    2  A    between atoms: C_6  and  C_2 
REMARK       I    between atoms: N_5  and  C_3 
REMARK    3  A    between atoms: C_9  and  N_5 
REMARK    4  A    between atoms: N_10  and  C_9 
REMARK    5  A    between atoms: C_15  and  N_10 
REMARK    6  A    between atoms: C_13  and  C_15 
REMARK    7  A    between atoms: C_17  and  C_13 
ROOT
ATOM      1  C   UNL d   1     -39.270  15.292  18.434  0.00  0.00     0.285 C 
ATOM      2  N   UNL d   1     -39.262  14.745  19.051  0.00  0.00    -0.179 NA
ATOM      3  O   UNL d   1     -38.641  15.816  18.332  0.00  0.00    -0.265 OA
ENDROOT
BRANCH   1   4
ATOM      4  C   UNL d   1     -39.922  15.310  17.914  0.00  0.00     0.103 A 
ATOM      5  C   UNL d   1     -39.897  15.187  17.104  0.00  0.00     0.116 A 
ATOM      6  N   UNL d   1     -40.660  15.254  16.810  0.00  0.00    -0.126 NA
ATOM      7  O   UNL d   1     -41.159  15.421  17.446  0.00  0.00    -0.211 OA
ATOM      8  C   UNL d   1     -40.702  15.454  18.125  0.00  0.00     0.131 A 
ATOM      9  C   UNL d   1     -40.989  15.608  18.885  0.00  0.00     0.029 C 
BRANCH   5  10
ATOM     10  C   UNL d   1     -39.242  15.022  16.631  0.00  0.00     0.031 A 
ATOM     11  C   UNL d   1     -39.106  14.257  16.362  0.00  0.00     0.059 A 
ATOM     12 CL   UNL d   1     -39.631  13.639  16.567  0.00  0.00    -0.082 Cl
ATOM     13  C   UNL d   1     -38.460  14.092  15.894  0.00  0.00     0.011 A 
ATOM     14  C   UNL d   1     -37.940  14.699  15.690  0.00  0.00     0.001 A 
ATOM     15  C   UNL d   1     -38.070  15.460  15.953  0.00  0.00     0.000 A 
ATOM     16  C   UNL d   1     -38.722  15.629  16.426  0.00  0.00     0.002 A 
ENDBRANCH   5  10
ENDBRANCH   1   4
BRANCH   2  17
ATOM     17  C   UNL d   1     -38.622  14.722  19.569  0.00  0.00     0.224 C 
ATOM     18  S   UNL d   1     -37.940  14.307  19.359  0.00  0.00    -0.037 SA
BRANCH  17  19
ATOM     19  N   UNL d   1     -38.666  15.112  20.293  0.00  0.00    -0.212 NA
BRANCH  19  20
ATOM     20  C   UNL d   1     -38.457  14.713  20.985  0.00  0.00     0.143 C 
BRANCH  20  21
ATOM     21  C   UNL d   1     -38.728  14.980  21.721  0.00  0.00     0.215 C 
ATOM     22  O   UNL d   1     -39.054  15.729  21.796  0.00  0.00    -0.285 OA
BRANCH  21  23
ATOM     23  C   UNL d   1     -38.669  14.488  22.380  0.00  0.00     0.041 A 
ATOM     24  C   UNL d   1     -38.174  14.685  23.004  0.00  0.00     0.003 A 
ATOM     25  C   UNL d   1     -38.115  14.193  23.664  0.00  0.00     0.000 A 
ATOM     26  C   UNL d   1     -38.558  13.496  23.695  0.00  0.00     0.000 A 
ATOM     27  C   UNL d   1     -39.053  13.299  23.071  0.00  0.00     0.000 A 
ATOM     28  C   UNL d   1     -39.113  13.790  22.411  0.00  0.00     0.003 A 
ENDBRANCH  21  23
ENDBRANCH  20  21
ENDBRANCH  19  20
ENDBRANCH  17  19
ENDBRANCH   2  17
TORSDOF 7
ENDMDL
MODEL 5
REMARK VINA RESULT:      -5.0      8.535     10.414
REMARK  7 active torsions:
REMARK  status: ('A' for Active; 'I' for Inactive)
REMARK    1  A    between atoms: C_3  and  C_1 
REMARK    2  A    between atoms: C_6  and  C_2 
REMARK       I    between atoms: N_5  and  C_3 
REMARK    3  A    between atoms: C_9  and  N_5 
REMARK    4  A    between atoms: N_10  and  C_9 
REMARK    5  A    between atoms: C_15  and  N_10 
REMARK    6  A    between atoms: C_13  and  C_15 
REMARK    7  A    between atoms: C_17  and  C_13 
ROOT
ATOM      1  C   UNL d   1     -38.985  13.676  20.438  0.00  0.00     0.285 C 
ATOM      2  N   UNL d   1     -38.267  13.870  20.083  0.00  0.00    -0.179 NA
ATOM      3  O   UNL d   1     -39.639  13.477  19.976  0.00  0.00    -0.265 OA
ENDROOT
BRANCH   1   4
ATOM      4  C   UNL d   1     -39.043  13.684  21.270  0.00  0.00     0.103 A 
ATOM      5  C   UNL d   1     -39.587  14.110  21.712  0.00  0.00     0.116 A 
ATOM      6  N   UNL d   1     -39.448  13.957  22.506  0.00  0.00    -0.126 NA
ATOM      7  O   UNL d   1     -38.812  13.433  22.552  0.00  0.00    -0.211 OA
ATOM      8  C   UNL d   1     -38.565  13.266  21.790  0.00  0.00     0.131 A 
ATOM      9  C   UNL d   1     -37.940  12.763  21.591  0.00  0.00     0.029 C 
BRANCH   5  10
ATOM     10  C   UNL d   1     -40.183  14.612  21.445  0.00  0.00     0.031 A 
ATOM     11  C   UNL d   1     -40.127  15.424  21.566  0.00  0.00     0.059 A 
ATOM     12 CL   UNL d   1     -39.465  15.746  21.960  0.00  0.00    -0.082 Cl
ATOM     13  C   UNL d   1     -40.716  15.922  21.302  0.00  0.00     0.011 A 
ATOM     14  C   UNL d   1     -41.372  15.607  20.913  0.00  0.00     0.001 A 
ATOM     15  C   UNL d   1     -41.432  14.803  20.790  0.00  0.00     0.000 A 
ATOM     16  C   UNL d   1     -40.839  14.298  21.055  0.00  0.00     0.002 A 
ENDBRANCH   5  10
ENDBRANCH   1   4
BRANCH   2  17
ATOM     17  C   UNL d   1     -38.202  13.864  19.262  0.00  0.00     0.224 C 
ATOM     18  S   UNL d   1     -38.081  13.150  18.865  0.00  0.00    -0.037 SA
BRANCH  17  19
ATOM     19  N   UNL d   1     -38.258  14.570  18.841  0.00  0.00    -0.212 NA
BRANCH  19  20
ATOM     20  C   UNL d   1     -38.643  14.580  18.110  0.00  0.00     0.143 C 
BRANCH  20  21
ATOM     21  C   UNL d   1     -38.669  15.275  17.660  0.00  0.00     0.215 C 
ATOM     22  O   UNL d   1     -38.010  15.762  17.609  0.00  0.00    -0.285 OA
BRANCH  21  23
ATOM     23  C   UNL d   1     -39.363  15.477  17.262  0.00  0.00     0.041 A 
ATOM     24  C   UNL d   1     -40.059  15.604  17.677  0.00  0.00     0.003 A 
ATOM     25  C   UNL d   1     -40.753  15.806  17.279  0.00  0.00     0.000 A 
ATOM     26  C   UNL d   1     -40.746  15.881  16.456  0.00  0.00     0.000 A 
ATOM     27  C   UNL d   1     -40.050  15.754  16.041  0.00  0.00     0.000 A 
ATOM     28  C   UNL d   1     -39.355  15.552  16.438  0.00  0.00     0.003 A 
ENDBRANCH  21  23
ENDBRANCH  20  21
ENDBRANCH  19  20
ENDBRANCH  17  19
ENDBRANCH   2  17
TORSDOF 7
ENDMDL
MODEL 6
REMARK VINA RESULT:      -4.9      8.240     10.198
REMARK  7 active torsions:
REMARK  status: ('A' for Active; 'I' for Inactive)
REMARK    1  A    between atoms: C_3  and  C_1 
REMARK    2  A    between atoms: C_6  and  C_2 
REMARK       I    between atoms: N_5  and  C_3 
REMARK    3  A    between atoms: C_9  and  N_5 
REMARK    4  A    between atoms: N_10  and  C_9 
REMARK    5  A    between atoms: C_15  and  N_10 
REMARK    6  A    between atoms: C_13  and  C_15 
REMARK    7  A    between atoms: C_17  and  C_13 
ROOT
ATOM      1  C   UNL d   1     -38.618  14.714  18.467  0.00  0.00     0.285 C 
ATOM      2  N   UNL d   1     -38.884  14.785  19.244  0.00  0.00    -0.179 NA
ATOM      3  O   UNL d   1     -38.125  15.289  18.140  0.00  0.00    -0.265 OA
ENDROOT
BRANCH   1   4
ATOM      4  C   UNL d   1     -38.854  14.054  18.015  0.00  0.00     0.103 A 
ATOM      5  C   UNL d   1     -39.435  14.048  17.436  0.00  0.00     0.116 A 
ATOM      6  N   UNL d   1     -39.487  13.287  17.133  0.00  0.00    -0.126 NA
ATOM      7  O   UNL d   1     -38.932  12.822  17.529  0.00  0.00    -0.211 OA
ATOM      8  C   UNL d   1     -38.544  13.296  18.071  0.00  0.00     0.131 A 
ATOM      9  C   UNL d   1     -37.945  13.044  18.583  0.00  0.00     0.029 C 
BRANCH   5  10
ATOM     10  C   UNL d   1     -39.905  14.673  17.176  0.00  0.00     0.031 A 
ATOM     11  C   UNL d   1     -40.714  14.673  17.324  0.00  0.00     0.059 A 
ATOM     12 CL   UNL d   1     -41.066  14.039  17.740  0.00  0.00    -0.082 Cl
ATOM     13  C   UNL d   1     -41.181  15.289  17.067  0.00  0.00     0.011 A 
ATOM     14  C   UNL d   1     -40.837  15.916  16.656  0.00  0.00     0.001 A 
ATOM     15  C   UNL d   1     -40.036  15.922  16.506  0.00  0.00     0.000 A 
ATOM     16  C   UNL d   1     -39.562  15.300  16.764  0.00  0.00     0.002 A 
ENDBRANCH   5  10
ENDBRANCH   1   4
BRANCH   2  17
ATOM     17  C   UNL d   1     -38.655  15.434  19.697  0.00  0.00     0.224 C 
ATOM     18  S   UNL d   1     -37.940  15.814  19.537  0.00  0.00    -0.037 SA
BRANCH  17  19
ATOM     19  N   UNL d   1     -39.141  15.700  20.307  0.00  0.00    -0.212 NA
BRANCH  19  20
ATOM     20  C   UNL d   1     -39.352  15.182  20.915  0.00  0.00     0.143 C 
BRANCH  20  21
ATOM     21  C   UNL d   1     -39.977  15.369  21.426  0.00  0.00     0.215 C 
ATOM     22  O   UNL d   1     -39.872  15.920  22.025  0.00  0.00    -0.285 OA
BRANCH  21  23
ATOM     23  C   UNL d   1     -40.708  14.999  21.330  0.00  0.00     0.041 A 
ATOM     24  C   UNL d   1     -41.352  15.417  21.042  0.00  0.00     0.003 A 
ATOM     25  C   UNL d   1     -42.083  15.048  20.945  0.00  0.00     0.000 A 
ATOM     26  C   UNL d   1     -42.166  14.248  21.141  0.00  0.00     0.000 A 
ATOM     27  C   UNL d   1     -41.522  13.830  21.430  0.00  0.00     0.000 A 
ATOM     28  C   UNL d   1     -40.790  14.200  21.526  0.00  0.00     0.003 A 
ENDBRANCH  21  23
ENDBRANCH  20  21
ENDBRANCH  19  20
ENDBRANCH  17  19
ENDBRANCH   2  17
TORSDOF 7
ENDMDL
MODEL 7
REMARK VINA RESULT:      -4.8      7.059      9.124
REMARK  7 active torsions:
REMARK  status: ('A' for Active; 'I' for Inactive)
REMARK    1  A    between atoms: C_3  and  C_1 
REMARK    2  A    between atoms: C_6  and  C_2 
REMARK       I    between atoms: N_5  and  C_3 
REMARK    3  A    between atoms: C_9  and  N_5 
REMARK    4  A    between atoms: N_10  and  C_9 
REMARK    5  A    between atoms: C_15  and  N_10 
REMARK    6  A    between atoms: C_13  and  C_15 
REMARK    7  A    between atoms: C_17  and  C_13 
ROOT
ATOM      1  C   UNL d   1     -39.947  15.133  20.003  0.00  0.00     0.285 C 
ATOM      2  N   UNL d   1     -40.249  14.484  20.410  0.00  0.00    -0.179 NA
ATOM      3  O   UNL d   1     -40.349  15.854  20.009  0.00  0.00    -0.265 OA
ENDROOT
BRANCH   1   4
ATOM      4  C   UNL d   1     -39.231  15.055  19.583  0.00  0.00     0.103 A 
ATOM      5  C   UNL d   1     -39.146  15.054  18.769  0.00  0.00     0.116 A 
ATOM      6  N   UNL d   1     -38.349  14.963  18.593  0.00  0.00    -0.126 NA
ATOM      7  O   UNL d   1     -37.941  14.907  19.308  0.00  0.00    -0.211 OA
ATOM      8  C   UNL d   1     -38.486  14.964  19.917  0.00  0.00     0.131 A 
ATOM      9  C   UNL d   1     -38.305  14.934  20.723  0.00  0.00     0.029 C 
BRANCH   5  10
ATOM     10  C   UNL d   1     -39.730  15.128  18.192  0.00  0.00     0.031 A 
ATOM     11  C   UNL d   1     -39.925  14.489  17.713  0.00  0.00     0.059 A 
ATOM     12 CL   UNL d   1     -39.532  13.757  17.807  0.00  0.00    -0.082 Cl
ATOM     13  C   UNL d   1     -40.503  14.561  17.143  0.00  0.00     0.011 A 
ATOM     14  C   UNL d   1     -40.893  15.281  17.047  0.00  0.00     0.001 A 
ATOM     15  C   UNL d   1     -40.704  15.919  17.519  0.00  0.00     0.000 A 
ATOM     16  C   UNL d   1     -40.121  15.849  18.096  0.00  0.00     0.002 A 
ENDBRANCH   5  10
ENDBRANCH   1   4
BRANCH   2  17
ATOM     17  C   UNL d   1     -40.956  14.555  20.827  0.00  0.00     0.224 C 
ATOM     18  S   UNL d   1     -40.989  15.026  21.503  0.00  0.00    -0.037 SA
BRANCH  17  19
ATOM     19  N   UNL d   1     -41.627  14.154  20.566  0.00  0.00    -0.212 NA
BRANCH  19  20
ATOM     20  C   UNL d   1     -42.073  13.712  21.102  0.00  0.00     0.143 C 
BRANCH  20  21
ATOM     21  C   UNL d   1     -42.619  13.151  20.831  0.00  0.00     0.215 C 
ATOM     22  O   UNL d   1     -42.593  12.888  20.054  0.00  0.00    -0.285 OA
BRANCH  21  23
ATOM     23  C   UNL d   1     -43.190  12.855  21.348  0.00  0.00     0.041 A 
ATOM     24  C   UNL d   1     -43.019  12.222  21.840  0.00  0.00     0.003 A 
ATOM     25  C   UNL d   1     -43.591  11.926  22.357  0.00  0.00     0.000 A 
ATOM     26  C   UNL d   1     -44.341  12.272  22.377  0.00  0.00     0.000 A 
ATOM     27  C   UNL d   1     -44.512  12.906  21.885  0.00  0.00     0.000 A 
ATOM     28  C   UNL d   1     -43.941  13.202  21.368  0.00  0.00     0.003 A 
ENDBRANCH  21  23
ENDBRANCH  20  21
ENDBRANCH  19  20
ENDBRANCH  17  19
ENDBRANCH   2  17
TORSDOF 7
ENDMDL
