MODEL 1
REMARK VINA RESULT:      89.4      0.000      0.000
REMARK  3 active torsions:
REMARK  status: ('A' for Active; 'I' for Inactive)
REMARK    1  A    between atoms: C_11  and  C_6 
REMARK       I    between atoms: N_15  and  C_11 
REMARK    2  A    between atoms: C_23  and  N_15 
REMARK    3  A    between atoms: C_22  and  C_23 
ROOT
ATOM      1  C   UNL d   1      58.812  49.239  51.242  0.00  0.00     0.155 A 
ATOM      2  C   UNL d   1      58.925  49.164  50.427  0.00  0.00     0.091 A 
ATOM      3  N   UNL d   1      58.059  49.388  51.539  0.00  0.00    -0.210 NA
ATOM      4  N   UNL d   1      57.534  49.388  50.215  0.00  0.00    -0.258 N 
ATOM      5  N   UNL d   1      59.453  49.163  51.751  0.00  0.00    -0.272 N 
ATOM      6  C   UNL d   1      60.327  48.939  50.640  0.00  0.00     0.094 A 
ATOM      7  C   UNL d   1      57.429  49.461  51.032  0.00  0.00     0.152 A 
ATOM      8  C   UNL d   1      58.283  49.239  49.910  0.00  0.00     0.269 A 
ATOM      9  C   UNL d   1      60.215  49.012  51.448  0.00  0.00     0.175 A 
ATOM     10  C   UNL d   1      59.677  49.015  50.122  0.00  0.00     0.016 A 
ATOM     11  C   UNL d   1      56.671  49.611  51.327  0.00  0.00     0.035 A 
ATOM     12  C   UNL d   1      56.895  49.463  49.698  0.00  0.00     0.084 A 
ATOM     13  N   UNL d   1      60.860  48.937  51.965  0.00  0.00    -0.128 N 
ATOM     14  O   UNL d   1      58.395  49.166  49.100  0.00  0.00    -0.266 OA
ATOM     15  C   UNL d   1      56.148  49.611  50.003  0.00  0.00     0.019 A 
ATOM     16  C   UNL d   1      56.036  49.686  50.819  0.00  0.00     0.005 A 
ATOM     17  C   UNL d   1      59.341  49.237  52.564  0.00  0.00     0.102 C 
ATOM     18  C   UNL d   1      56.559  49.685  52.140  0.00  0.00     0.003 C 
ENDROOT
BRANCH   6  19
ATOM     19  C   UNL d   1      61.084  48.788  50.336  0.00  0.00     0.282 C 
ATOM     20  N   UNL d   1      61.244  48.062  49.981  0.00  0.00    -0.206 NA
ATOM     21  O   UNL d   1      61.670  49.361  50.390  0.00  0.00    -0.265 OA
BRANCH  20  22
ATOM     22  C   UNL d   1      61.996  47.917  49.681  0.00  0.00     0.104 C 
BRANCH  22  23
ATOM     23  C   UNL d   1      62.232  47.137  49.533  0.00  0.00     0.038 A 
ATOM     24  C   UNL d   1      61.768  46.514  49.809  0.00  0.00     0.101 A 
ATOM     25  N   UNL d   1      61.999  45.735  49.664  0.00  0.00    -0.242 NA
ATOM     26  C   UNL d   1      62.692  45.584  49.244  0.00  0.00     0.099 A 
ATOM     27  C   UNL d   1      63.156  46.211  48.968  0.00  0.00     0.021 A 
ATOM     28  C   UNL d   1      62.920  46.987  49.116  0.00  0.00     0.005 A 
ENDBRANCH  22  23
ENDBRANCH  20  22
ENDBRANCH   6  19
TORSDOF 3
ENDMDL
