MODEL 1
REMARK VINA RESULT:      11.8      0.000      0.000
REMARK  3 active torsions:
REMARK  status: ('A' for Active; 'I' for Inactive)
REMARK    1  A    between atoms: C_12  and  C_4 
REMARK    2  A    between atoms: S_8  and  C_12 
REMARK    3  A    between atoms: C_11  and  S_8 
ROOT
ATOM      1  N   UNL d   1      45.262 -15.068  44.844  0.00  0.00    -0.289 N 
ATOM      2  C   UNL d   1      46.097 -14.986  44.741  0.00  0.00     0.148 A 
ATOM      3  N   UNL d   1      46.435 -15.757  44.754  0.00  0.00    -0.226 NA
ATOM      4  C   UNL d   1      45.806 -16.276  44.862  0.00  0.00     0.107 A 
ATOM      5  C   UNL d   1      45.119 -15.887  44.916  0.00  0.00     0.101 A 
ATOM      6  C   UNL d   1      44.800 -14.401  44.853  0.00  0.00     0.066 A 
ATOM      7  C   UNL d   1      46.436 -14.239  44.651  0.00  0.00     0.037 A 
ATOM      8  C   UNL d   1      45.947 -13.569  44.662  0.00  0.00     0.005 A 
ATOM      9  C   UNL d   1      45.146 -13.648  44.761  0.00  0.00     0.018 A 
ATOM     10  C   UNL d   1      43.968 -14.483  44.955  0.00  0.00     0.019 C 
ENDROOT
BRANCH   4  11
ATOM     11  C   UNL d   1      45.930 -17.108  44.904  0.00  0.00     0.056 C 
BRANCH  11  12
ATOM     12  S   UNL d   1      46.119 -17.494  44.203  0.00  0.00    -0.083 SA
BRANCH  12  13
ATOM     13  C   UNL d   1      46.297 -18.322  44.217  0.00  0.00     0.049 A 
ATOM     14  C   UNL d   1      46.431 -18.725  43.515  0.00  0.00     0.109 A 
ATOM     15  N   UNL d   1      46.390 -18.304  42.761  0.00  0.00    -0.148 N 
ATOM     16  C   UNL d   1      46.604 -19.531  43.529  0.00  0.00     0.021 A 
ATOM     17  C   UNL d   1      46.642 -19.924  44.245  0.00  0.00     0.002 A 
ATOM     18  C   UNL d   1      46.516 -19.548  44.917  0.00  0.00     0.001 A 
ATOM     19  C   UNL d   1      46.336 -18.721  44.939  0.00  0.00     0.008 A 
ENDBRANCH  12  13
ENDBRANCH  11  12
ENDBRANCH   4  11
TORSDOF 3
ENDMDL
MODEL 2
REMARK VINA RESULT:      12.0      0.861      4.487
REMARK  3 active torsions:
REMARK  status: ('A' for Active; 'I' for Inactive)
REMARK    1  A    between atoms: C_12  and  C_4 
REMARK    2  A    between atoms: S_8  and  C_12 
REMARK    3  A    between atoms: C_11  and  S_8 
ROOT
ATOM      1  N   UNL d   1      46.282 -18.792  44.068  0.00  0.00    -0.289 N 
ATOM      2  C   UNL d   1      46.286 -18.447  43.296  0.00  0.00     0.148 A 
ATOM      3  N   UNL d   1      46.287 -17.610  43.388  0.00  0.00    -0.226 NA
ATOM      4  C   UNL d   1      46.285 -17.474  44.198  0.00  0.00     0.107 A 
ATOM      5  C   UNL d   1      46.282 -18.153  44.605  0.00  0.00     0.101 A 
ATOM      6  C   UNL d   1      46.280 -19.601  44.136  0.00  0.00     0.066 A 
ATOM      7  C   UNL d   1      46.287 -18.926  42.623  0.00  0.00     0.037 A 
ATOM      8  C   UNL d   1      46.284 -19.751  42.714  0.00  0.00     0.005 A 
ATOM      9  C   UNL d   1      46.281 -20.081  43.455  0.00  0.00     0.018 A 
ATOM     10  C   UNL d   1      46.277 -19.944  44.905  0.00  0.00     0.019 C 
ENDROOT
BRANCH   4  11
ATOM     11  C   UNL d   1      46.286 -16.690  44.509  0.00  0.00     0.056 C 
BRANCH  11  12
ATOM     12  S   UNL d   1      45.579 -16.271  44.467  0.00  0.00    -0.083 SA
BRANCH  12  13
ATOM     13  C   UNL d   1      45.584 -15.433  44.593  0.00  0.00     0.049 A 
ATOM     14  C   UNL d   1      44.898 -15.051  44.831  0.00  0.00     0.109 A 
ATOM     15  N   UNL d   1      44.172 -15.503  44.955  0.00  0.00    -0.148 N 
ATOM     16  C   UNL d   1      44.902 -14.236  44.953  0.00  0.00     0.021 A 
ATOM     17  C   UNL d   1      45.592 -13.812  44.835  0.00  0.00     0.002 A 
ATOM     18  C   UNL d   1      46.248 -14.169  44.608  0.00  0.00     0.001 A 
ATOM     19  C   UNL d   1      46.279 -15.004  44.474  0.00  0.00     0.008 A 
ENDBRANCH  12  13
ENDBRANCH  11  12
ENDBRANCH   4  11
TORSDOF 3
ENDMDL
