MODEL 1
REMARK VINA RESULT:      -9.2      0.000      0.000
REMARK  4 active torsions:
REMARK  status: ('A' for Active; 'I' for Inactive)
REMARK    1  A    between atoms: N_4  and  C_2 
REMARK       I    between atoms: C_3  and  N_4 
REMARK    2  A    between atoms: C_10  and  C_3 
REMARK    3  A    between atoms: C_12  and  N_4 
REMARK    4  A    between atoms: O_18  and  C_15 
ROOT
ATOM      1  C   UNL d   1      52.496  34.358  53.411  0.00  0.00     0.265 C 
ATOM      2  N   UNL d   1      53.160  33.363  53.775  0.00  0.00    -0.274 N 
ATOM      3  O   UNL d   1      52.823  35.045  53.661  0.00  0.00    -0.267 OA
ENDROOT
BRANCH   2   4
ATOM      4  C   UNL d   1      52.876  32.665  53.552  0.00  0.00     0.079 A 
ATOM      5  C   UNL d   1      53.115  32.244  52.932  0.00  0.00     0.116 A 
ATOM      6  S   UNL d   1      52.691  31.588  52.909  0.00  0.00     0.213 S 
ATOM      7  C   UNL d   1      52.192  31.604  53.515  0.00  0.00     0.100 A 
ATOM      8  O   UNL d   1      52.267  30.930  52.886  0.00  0.00    -0.217 OA
ATOM      9  O   UNL d   1      53.171  31.539  52.299  0.00  0.00    -0.217 OA
ATOM     10  C   UNL d   1      52.307  32.266  53.909  0.00  0.00     0.030 A 
ENDBRANCH   2   4
BRANCH   2  11
ATOM     11  C   UNL d   1      53.848  33.437  54.219  0.00  0.00     0.067 A 
ATOM     12  C   UNL d   1      53.802  33.423  55.035  0.00  0.00     0.018 A 
ATOM     13  C   UNL d   1      54.502  33.497  55.490  0.00  0.00     0.002 A 
ATOM     14  C   UNL d   1      55.231  33.584  55.117  0.00  0.00     0.000 A 
ATOM     15  C   UNL d   1      55.275  33.598  54.293  0.00  0.00     0.002 A 
ATOM     16  C   UNL d   1      54.592  33.525  53.838  0.00  0.00     0.018 A 
ENDBRANCH   2  11
BRANCH   1  17
ATOM     17  C   UNL d   1      51.803  34.309  52.965  0.00  0.00     0.057 A 
ATOM     18  C   UNL d   1      51.831  34.331  52.129  0.00  0.00     0.007 A 
ATOM     19  C   UNL d   1      51.133  34.281  51.694  0.00  0.00     0.024 A 
ATOM     20  C   UNL d   1      50.402  34.209  52.077  0.00  0.00     0.094 A 
ATOM     21  C   UNL d   1      50.366  34.186  52.901  0.00  0.00     0.024 A 
ATOM     22  C   UNL d   1      51.067  34.236  53.358  0.00  0.00     0.007 A 
BRANCH  20  23
ATOM     23  O   UNL d   1      49.701  34.158  51.628  0.00  0.00    -0.328 OA
ATOM     24  C   UNL d   1      49.140  34.779  51.647  0.00  0.00     0.181 C 
ENDBRANCH  20  23
ENDBRANCH   1  17
TORSDOF 4
ENDMDL
MODEL 2
REMARK VINA RESULT:      -8.1      1.779      4.151
REMARK  4 active torsions:
REMARK  status: ('A' for Active; 'I' for Inactive)
REMARK    1  A    between atoms: N_4  and  C_2 
REMARK       I    between atoms: C_3  and  N_4 
REMARK    2  A    between atoms: C_10  and  C_3 
REMARK    3  A    between atoms: C_12  and  N_4 
REMARK    4  A    between atoms: O_18  and  C_15 
ROOT
ATOM      1  C   UNL d   1      52.342  31.569  53.086  0.00  0.00     0.265 C 
ATOM      2  N   UNL d   1      52.707  32.742  53.320  0.00  0.00    -0.274 N 
ATOM      3  O   UNL d   1      51.681  31.545  52.636  0.00  0.00    -0.267 OA
ENDROOT
BRANCH   2   4
ATOM      4  C   UNL d   1      53.355  32.815  53.760  0.00  0.00     0.079 A 
ATOM      5  C   UNL d   1      53.375  32.939  54.536  0.00  0.00     0.116 A 
ATOM      6  S   UNL d   1      54.126  32.978  54.754  0.00  0.00     0.213 S 
ATOM      7  C   UNL d   1      54.565  32.877  54.111  0.00  0.00     0.100 A 
ATOM      8  O   UNL d   1      54.877  33.016  54.972  0.00  0.00    -0.217 OA
ATOM      9  O   UNL d   1      53.721  33.081  55.410  0.00  0.00    -0.217 OA
ATOM     10  C   UNL d   1      54.091  32.778  53.503  0.00  0.00     0.030 A 
ENDBRANCH   2   4
BRANCH   2  11
ATOM     11  C   UNL d   1      52.295  33.393  53.032  0.00  0.00     0.067 A 
ATOM     12  C   UNL d   1      52.557  33.764  52.352  0.00  0.00     0.018 A 
ATOM     13  C   UNL d   1      52.140  34.428  52.056  0.00  0.00     0.002 A 
ATOM     14  C   UNL d   1      51.470  34.704  52.449  0.00  0.00     0.000 A 
ATOM     15  C   UNL d   1      51.208  34.328  53.135  0.00  0.00     0.002 A 
ATOM     16  C   UNL d   1      51.613  33.675  53.433  0.00  0.00     0.018 A 
ENDBRANCH   2  11
BRANCH   1  17
ATOM     17  C   UNL d   1      52.739  30.901  53.364  0.00  0.00     0.057 A 
ATOM     18  C   UNL d   1      53.386  30.583  52.941  0.00  0.00     0.007 A 
ATOM     19  C   UNL d   1      53.775  29.916  53.228  0.00  0.00     0.024 A 
ATOM     20  C   UNL d   1      53.531  29.556  53.933  0.00  0.00     0.094 A 
ATOM     21  C   UNL d   1      52.894  29.864  54.357  0.00  0.00     0.024 A 
ATOM     22  C   UNL d   1      52.488  30.542  54.077  0.00  0.00     0.007 A 
BRANCH  20  23
ATOM     23  O   UNL d   1      53.931  28.881  54.216  0.00  0.00    -0.328 OA
ATOM     24  C   UNL d   1      53.640  28.461  54.878  0.00  0.00     0.181 C 
ENDBRANCH  20  23
ENDBRANCH   1  17
TORSDOF 4
ENDMDL
MODEL 3
REMARK VINA RESULT:      -7.6      1.436      2.457
REMARK  4 active torsions:
REMARK  status: ('A' for Active; 'I' for Inactive)
REMARK    1  A    between atoms: N_4  and  C_2 
REMARK       I    between atoms: C_3  and  N_4 
REMARK    2  A    between atoms: C_10  and  C_3 
REMARK    3  A    between atoms: C_12  and  N_4 
REMARK    4  A    between atoms: O_18  and  C_15 
ROOT
ATOM      1  C   UNL d   1      51.815  33.175  53.098  0.00  0.00     0.265 C 
ATOM      2  N   UNL d   1      52.879  33.552  53.636  0.00  0.00    -0.274 N 
ATOM      3  O   UNL d   1      51.834  32.398  52.908  0.00  0.00    -0.267 OA
ENDROOT
BRANCH   2   4
ATOM      4  C   UNL d   1      52.907  34.311  53.841  0.00  0.00     0.079 A 
ATOM      5  C   UNL d   1      52.836  34.596  54.570  0.00  0.00     0.116 A 
ATOM      6  S   UNL d   1      52.896  35.375  54.531  0.00  0.00     0.213 S 
ATOM      7  C   UNL d   1      53.004  35.567  53.778  0.00  0.00     0.100 A 
ATOM      8  O   UNL d   1      52.956  36.154  54.492  0.00  0.00    -0.217 OA
ATOM      9  O   UNL d   1      52.790  35.219  55.285  0.00  0.00    -0.217 OA
ATOM     10  C   UNL d   1      53.011  34.914  53.355  0.00  0.00     0.030 A 
ENDBRANCH   2   4
BRANCH   2  11
ATOM     11  C   UNL d   1      53.509  33.038  53.765  0.00  0.00     0.067 A 
ATOM     12  C   UNL d   1      54.117  33.005  53.221  0.00  0.00     0.018 A 
ATOM     13  C   UNL d   1      54.760  32.483  53.351  0.00  0.00     0.002 A 
ATOM     14  C   UNL d   1      54.777  32.006  54.022  0.00  0.00     0.000 A 
ATOM     15  C   UNL d   1      54.161  32.041  54.570  0.00  0.00     0.002 A 
ATOM     16  C   UNL d   1      53.525  32.552  54.451  0.00  0.00     0.018 A 
ENDBRANCH   2  11
BRANCH   1  17
ATOM     17  C   UNL d   1      51.171  33.672  52.958  0.00  0.00     0.057 A 
ATOM     18  C   UNL d   1      51.109  34.098  52.241  0.00  0.00     0.007 A 
ATOM     19  C   UNL d   1      50.462  34.591  52.112  0.00  0.00     0.024 A 
ATOM     20  C   UNL d   1      49.871  34.671  52.686  0.00  0.00     0.094 A 
ATOM     21  C   UNL d   1      49.925  34.255  53.397  0.00  0.00     0.024 A 
ATOM     22  C   UNL d   1      50.577  33.748  53.543  0.00  0.00     0.007 A 
BRANCH  20  23
ATOM     23  O   UNL d   1      49.220  35.173  52.547  0.00  0.00    -0.328 OA
ATOM     24  C   UNL d   1      48.825  35.543  53.185  0.00  0.00     0.181 C 
ENDBRANCH  20  23
ENDBRANCH   1  17
TORSDOF 4
ENDMDL
MODEL 4
REMARK VINA RESULT:      -7.0      1.763      2.829
REMARK  4 active torsions:
REMARK  status: ('A' for Active; 'I' for Inactive)
REMARK    1  A    between atoms: N_4  and  C_2 
REMARK       I    between atoms: C_3  and  N_4 
REMARK    2  A    between atoms: C_10  and  C_3 
REMARK    3  A    between atoms: C_12  and  N_4 
REMARK    4  A    between atoms: O_18  and  C_15 
ROOT
ATOM      1  C   UNL d   1      52.102  31.844  53.163  0.00  0.00     0.265 C 
ATOM      2  N   UNL d   1      53.192  31.520  53.683  0.00  0.00    -0.274 N 
ATOM      3  O   UNL d   1      51.692  31.208  52.903  0.00  0.00    -0.267 OA
ENDROOT
BRANCH   2   4
ATOM      4  C   UNL d   1      53.630  32.114  53.954  0.00  0.00     0.079 A 
ATOM      5  C   UNL d   1      53.666  32.361  54.699  0.00  0.00     0.116 A 
ATOM      6  S   UNL d   1      54.166  32.962  54.730  0.00  0.00     0.213 S 
ATOM      7  C   UNL d   1      54.435  33.085  54.003  0.00  0.00     0.100 A 
ATOM      8  O   UNL d   1      54.665  33.564  54.761  0.00  0.00    -0.217 OA
ATOM      9  O   UNL d   1      53.919  32.868  55.461  0.00  0.00    -0.217 OA
ATOM     10  C   UNL d   1      54.106  32.564  53.528  0.00  0.00     0.030 A 
ENDBRANCH   2   4
BRANCH   2  11
ATOM     11  C   UNL d   1      53.433  30.735  53.738  0.00  0.00     0.067 A 
ATOM     12  C   UNL d   1      53.951  30.436  53.182  0.00  0.00     0.018 A 
ATOM     13  C   UNL d   1      54.199  29.637  53.235  0.00  0.00     0.002 A 
ATOM     14  C   UNL d   1      53.921  29.158  53.845  0.00  0.00     0.000 A 
ATOM     15  C   UNL d   1      53.398  29.462  54.406  0.00  0.00     0.002 A 
ATOM     16  C   UNL d   1      53.149  30.247  54.360  0.00  0.00     0.018 A 
ENDBRANCH   2  11
BRANCH   1  17
ATOM     17  C   UNL d   1      51.839  32.624  53.097  0.00  0.00     0.057 A 
ATOM     18  C   UNL d   1      52.104  33.111  52.470  0.00  0.00     0.007 A 
ATOM     19  C   UNL d   1      51.835  33.888  52.414  0.00  0.00     0.024 A 
ATOM     20  C   UNL d   1      51.305  34.193  52.973  0.00  0.00     0.094 A 
ATOM     21  C   UNL d   1      51.039  33.719  53.594  0.00  0.00     0.024 A 
ATOM     22  C   UNL d   1      51.303  32.926  53.665  0.00  0.00     0.007 A 
BRANCH  20  23
ATOM     23  O   UNL d   1      51.039  34.980  52.908  0.00  0.00    -0.328 OA
ATOM     24  C   UNL d   1      50.221  35.156  52.932  0.00  0.00     0.181 C 
ENDBRANCH  20  23
ENDBRANCH   1  17
TORSDOF 4
ENDMDL
MODEL 5
REMARK VINA RESULT:      -6.7      0.986      3.785
REMARK  4 active torsions:
REMARK  status: ('A' for Active; 'I' for Inactive)
REMARK    1  A    between atoms: N_4  and  C_2 
REMARK       I    between atoms: C_3  and  N_4 
REMARK    2  A    between atoms: C_10  and  C_3 
REMARK    3  A    between atoms: C_12  and  N_4 
REMARK    4  A    between atoms: O_18  and  C_15 
ROOT
ATOM      1  C   UNL d   1      52.510  34.512  53.696  0.00  0.00     0.265 C 
ATOM      2  N   UNL d   1      51.782  33.709  53.073  0.00  0.00    -0.274 N 
ATOM      3  O   UNL d   1      52.263  35.268  53.614  0.00  0.00    -0.267 OA
ENDROOT
BRANCH   2   4
ATOM      4  C   UNL d   1      51.987  32.952  53.125  0.00  0.00     0.079 A 
ATOM      5  C   UNL d   1      52.445  32.560  52.620  0.00  0.00     0.116 A 
ATOM      6  S   UNL d   1      52.510  31.824  52.874  0.00  0.00     0.213 S 
ATOM      7  C   UNL d   1      52.092  31.763  53.536  0.00  0.00     0.100 A 
ATOM      8  O   UNL d   1      52.575  31.086  53.129  0.00  0.00    -0.217 OA
ATOM      9  O   UNL d   1      52.933  31.849  52.222  0.00  0.00    -0.217 OA
ATOM     10  C   UNL d   1      51.772  32.456  53.689  0.00  0.00     0.030 A 
ENDBRANCH   2   4
BRANCH   2  11
ATOM     11  C   UNL d   1      51.130  33.958  52.637  0.00  0.00     0.067 A 
ATOM     12  C   UNL d   1      50.414  34.066  53.015  0.00  0.00     0.018 A 
ATOM     13  C   UNL d   1      49.748  34.321  52.573  0.00  0.00     0.002 A 
ATOM     14  C   UNL d   1      49.817  34.461  51.764  0.00  0.00     0.000 A 
ATOM     15  C   UNL d   1      50.542  34.351  51.385  0.00  0.00     0.002 A 
ATOM     16  C   UNL d   1      51.201  34.101  51.812  0.00  0.00     0.018 A 
ENDBRANCH   2  11
BRANCH   1  17
ATOM     17  C   UNL d   1      53.168  34.284  54.139  0.00  0.00     0.057 A 
ATOM     18  C   UNL d   1      53.088  34.074  54.945  0.00  0.00     0.007 A 
ATOM     19  C   UNL d   1      53.752  33.849  55.378  0.00  0.00     0.024 A 
ATOM     20  C   UNL d   1      54.500  33.828  55.023  0.00  0.00     0.094 A 
ATOM     21  C   UNL d   1      54.588  34.033  54.229  0.00  0.00     0.024 A 
ATOM     22  C   UNL d   1      53.922  34.265  53.775  0.00  0.00     0.007 A 
BRANCH  20  23
ATOM     23  O   UNL d   1      55.166  33.598  55.470  0.00  0.00    -0.328 OA
ATOM     24  C   UNL d   1      55.939  33.740  55.182  0.00  0.00     0.181 C 
ENDBRANCH  20  23
ENDBRANCH   1  17
TORSDOF 4
ENDMDL
MODEL 6
REMARK VINA RESULT:      -6.6      1.651      3.367
REMARK  4 active torsions:
REMARK  status: ('A' for Active; 'I' for Inactive)
REMARK    1  A    between atoms: N_4  and  C_2 
REMARK       I    between atoms: C_3  and  N_4 
REMARK    2  A    between atoms: C_10  and  C_3 
REMARK    3  A    between atoms: C_12  and  N_4 
REMARK    4  A    between atoms: O_18  and  C_15 
ROOT
ATOM      1  C   UNL d   1      53.802  32.960  54.257  0.00  0.00     0.265 C 
ATOM      2  N   UNL d   1      52.999  33.869  53.951  0.00  0.00    -0.274 N 
ATOM      3  O   UNL d   1      54.399  33.229  54.715  0.00  0.00    -0.267 OA
ENDROOT
BRANCH   2   4
ATOM      4  C   UNL d   1      52.394  33.651  53.499  0.00  0.00     0.079 A 
ATOM      5  C   UNL d   1      51.669  33.475  53.749  0.00  0.00     0.116 A 
ATOM      6  S   UNL d   1      51.238  33.287  53.125  0.00  0.00     0.213 S 
ATOM      7  C   UNL d   1      51.698  33.348  52.491  0.00  0.00     0.100 A 
ATOM      8  O   UNL d   1      50.806  33.099  52.499  0.00  0.00    -0.217 OA
ATOM      9  O   UNL d   1      50.756  33.218  53.730  0.00  0.00    -0.217 OA
ATOM     10  C   UNL d   1      52.406  33.571  52.722  0.00  0.00     0.030 A 
ENDBRANCH   2   4
BRANCH   2  11
ATOM     11  C   UNL d   1      53.101  34.644  54.206  0.00  0.00     0.067 A 
ATOM     12  C   UNL d   1      53.426  35.194  53.697  0.00  0.00     0.018 A 
ATOM     13  C   UNL d   1      53.530  35.985  53.955  0.00  0.00     0.002 A 
ATOM     14  C   UNL d   1      53.306  36.206  54.716  0.00  0.00     0.000 A 
ATOM     15  C   UNL d   1      52.977  35.648  55.228  0.00  0.00     0.002 A 
ATOM     16  C   UNL d   1      52.871  34.868  54.983  0.00  0.00     0.018 A 
ENDBRANCH   2  11
BRANCH   1  17
ATOM     17  C   UNL d   1      53.720  32.176  54.012  0.00  0.00     0.057 A 
ATOM     18  C   UNL d   1      54.001  31.932  53.263  0.00  0.00     0.007 A 
ATOM     19  C   UNL d   1      53.915  31.146  53.029  0.00  0.00     0.024 A 
ATOM     20  C   UNL d   1      53.552  30.594  53.529  0.00  0.00     0.094 A 
ATOM     21  C   UNL d   1      53.273  30.827  54.270  0.00  0.00     0.024 A 
ATOM     22  C   UNL d   1      53.353  31.623  54.522  0.00  0.00     0.007 A 
BRANCH  20  23
ATOM     23  O   UNL d   1      53.469  29.801  53.283  0.00  0.00    -0.328 OA
ATOM     24  C   UNL d   1      52.731  29.413  53.346  0.00  0.00     0.181 C 
ENDBRANCH  20  23
ENDBRANCH   1  17
TORSDOF 4
ENDMDL
MODEL 7
REMARK VINA RESULT:      -6.4      1.547      3.344
REMARK  4 active torsions:
REMARK  status: ('A' for Active; 'I' for Inactive)
REMARK    1  A    between atoms: N_4  and  C_2 
REMARK       I    between atoms: C_3  and  N_4 
REMARK    2  A    between atoms: C_10  and  C_3 
REMARK    3  A    between atoms: C_12  and  N_4 
REMARK    4  A    between atoms: O_18  and  C_15 
ROOT
ATOM      1  C   UNL d   1      53.609  32.761  54.152  0.00  0.00     0.265 C 
ATOM      2  N   UNL d   1      52.774  32.177  53.427  0.00  0.00    -0.274 N 
ATOM      3  O   UNL d   1      54.172  32.261  54.424  0.00  0.00    -0.267 OA
ENDROOT
BRANCH   2   4
ATOM      4  C   UNL d   1      52.201  32.629  53.136  0.00  0.00     0.079 A 
ATOM      5  C   UNL d   1      51.482  32.720  53.442  0.00  0.00     0.116 A 
ATOM      6  S   UNL d   1      51.086  33.214  52.983  0.00  0.00     0.213 S 
ATOM      7  C   UNL d   1      51.562  33.427  52.395  0.00  0.00     0.100 A 
ATOM      8  O   UNL d   1      50.690  33.709  52.524  0.00  0.00    -0.217 OA
ATOM      9  O   UNL d   1      50.590  33.025  53.551  0.00  0.00    -0.217 OA
ATOM     10  C   UNL d   1      52.245  33.067  52.490  0.00  0.00     0.030 A 
ENDBRANCH   2   4
BRANCH   2  11
ATOM     11  C   UNL d   1      52.824  31.371  53.266  0.00  0.00     0.067 A 
ATOM     12  C   UNL d   1      53.188  31.122  52.579  0.00  0.00     0.018 A 
ATOM     13  C   UNL d   1      53.240  30.301  52.413  0.00  0.00     0.002 A 
ATOM     14  C   UNL d   1      52.925  29.752  52.939  0.00  0.00     0.000 A 
ATOM     15  C   UNL d   1      52.557  30.007  53.633  0.00  0.00     0.002 A 
ATOM     16  C   UNL d   1      52.502  30.811  53.804  0.00  0.00     0.018 A 
ENDBRANCH   2  11
BRANCH   1  17
ATOM     17  C   UNL d   1      53.580  33.567  54.327  0.00  0.00     0.057 A 
ATOM     18  C   UNL d   1      53.889  34.131  53.791  0.00  0.00     0.007 A 
ATOM     19  C   UNL d   1      53.854  34.933  53.976  0.00  0.00     0.024 A 
ATOM     20  C   UNL d   1      53.515  35.188  54.687  0.00  0.00     0.094 A 
ATOM     21  C   UNL d   1      53.208  34.638  55.221  0.00  0.00     0.024 A 
ATOM     22  C   UNL d   1      53.236  33.818  55.047  0.00  0.00     0.007 A 
BRANCH  20  23
ATOM     23  O   UNL d   1      53.485  36.002  54.866  0.00  0.00    -0.328 OA
ATOM     24  C   UNL d   1      52.770  36.429  54.780  0.00  0.00     0.181 C 
ENDBRANCH  20  23
ENDBRANCH   1  17
TORSDOF 4
ENDMDL
