MODEL 1
REMARK VINA RESULT:      -7.4      0.000      0.000
REMARK  3 active torsions:
REMARK  status: ('A' for Active; 'I' for Inactive)
REMARK    1  A    between atoms: C_6  and  C_1 
REMARK    2  A    between atoms: C_7  and  C_5 
REMARK    3  A    between atoms: O_15  and  C_12 
ROOT
ATOM      1  C   UNL d   1     -49.512  15.097  22.843  0.00  0.00     0.169 A 
ATOM      2  C   UNL d   1     -49.469  14.429  23.210  0.00  0.00     0.048 A 
ATOM      3  N   UNL d   1     -48.251  14.988  22.496  0.00  0.00    -0.148 NA
ATOM      4  N   UNL d   1     -48.905  15.371  22.490  0.00  0.00    -0.142 NA
ATOM      5  C   UNL d   1     -48.208  14.320  22.863  0.00  0.00     0.105 A 
ENDROOT
BRANCH   5   6
ATOM      6  C   UNL d   1     -47.618  13.766  22.988  0.00  0.00     0.020 A 
ATOM      7  C   UNL d   1     -46.822  13.995  22.967  0.00  0.00     0.004 A 
ATOM      8  C   UNL d   1     -46.227  13.437  23.093  0.00  0.00     0.024 A 
ATOM      9  C   UNL d   1     -46.424  12.647  23.241  0.00  0.00     0.094 A 
ATOM     10  C   UNL d   1     -47.219  12.418  23.262  0.00  0.00     0.024 A 
ATOM     11  C   UNL d   1     -47.815  12.980  23.135  0.00  0.00     0.004 A 
BRANCH   9  12
ATOM     12  O   UNL d   1     -45.834  12.092  23.366  0.00  0.00    -0.328 OA
ATOM     13  C   UNL d   1     -46.018  11.362  23.697  0.00  0.00     0.181 C 
ENDBRANCH   9  12
ENDBRANCH   5   6
BRANCH   1  14
ATOM     14  C   UNL d   1     -50.166  15.480  22.837  0.00  0.00     0.231 C 
ATOM     15  O   UNL d   1     -50.624  15.435  22.229  0.00  0.00    -0.643 OA
ATOM     16  O   UNL d   1     -50.368  15.903  23.427  0.00  0.00    -0.643 OA
ENDBRANCH   1  14
TORSDOF 3
ENDMDL
MODEL 2
REMARK VINA RESULT:      -7.4      0.971      4.028
REMARK  3 active torsions:
REMARK  status: ('A' for Active; 'I' for Inactive)
REMARK    1  A    between atoms: C_6  and  C_1 
REMARK    2  A    between atoms: C_7  and  C_5 
REMARK    3  A    between atoms: O_15  and  C_12 
ROOT
ATOM      1  C   UNL d   1     -46.262  13.158  22.897  0.00  0.00     0.169 A 
ATOM      2  C   UNL d   1     -46.973  12.882  22.878  0.00  0.00     0.048 A 
ATOM      3  N   UNL d   1     -46.738  14.381  22.881  0.00  0.00    -0.148 NA
ATOM      4  N   UNL d   1     -46.150  13.904  22.898  0.00  0.00    -0.142 NA
ATOM      5  C   UNL d   1     -47.449  14.104  22.862  0.00  0.00     0.105 A 
ENDROOT
BRANCH   5   6
ATOM      6  C   UNL d   1     -48.198  14.435  22.841  0.00  0.00     0.020 A 
ATOM      7  C   UNL d   1     -48.311  15.187  22.513  0.00  0.00     0.004 A 
ATOM      8  C   UNL d   1     -49.065  15.521  22.491  0.00  0.00     0.024 A 
ATOM      9  C   UNL d   1     -49.712  15.104  22.797  0.00  0.00     0.094 A 
ATOM     10  C   UNL d   1     -49.599  14.352  23.124  0.00  0.00     0.024 A 
ATOM     11  C   UNL d   1     -48.841  14.020  23.145  0.00  0.00     0.004 A 
BRANCH   9  12
ATOM     12  O   UNL d   1     -50.461  15.435  22.776  0.00  0.00    -0.328 OA
ATOM     13  C   UNL d   1     -50.814  15.704  23.469  0.00  0.00     0.181 C 
ENDBRANCH   9  12
ENDBRANCH   5   6
BRANCH   1  14
ATOM     14  C   UNL d   1     -45.674  12.680  22.914  0.00  0.00     0.231 C 
ATOM     15  O   UNL d   1     -45.080  12.796  22.450  0.00  0.00    -0.643 OA
ATOM     16  O   UNL d   1     -45.672  12.092  23.386  0.00  0.00    -0.643 OA
ENDBRANCH   1  14
TORSDOF 3
ENDMDL
MODEL 3
REMARK VINA RESULT:      -7.3      2.453      3.953
REMARK  3 active torsions:
REMARK  status: ('A' for Active; 'I' for Inactive)
REMARK    1  A    between atoms: C_6  and  C_1 
REMARK    2  A    between atoms: C_7  and  C_5 
REMARK    3  A    between atoms: O_15  and  C_12 
ROOT
ATOM      1  C   UNL d   1     -45.811  13.023  22.620  0.00  0.00     0.169 A 
ATOM      2  C   UNL d   1     -46.438  12.984  22.188  0.00  0.00     0.048 A 
ATOM      3  N   UNL d   1     -46.483  12.541  23.639  0.00  0.00    -0.148 NA
ATOM      4  N   UNL d   1     -45.838  12.802  23.341  0.00  0.00    -0.142 NA
ATOM      5  C   UNL d   1     -47.110  12.502  23.206  0.00  0.00     0.105 A 
ENDROOT
BRANCH   5   6
ATOM      6  C   UNL d   1     -47.883  12.259  23.328  0.00  0.00     0.020 A 
ATOM      7  C   UNL d   1     -48.041  11.484  23.575  0.00  0.00     0.004 A 
ATOM      8  C   UNL d   1     -48.819  11.238  23.698  0.00  0.00     0.024 A 
ATOM      9  C   UNL d   1     -49.444  11.766  23.575  0.00  0.00     0.094 A 
ATOM     10  C   UNL d   1     -49.287  12.541  23.329  0.00  0.00     0.024 A 
ATOM     11  C   UNL d   1     -48.505  12.785  23.206  0.00  0.00     0.004 A 
BRANCH   9  12
ATOM     12  O   UNL d   1     -50.218  11.523  23.697  0.00  0.00    -0.328 OA
ATOM     13  C   UNL d   1     -50.829  12.074  23.695  0.00  0.00     0.181 C 
ENDBRANCH   9  12
ENDBRANCH   5   6
BRANCH   1  14
ATOM     14  C   UNL d   1     -45.165  13.285  22.321  0.00  0.00     0.231 C 
ATOM     15  O   UNL d   1     -45.083  14.032  22.195  0.00  0.00    -0.643 OA
ATOM     16  O   UNL d   1     -44.604  12.811  22.148  0.00  0.00    -0.643 OA
ENDBRANCH   1  14
TORSDOF 3
ENDMDL
MODEL 4
REMARK VINA RESULT:      -7.0      2.275      2.625
REMARK  3 active torsions:
REMARK  status: ('A' for Active; 'I' for Inactive)
REMARK    1  A    between atoms: C_6  and  C_1 
REMARK    2  A    between atoms: C_7  and  C_5 
REMARK    3  A    between atoms: O_15  and  C_12 
ROOT
ATOM      1  C   UNL d   1     -49.844  11.990  23.418  0.00  0.00     0.169 A 
ATOM      2  C   UNL d   1     -49.572  12.699  23.346  0.00  0.00     0.048 A 
ATOM      3  N   UNL d   1     -48.637  11.510  23.233  0.00  0.00    -0.148 NA
ATOM      4  N   UNL d   1     -49.375  11.402  23.361  0.00  0.00    -0.142 NA
ATOM      5  C   UNL d   1     -48.365  12.220  23.161  0.00  0.00     0.105 A 
ENDROOT
BRANCH   5   6
ATOM      6  C   UNL d   1     -47.626  12.546  23.026  0.00  0.00     0.020 A 
ATOM      7  C   UNL d   1     -47.557  13.254  22.602  0.00  0.00     0.004 A 
ATOM      8  C   UNL d   1     -46.813  13.584  22.465  0.00  0.00     0.024 A 
ATOM      9  C   UNL d   1     -46.134  13.207  22.750  0.00  0.00     0.094 A 
ATOM     10  C   UNL d   1     -46.203  12.499  23.173  0.00  0.00     0.024 A 
ATOM     11  C   UNL d   1     -46.951  12.170  23.310  0.00  0.00     0.004 A 
BRANCH   9  12
ATOM     12  O   UNL d   1     -45.394  13.533  22.614  0.00  0.00    -0.328 OA
ATOM     13  C   UNL d   1     -44.900  13.211  22.040  0.00  0.00     0.181 C 
ENDBRANCH   9  12
ENDBRANCH   5   6
BRANCH   1  14
ATOM     14  C   UNL d   1     -50.583  11.882  23.546  0.00  0.00     0.231 C 
ATOM     15  O   UNL d   1     -50.841  11.182  23.698  0.00  0.00    -0.643 OA
ATOM     16  O   UNL d   1     -51.064  12.462  23.523  0.00  0.00    -0.643 OA
ENDBRANCH   1  14
TORSDOF 3
ENDMDL
MODEL 5
REMARK VINA RESULT:      -6.2      8.305      8.972
REMARK  3 active torsions:
REMARK  status: ('A' for Active; 'I' for Inactive)
REMARK    1  A    between atoms: C_6  and  C_1 
REMARK    2  A    between atoms: C_7  and  C_5 
REMARK    3  A    between atoms: O_15  and  C_12 
ROOT
ATOM      1  C   UNL d   1     -40.833  15.117  17.533  0.00  0.00     0.169 A 
ATOM      2  C   UNL d   1     -40.550  15.574  18.075  0.00  0.00     0.048 A 
ATOM      3  N   UNL d   1     -40.751  14.095  18.352  0.00  0.00    -0.148 NA
ATOM      4  N   UNL d   1     -40.931  14.383  17.675  0.00  0.00    -0.142 NA
ATOM      5  C   UNL d   1     -40.468  14.552  18.894  0.00  0.00     0.105 A 
ENDROOT
BRANCH   5   6
ATOM      6  C   UNL d   1     -40.218  14.446  19.667  0.00  0.00     0.020 A 
ATOM      7  C   UNL d   1     -40.770  14.436  20.284  0.00  0.00     0.004 A 
ATOM      8  C   UNL d   1     -40.519  14.330  21.063  0.00  0.00     0.024 A 
ATOM      9  C   UNL d   1     -39.714  14.234  21.229  0.00  0.00     0.094 A 
ATOM     10  C   UNL d   1     -39.162  14.243  20.612  0.00  0.00     0.024 A 
ATOM     11  C   UNL d   1     -39.417  14.350  19.831  0.00  0.00     0.004 A 
BRANCH   9  12
ATOM     12  O   UNL d   1     -39.463  14.128  22.002  0.00  0.00    -0.328 OA
ATOM     13  C   UNL d   1     -38.950  13.513  22.190  0.00  0.00     0.181 C 
ENDBRANCH   9  12
ENDBRANCH   5   6
BRANCH   1  14
ATOM     14  C   UNL d   1     -41.012  15.406  16.856  0.00  0.00     0.231 C 
ATOM     15  O   UNL d   1     -40.507  15.840  16.485  0.00  0.00    -0.643 OA
ATOM     16  O   UNL d   1     -41.686  15.267  16.547  0.00  0.00    -0.643 OA
ENDBRANCH   1  14
TORSDOF 3
ENDMDL
MODEL 6
REMARK VINA RESULT:      -5.2      8.783     10.108
REMARK  3 active torsions:
REMARK  status: ('A' for Active; 'I' for Inactive)
REMARK    1  A    between atoms: C_6  and  C_1 
REMARK    2  A    between atoms: C_7  and  C_5 
REMARK    3  A    between atoms: O_15  and  C_12 
ROOT
ATOM      1  C   UNL d   1     -40.537  14.455  19.606  0.00  0.00     0.169 A 
ATOM      2  C   UNL d   1     -39.876  14.783  19.414  0.00  0.00     0.048 A 
ATOM      3  N   UNL d   1     -40.596  13.881  18.428  0.00  0.00    -0.148 NA
ATOM      4  N   UNL d   1     -40.891  14.008  19.114  0.00  0.00    -0.142 NA
ATOM      5  C   UNL d   1     -39.934  14.209  18.235  0.00  0.00     0.105 A 
ENDROOT
BRANCH   5   6
ATOM      6  C   UNL d   1     -39.458  14.204  17.568  0.00  0.00     0.020 A 
ATOM      7  C   UNL d   1     -38.943  13.571  17.432  0.00  0.00     0.004 A 
ATOM      8  C   UNL d   1     -38.463  13.564  16.760  0.00  0.00     0.024 A 
ATOM      9  C   UNL d   1     -38.496  14.192  16.222  0.00  0.00     0.094 A 
ATOM     10  C   UNL d   1     -39.011  14.826  16.358  0.00  0.00     0.024 A 
ATOM     11  C   UNL d   1     -39.491  14.829  17.034  0.00  0.00     0.004 A 
BRANCH   9  12
ATOM     12  O   UNL d   1     -38.020  14.187  15.555  0.00  0.00    -0.328 OA
ATOM     13  C   UNL d   1     -37.958  13.507  15.096  0.00  0.00     0.181 C 
ENDBRANCH   9  12
ENDBRANCH   5   6
BRANCH   1  14
ATOM     14  C   UNL d   1     -40.833  14.583  20.293  0.00  0.00     0.231 C 
ATOM     15  O   UNL d   1     -41.198  14.021  20.656  0.00  0.00    -0.643 OA
ATOM     16  O   UNL d   1     -40.768  15.260  20.618  0.00  0.00    -0.643 OA
ENDBRANCH   1  14
TORSDOF 3
ENDMDL
MODEL 7
REMARK VINA RESULT:      -5.1      8.906      9.648
REMARK  3 active torsions:
REMARK  status: ('A' for Active; 'I' for Inactive)
REMARK    1  A    between atoms: C_6  and  C_1 
REMARK    2  A    between atoms: C_7  and  C_5 
REMARK    3  A    between atoms: O_15  and  C_12 
ROOT
ATOM      1  C   UNL d   1     -39.211  14.146  21.172  0.00  0.00     0.169 A 
ATOM      2  C   UNL d   1     -39.900  14.423  21.000  0.00  0.00     0.048 A 
ATOM      3  N   UNL d   1     -38.908  14.104  19.896  0.00  0.00    -0.148 NA
ATOM      4  N   UNL d   1     -38.721  13.989  20.621  0.00  0.00    -0.142 NA
ATOM      5  C   UNL d   1     -39.598  14.381  19.724  0.00  0.00     0.105 A 
ENDROOT
BRANCH   5   6
ATOM      6  C   UNL d   1     -39.988  14.573  19.029  0.00  0.00     0.020 A 
ATOM      7  C   UNL d   1     -40.474  15.242  18.997  0.00  0.00     0.004 A 
ATOM      8  C   UNL d   1     -40.867  15.436  18.298  0.00  0.00     0.024 A 
ATOM      9  C   UNL d   1     -40.777  14.961  17.626  0.00  0.00     0.094 A 
ATOM     10  C   UNL d   1     -40.291  14.291  17.658  0.00  0.00     0.024 A 
ATOM     11  C   UNL d   1     -39.898  14.099  18.362  0.00  0.00     0.004 A 
BRANCH   9  12
ATOM     12  O   UNL d   1     -41.166  15.152  16.931  0.00  0.00    -0.328 OA
ATOM     13  C   UNL d   1     -41.138  15.922  16.641  0.00  0.00     0.181 C 
ENDBRANCH   9  12
ENDBRANCH   5   6
BRANCH   1  14
ATOM     14  C   UNL d   1     -39.023  14.031  21.898  0.00  0.00     0.231 C 
ATOM     15  O   UNL d   1     -38.883  13.324  22.144  0.00  0.00    -0.643 OA
ATOM     16  O   UNL d   1     -38.975  14.611  22.378  0.00  0.00    -0.643 OA
ENDBRANCH   1  14
TORSDOF 3
ENDMDL
