MODEL 1
REMARK VINA RESULT:      30.4      0.000      0.000
REMARK  4 active torsions:
REMARK  status: ('A' for Active; 'I' for Inactive)
REMARK    1  A    between atoms: C_6  and  C_1 
REMARK    2  A    between atoms: C_7  and  C_4 
REMARK    3  A    between atoms: O_10  and  C_6 
REMARK    4  A    between atoms: O_12  and  C_11 
ROOT
ATOM      1  C   UNL d   1     -50.509  26.238  34.068  0.00  0.00     0.173 A 
ATOM      2  N   UNL d   1     -49.991  25.821  33.575  0.00  0.00    -0.121 NA
ATOM      3  C   UNL d   1     -51.215  25.811  34.114  0.00  0.00     0.054 A 
ATOM      4  C   UNL d   1     -51.134  25.129  33.650  0.00  0.00     0.127 A 
ATOM      5  O   UNL d   1     -50.377  25.140  33.318  0.00  0.00    -0.211 OA
ENDROOT
BRANCH   4   6
ATOM      6  C   UNL d   1     -51.711  24.548  33.542  0.00  0.00     0.027 A 
ATOM      7  C   UNL d   1     -52.506  24.765  33.564  0.00  0.00     0.026 A 
ATOM      8  C   UNL d   1     -53.083  24.192  33.458  0.00  0.00     0.094 A 
ATOM      9  C   UNL d   1     -52.870  23.401  33.328  0.00  0.00     0.024 A 
ATOM     10  C   UNL d   1     -52.075  23.193  33.307  0.00  0.00     0.002 A 
ATOM     11  C   UNL d   1     -51.495  23.764  33.413  0.00  0.00     0.002 A 
BRANCH   8  12
ATOM     12  O   UNL d   1     -53.886  24.404  33.479  0.00  0.00    -0.328 OA
ATOM     13  C   UNL d   1     -54.470  23.821  33.408  0.00  0.00     0.181 C 
ENDBRANCH   8  12
ENDBRANCH   4   6
BRANCH   1  14
ATOM     14  C   UNL d   1     -50.358  26.956  34.452  0.00  0.00     0.316 C 
ATOM     15  O   UNL d   1     -50.652  27.094  35.207  0.00  0.00    -0.257 OA
BRANCH  14  16
ATOM     16  O   UNL d   1     -49.906  27.535  34.066  0.00  0.00    -0.294 OA
ATOM     17  C   UNL d   1     -49.336  27.962  34.489  0.00  0.00     0.185 C 
ENDBRANCH  14  16
ENDBRANCH   1  14
TORSDOF 4
ENDMDL
MODEL 2
REMARK VINA RESULT:      31.5      1.609      3.867
REMARK  4 active torsions:
REMARK  status: ('A' for Active; 'I' for Inactive)
REMARK    1  A    between atoms: C_6  and  C_1 
REMARK    2  A    between atoms: C_7  and  C_4 
REMARK    3  A    between atoms: O_10  and  C_6 
REMARK    4  A    between atoms: O_12  and  C_11 
ROOT
ATOM      1  C   UNL d   1     -51.445  24.518  33.431  0.00  0.00     0.173 A 
ATOM      2  N   UNL d   1     -52.153  24.937  33.336  0.00  0.00    -0.121 NA
ATOM      3  C   UNL d   1     -50.828  25.066  33.459  0.00  0.00     0.054 A 
ATOM      4  C   UNL d   1     -51.153  25.825  33.382  0.00  0.00     0.127 A 
ATOM      5  O   UNL d   1     -51.972  25.740  33.306  0.00  0.00    -0.211 OA
ENDROOT
BRANCH   4   6
ATOM      6  C   UNL d   1     -50.729  26.533  33.382  0.00  0.00     0.027 A 
ATOM      7  C   UNL d   1     -51.142  27.247  33.369  0.00  0.00     0.026 A 
ATOM      8  C   UNL d   1     -50.727  27.953  33.369  0.00  0.00     0.094 A 
ATOM      9  C   UNL d   1     -49.897  27.952  33.382  0.00  0.00     0.024 A 
ATOM     10  C   UNL d   1     -49.493  27.237  33.395  0.00  0.00     0.002 A 
ATOM     11  C   UNL d   1     -49.905  26.528  33.395  0.00  0.00     0.002 A 
BRANCH   8  12
ATOM     12  O   UNL d   1     -51.137  28.675  33.356  0.00  0.00    -0.328 OA
ATOM     13  C   UNL d   1     -50.719  29.390  33.378  0.00  0.00     0.181 C 
ENDBRANCH   8  12
ENDBRANCH   4   6
BRANCH   1  14
ATOM     14  C   UNL d   1     -51.360  23.696  33.488  0.00  0.00     0.316 C 
ATOM     15  O   UNL d   1     -52.022  23.212  33.547  0.00  0.00    -0.257 OA
BRANCH  14  16
ATOM     16  O   UNL d   1     -50.598  23.367  33.484  0.00  0.00    -0.294 OA
ATOM     17  C   UNL d   1     -50.198  23.247  34.199  0.00  0.00     0.185 C 
ENDBRANCH  14  16
ENDBRANCH   1  14
TORSDOF 4
ENDMDL
