MODEL 1
REMARK VINA RESULT:      -4.4      0.000      0.000
REMARK  3 active torsions:
REMARK  status: ('A' for Active; 'I' for Inactive)
REMARK    1  A    between atoms: C_10  and  N_2 
REMARK       I    between atoms: N_3  and  C_6 
REMARK    2  A    between atoms: C_6  and  C_11 
REMARK    3  A    between atoms: C_11  and  C_10 
ROOT
ATOM      1  N   UNL d   1     -42.349-122.921 -49.867  0.00  0.00    -0.275 N 
ATOM      2  C   UNL d   1     -43.041-122.483 -49.959  0.00  0.00     0.067 A 
ATOM      3  C   UNL d   1     -41.791-123.072 -50.449  0.00  0.00     0.266 C 
ATOM      4  C   UNL d   1     -42.324-123.177 -49.080  0.00  0.00     0.067 A 
ATOM      5  C   UNL d   1     -42.989-122.901 -48.698  0.00  0.00     0.018 A 
ATOM      6  C   UNL d   1     -43.439-122.467 -49.243  0.00  0.00     0.019 A 
ATOM      7  O   UNL d   1     -41.123-123.523 -50.270  0.00  0.00    -0.267 OA
ATOM      8  C   UNL d   1     -43.294-122.115 -50.666  0.00  0.00     0.019 C 
ATOM      9  C   UNL d   1     -41.769-123.632 -48.669  0.00  0.00     0.018 A 
ATOM     10  C   UNL d   1     -43.123-123.064 -47.909  0.00  0.00     0.002 A 
ATOM     11  C   UNL d   1     -41.888-123.805 -47.878  0.00  0.00     0.002 A 
ATOM     12  C   UNL d   1     -42.566-123.524 -47.485  0.00  0.00     0.000 A 
ENDROOT
BRANCH   3  13
ATOM     13  C   UNL d   1     -41.892-122.778 -51.213  0.00  0.00     0.080 C 
BRANCH  13  14
ATOM     14  C   UNL d   1     -41.367-122.980 -51.812  0.00  0.00     0.088 C 
BRANCH  14  15
ATOM     15  N   UNL d   1     -41.363-122.561 -52.521  0.00  0.00    -0.268 N 
ATOM     16  C   UNL d   1     -41.261-121.749 -52.604  0.00  0.00     0.296 A 
ATOM     17  S   UNL d   1     -41.301-121.583 -53.444  0.00  0.00    -0.025 SA
ATOM     18  O   UNL d   1     -41.143-121.211 -51.989  0.00  0.00    -0.259 OA
ATOM     19  C   UNL d   1     -41.421-122.271 -53.821  0.00  0.00     0.050 A 
ATOM     20  C   UNL d   1     -41.502-122.430 -54.631  0.00  0.00     0.008 A 
ATOM     21  C   UNL d   1     -41.462-122.887 -53.273  0.00  0.00     0.073 A 
ATOM     22  C   UNL d   1     -41.625-123.209 -54.890  0.00  0.00     0.001 A 
ATOM     23  C   UNL d   1     -41.665-123.816 -54.334  0.00  0.00     0.002 A 
ATOM     24  C   UNL d   1     -41.584-123.654 -53.526  0.00  0.00     0.018 A 
ENDBRANCH  14  15
ENDBRANCH  13  14
ENDBRANCH   3  13
TORSDOF 3
ENDMDL
