MODEL 1
REMARK VINA RESULT:      33.0      0.000      0.000
REMARK  5 active torsions:
REMARK  status: ('A' for Active; 'I' for Inactive)
REMARK    1  A    between atoms: O_8  and  S_1 
REMARK    2  A    between atoms: C_9  and  S_1 
REMARK    3  A    between atoms: C_7  and  C_2 
REMARK    4  A    between atoms: C_20  and  C_7 
REMARK    5  A    between atoms: C_14  and  O_8 
ROOT
ATOM      1  C   UNL d   1      46.517 -17.525  43.201  0.00  0.00     0.139 A 
ATOM      2  C   UNL d   1      46.379 -16.665  44.206  0.00  0.00     0.064 A 
ATOM      3  C   UNL d   1      46.401 -17.465  44.016  0.00  0.00     0.220 A 
ATOM      4  C   UNL d   1      46.481 -16.228  43.514  0.00  0.00     0.105 A 
ATOM      5  O   UNL d   1      46.567 -16.762  42.890  0.00  0.00    -0.304 OA
ATOM      6  C   UNL d   1      46.482 -15.413  43.547  0.00  0.00     0.050 A 
ATOM      7  C   UNL d   1      46.279 -16.279  44.926  0.00  0.00     0.007 A 
ATOM      8  C   UNL d   1      46.381 -15.027  44.268  0.00  0.00     0.116 A 
ATOM      9  O   UNL d   1      46.322 -18.099  44.537  0.00  0.00    -0.284 OA
ATOM     10  C   UNL d   1      46.280 -15.461  44.953  0.00  0.00     0.026 A 
ENDROOT
BRANCH   8  11
ATOM     11  O   UNL d   1      46.383 -14.205  44.296  0.00  0.00    -0.227 OA
BRANCH  11  12
ATOM     12  S   UNL d   1      45.783 -13.778  43.924  0.00  0.00     0.304 S 
ATOM     13  O   UNL d   1      45.261 -14.383  44.071  0.00  0.00    -0.193 OA
ATOM     14  O   UNL d   1      46.302 -13.160  43.769  0.00  0.00    -0.193 OA
BRANCH  12  15
ATOM     15  C   UNL d   1      45.175 -13.349  43.548  0.00  0.00     0.111 A 
ATOM     16  C   UNL d   1      44.441 -13.709  43.421  0.00  0.00     0.014 A 
ATOM     17  C   UNL d   1      43.838 -13.286  43.050  0.00  0.00     0.012 A 
ATOM     18  C   UNL d   1      43.969 -12.503  42.805  0.00  0.00     0.058 A 
ATOM     19  C   UNL d   1      44.709 -12.154  42.938  0.00  0.00     0.012 A 
ATOM     20 CL   UNL d   1      43.375 -12.087  42.439  0.00  0.00    -0.082 Cl
ATOM     21  C   UNL d   1      45.309 -12.580  43.310  0.00  0.00     0.014 A 
ENDBRANCH  12  15
ENDBRANCH  11  12
ENDBRANCH   8  11
BRANCH   1  22
ATOM     22  C   UNL d   1      46.574 -18.225  42.767  0.00  0.00     0.029 C 
BRANCH  22  23
ATOM     23  C   UNL d   1      46.230 -18.923  43.047  0.00  0.00     0.021 A 
ATOM     24  C   UNL d   1      46.458 -19.217  43.777  0.00  0.00     0.099 A 
ATOM     25  N   UNL d   1      46.125 -19.907  44.067  0.00  0.00    -0.242 NA
ATOM     26  C   UNL d   1      45.552 -20.312  43.616  0.00  0.00     0.099 A 
ATOM     27  C   UNL d   1      45.325 -20.012  42.880  0.00  0.00     0.021 A 
ATOM     28  C   UNL d   1      45.669 -19.314  42.600  0.00  0.00     0.003 A 
ENDBRANCH  22  23
ENDBRANCH   1  22
TORSDOF 5
ENDMDL
