MODEL 1
REMARK VINA RESULT:      -3.0      0.000      0.000
REMARK  3 active torsions:
REMARK  status: ('A' for Active; 'I' for Inactive)
REMARK    1  A    between atoms: C_6  and  N_1 
REMARK    2  A    between atoms: C_7  and  C_6 
REMARK    3  A    between atoms: C_8  and  C_7 
ROOT
ATOM      1  N   UNL d   1      58.921  -0.673  29.426  0.00  0.00    -0.305 N 
ATOM      2  C   UNL d   1      59.575  -0.186  29.313  0.00  0.00     0.064 A 
ATOM      3  C   UNL d   1      58.879  -1.659  29.204  0.00  0.00     0.064 A 
ATOM      4  C   UNL d   1      60.004  -0.813  29.010  0.00  0.00     0.018 A 
ATOM      5  C   UNL d   1      59.659  -1.555  28.953  0.00  0.00     0.018 A 
ATOM      6  C   UNL d   1      58.525  -2.391  29.152  0.00  0.00     0.018 A 
ATOM      7  C   UNL d   1      59.924   0.563  29.370  0.00  0.00     0.018 A 
ATOM      8  C   UNL d   1      60.789  -0.702  28.760  0.00  0.00     0.002 A 
ATOM      9  C   UNL d   1      60.084  -2.190  28.650  0.00  0.00     0.002 A 
ATOM     10  C   UNL d   1      59.725  -2.933  28.598  0.00  0.00     0.000 A 
ATOM     11  C   UNL d   1      60.704   0.682  29.124  0.00  0.00     0.002 A 
ATOM     12  C   UNL d   1      58.948  -3.031  28.849  0.00  0.00     0.002 A 
ATOM     13  C   UNL d   1      61.133   0.040  28.817  0.00  0.00     0.000 A 
ENDROOT
BRANCH   1  14
ATOM     14  C   UNL d   1      58.226  -0.360  29.747  0.00  0.00     0.086 C 
BRANCH  14  15
ATOM     15  C   UNL d   1      58.123  -0.272  30.561  0.00  0.00     0.089 C 
BRANCH  15  16
ATOM     16  C   UNL d   1      57.385  -0.045  30.857  0.00  0.00     0.213 C 
ATOM     17  O   UNL d   1      57.009  -0.513  31.426  0.00  0.00    -0.644 OA
ATOM     18  O   UNL d   1      57.023   0.645  30.587  0.00  0.00    -0.644 OA
ENDBRANCH  15  16
ENDBRANCH  14  15
ENDBRANCH   1  14
TORSDOF 3
ENDMDL
MODEL 2
REMARK VINA RESULT:      -2.9      0.109      2.279
REMARK  3 active torsions:
REMARK  status: ('A' for Active; 'I' for Inactive)
REMARK    1  A    between atoms: C_6  and  N_1 
REMARK    2  A    between atoms: C_7  and  C_6 
REMARK    3  A    between atoms: C_8  and  C_7 
ROOT
ATOM      1  N   UNL d   1      58.854  -0.830  29.422  0.00  0.00    -0.305 N 
ATOM      2  C   UNL d   1      58.883  -1.623  29.205  0.00  0.00     0.064 A 
ATOM      3  C   UNL d   1      59.602  -0.160  29.294  0.00  0.00     0.064 A 
ATOM      4  C   UNL d   1      59.644  -1.531  28.922  0.00  0.00     0.018 A 
ATOM      5  C   UNL d   1      60.010  -0.799  28.964  0.00  0.00     0.018 A 
ATOM      6  C   UNL d   1      59.955   0.573  29.341  0.00  0.00     0.018 A 
ATOM      7  C   UNL d   1      58.513  -2.363  29.163  0.00  0.00     0.018 A 
ATOM      8  C   UNL d   1      60.049  -2.177  28.591  0.00  0.00     0.002 A 
ATOM      9  C   UNL d   1      60.775  -0.698  28.681  0.00  0.00     0.002 A 
ATOM     10  C   UNL d   1      61.133   0.046  28.729  0.00  0.00     0.000 A 
ATOM     11  C   UNL d   1      58.909  -3.011  28.836  0.00  0.00     0.002 A 
ATOM     12  C   UNL d   1      60.722   0.677  29.058  0.00  0.00     0.002 A 
ATOM     13  C   UNL d   1      59.683  -2.910  28.550  0.00  0.00     0.000 A 
ENDROOT
BRANCH   1  14
ATOM     14  C   UNL d   1      58.172  -0.523  29.776  0.00  0.00     0.086 C 
BRANCH  14  15
ATOM     15  C   UNL d   1      58.109  -0.435  30.594  0.00  0.00     0.089 C 
BRANCH  15  16
ATOM     16  C   UNL d   1      57.388  -0.201  30.925  0.00  0.00     0.213 C 
ATOM     17  O   UNL d   1      57.018   0.490  30.660  0.00  0.00    -0.644 OA
ATOM     18  O   UNL d   1      57.036  -0.654  31.517  0.00  0.00    -0.644 OA
ENDBRANCH  15  16
ENDBRANCH  14  15
ENDBRANCH   1  14
TORSDOF 3
ENDMDL
MODEL 3
REMARK VINA RESULT:      -2.4      9.070      9.460
REMARK  3 active torsions:
REMARK  status: ('A' for Active; 'I' for Inactive)
REMARK    1  A    between atoms: C_6  and  N_1 
REMARK    2  A    between atoms: C_7  and  C_6 
REMARK    3  A    between atoms: C_8  and  C_7 
ROOT
ATOM      1  N   UNL d   1      59.393  -9.817  32.054  0.00  0.00    -0.305 N 
ATOM      2  C   UNL d   1      58.593  -9.817  31.861  0.00  0.00     0.064 A 
ATOM      3  C   UNL d   1      60.157  -9.816  31.390  0.00  0.00     0.064 A 
ATOM      4  C   UNL d   1      58.773  -9.816  31.064  0.00  0.00     0.018 A 
ATOM      5  C   UNL d   1      59.556  -9.816  30.821  0.00  0.00     0.018 A 
ATOM      6  C   UNL d   1      60.939  -9.816  31.162  0.00  0.00     0.018 A 
ATOM      7  C   UNL d   1      57.802  -9.817  32.106  0.00  0.00     0.018 A 
ATOM      8  C   UNL d   1      58.165  -9.816  30.497  0.00  0.00     0.002 A 
ATOM      9  C   UNL d   1      59.746  -9.816  30.022  0.00  0.00     0.002 A 
ATOM     10  C   UNL d   1      60.540  -9.816  29.790  0.00  0.00     0.000 A 
ATOM     11  C   UNL d   1      57.191  -9.817  31.549  0.00  0.00     0.002 A 
ATOM     12  C   UNL d   1      61.132  -9.816  30.360  0.00  0.00     0.002 A 
ATOM     13  C   UNL d   1      57.382  -9.817  30.740  0.00  0.00     0.000 A 
ENDROOT
BRANCH   1  14
ATOM     14  C   UNL d   1      59.625  -9.817  32.848  0.00  0.00     0.086 C 
BRANCH  14  15
ATOM     15  C   UNL d   1      59.660  -9.122  33.292  0.00  0.00     0.089 C 
BRANCH  15  16
ATOM     16  C   UNL d   1      60.068  -9.118  34.012  0.00  0.00     0.213 C 
ATOM     17  O   UNL d   1      60.451  -8.430  34.263  0.00  0.00    -0.644 OA
ATOM     18  O   UNL d   1      60.092  -9.797  34.479  0.00  0.00    -0.644 OA
ENDBRANCH  15  16
ENDBRANCH  14  15
ENDBRANCH   1  14
TORSDOF 3
ENDMDL
MODEL 4
REMARK VINA RESULT:      -1.9      2.048      2.747
REMARK  3 active torsions:
REMARK  status: ('A' for Active; 'I' for Inactive)
REMARK    1  A    between atoms: C_6  and  N_1 
REMARK    2  A    between atoms: C_7  and  C_6 
REMARK    3  A    between atoms: C_8  and  C_7 
ROOT
ATOM      1  N   UNL d   1      58.528   0.616  30.870  0.00  0.00    -0.305 N 
ATOM      2  C   UNL d   1      58.438   0.605  30.052  0.00  0.00     0.064 A 
ATOM      3  C   UNL d   1      59.411   0.644  31.364  0.00  0.00     0.064 A 
ATOM      4  C   UNL d   1      59.249   0.623  29.952  0.00  0.00     0.018 A 
ATOM      5  C   UNL d   1      59.742   0.643  30.606  0.00  0.00     0.018 A 
ATOM      6  C   UNL d   1      59.890   0.663  32.022  0.00  0.00     0.018 A 
ATOM      7  C   UNL d   1      57.940   0.585  29.391  0.00  0.00     0.018 A 
ATOM      8  C   UNL d   1      59.577   0.623  29.187  0.00  0.00     0.002 A 
ATOM      9  C   UNL d   1      60.558   0.662  30.513  0.00  0.00     0.002 A 
ATOM     10  C   UNL d   1      61.045   0.681  31.182  0.00  0.00     0.000 A 
ATOM     11  C   UNL d   1      58.258   0.584  28.628  0.00  0.00     0.002 A 
ATOM     12  C   UNL d   1      60.710   0.682  31.932  0.00  0.00     0.002 A 
ATOM     13  C   UNL d   1      59.083   0.603  28.533  0.00  0.00     0.000 A 
ENDROOT
BRANCH   1  14
ATOM     14  C   UNL d   1      57.859   0.606  31.358  0.00  0.00     0.086 C 
BRANCH  14  15
ATOM     15  C   UNL d   1      57.352  -0.044  31.387  0.00  0.00     0.089 C 
BRANCH  15  16
ATOM     16  C   UNL d   1      56.764  -0.077  31.968  0.00  0.00     0.213 C 
ATOM     17  O   UNL d   1      56.525  -0.810  32.270  0.00  0.00    -0.644 OA
ATOM     18  O   UNL d   1      56.416   0.616  32.247  0.00  0.00    -0.644 OA
ENDBRANCH  15  16
ENDBRANCH  14  15
ENDBRANCH   1  14
TORSDOF 3
ENDMDL
MODEL 5
REMARK VINA RESULT:      -1.5      2.208      2.636
REMARK  3 active torsions:
REMARK  status: ('A' for Active; 'I' for Inactive)
REMARK    1  A    between atoms: C_6  and  N_1 
REMARK    2  A    between atoms: C_7  and  C_6 
REMARK    3  A    between atoms: C_8  and  C_7 
ROOT
ATOM      1  N   UNL d   1      58.171   0.658  31.022  0.00  0.00    -0.305 N 
ATOM      2  C   UNL d   1      58.922   0.664  31.359  0.00  0.00     0.064 A 
ATOM      3  C   UNL d   1      57.974   0.659  30.029  0.00  0.00     0.064 A 
ATOM      4  C   UNL d   1      59.267   0.670  30.618  0.00  0.00     0.018 A 
ATOM      5  C   UNL d   1      58.797   0.668  29.947  0.00  0.00     0.018 A 
ATOM      6  C   UNL d   1      57.496   0.656  29.370  0.00  0.00     0.018 A 
ATOM      7  C   UNL d   1      59.397   0.667  32.037  0.00  0.00     0.018 A 
ATOM      8  C   UNL d   1      60.096   0.679  30.542  0.00  0.00     0.002 A 
ATOM      9  C   UNL d   1      59.137   0.674  29.199  0.00  0.00     0.002 A 
ATOM     10  C   UNL d   1      58.651   0.671  28.530  0.00  0.00     0.000 A 
ATOM     11  C   UNL d   1      60.222   0.676  31.970  0.00  0.00     0.002 A 
ATOM     12  C   UNL d   1      57.834   0.663  28.618  0.00  0.00     0.002 A 
ATOM     13  C   UNL d   1      60.566   0.682  31.214  0.00  0.00     0.000 A 
ENDROOT
BRANCH   1  14
ATOM     14  C   UNL d   1      57.502   0.649  31.507  0.00  0.00     0.086 C 
BRANCH  14  15
ATOM     15  C   UNL d   1      57.092  -0.049  31.671  0.00  0.00     0.089 C 
BRANCH  15  16
ATOM     16  C   UNL d   1      56.445  -0.030  32.187  0.00  0.00     0.213 C 
ATOM     17  O   UNL d   1      55.863   0.550  32.095  0.00  0.00    -0.644 OA
ATOM     18  O   UNL d   1      56.379  -0.587  32.791  0.00  0.00    -0.644 OA
ENDBRANCH  15  16
ENDBRANCH  14  15
ENDBRANCH   1  14
TORSDOF 3
ENDMDL
MODEL 6
REMARK VINA RESULT:      -1.3      3.768      6.274
REMARK  3 active torsions:
REMARK  status: ('A' for Active; 'I' for Inactive)
REMARK    1  A    between atoms: C_6  and  N_1 
REMARK    2  A    between atoms: C_7  and  C_6 
REMARK    3  A    between atoms: C_8  and  C_7 
ROOT
ATOM      1  N   UNL d   1      56.335   0.468  33.529  0.00  0.00    -0.305 N 
ATOM      2  C   UNL d   1      55.535   0.503  33.718  0.00  0.00     0.064 A 
ATOM      3  C   UNL d   1      57.098   0.522  34.192  0.00  0.00     0.064 A 
ATOM      4  C   UNL d   1      55.714   0.583  34.511  0.00  0.00     0.018 A 
ATOM      5  C   UNL d   1      56.497   0.593  34.755  0.00  0.00     0.018 A 
ATOM      6  C   UNL d   1      57.879   0.531  34.421  0.00  0.00     0.018 A 
ATOM      7  C   UNL d   1      54.744   0.493  33.472  0.00  0.00     0.018 A 
ATOM      8  C   UNL d   1      55.105   0.654  35.073  0.00  0.00     0.002 A 
ATOM      9  C   UNL d   1      56.685   0.673  35.551  0.00  0.00     0.002 A 
ATOM     10  C   UNL d   1      57.478   0.682  35.784  0.00  0.00     0.000 A 
ATOM     11  C   UNL d   1      54.133   0.563  34.024  0.00  0.00     0.002 A 
ATOM     12  C   UNL d   1      58.071   0.611  35.219  0.00  0.00     0.002 A 
ATOM     13  C   UNL d   1      54.323   0.644  34.829  0.00  0.00     0.000 A 
ENDROOT
BRANCH   1  14
ATOM     14  C   UNL d   1      56.568   0.380  32.740  0.00  0.00     0.086 C 
BRANCH  14  15
ATOM     15  C   UNL d   1      56.699  -0.362  32.404  0.00  0.00     0.089 C 
BRANCH  15  16
ATOM     16  C   UNL d   1      56.881  -0.420  31.599  0.00  0.00     0.213 C 
ATOM     17  O   UNL d   1      57.022  -1.161  31.262  0.00  0.00    -0.644 OA
ATOM     18  O   UNL d   1      56.921   0.259  31.133  0.00  0.00    -0.644 OA
ENDBRANCH  15  16
ENDBRANCH  14  15
ENDBRANCH   1  14
TORSDOF 3
ENDMDL
MODEL 7
REMARK VINA RESULT:      -0.8      8.605      9.062
REMARK  3 active torsions:
REMARK  status: ('A' for Active; 'I' for Inactive)
REMARK    1  A    between atoms: C_6  and  N_1 
REMARK    2  A    between atoms: C_7  and  C_6 
REMARK    3  A    between atoms: C_8  and  C_7 
ROOT
ATOM      1  N   UNL d   1      58.269  -9.717  30.290  0.00  0.00    -0.305 N 
ATOM      2  C   UNL d   1      57.556  -9.733  29.879  0.00  0.00     0.064 A 
ATOM      3  C   UNL d   1      59.182  -9.580  29.875  0.00  0.00     0.064 A 
ATOM      4  C   UNL d   1      57.948  -9.609  29.172  0.00  0.00     0.018 A 
ATOM      5  C   UNL d   1      58.764  -9.532  29.164  0.00  0.00     0.018 A 
ATOM      6  C   UNL d   1      59.993  -9.505  29.881  0.00  0.00     0.018 A 
ATOM      7  C   UNL d   1      56.732  -9.811  29.887  0.00  0.00     0.018 A 
ATOM      8  C   UNL d   1      57.521  -9.562  28.460  0.00  0.00     0.002 A 
ATOM      9  C   UNL d   1      59.164  -9.408  28.458  0.00  0.00     0.002 A 
ATOM     10  C   UNL d   1      59.988  -9.331  28.463  0.00  0.00     0.000 A 
ATOM     11  C   UNL d   1      56.300  -9.765  29.183  0.00  0.00     0.002 A 
ATOM     12  C   UNL d   1      60.399  -9.380  29.174  0.00  0.00     0.002 A 
ATOM     13  C   UNL d   1      56.705  -9.639  28.468  0.00  0.00     0.000 A 
ENDROOT
BRANCH   1  14
ATOM     14  C   UNL d   1      58.274  -9.817  31.111  0.00  0.00     0.086 C 
BRANCH  14  15
ATOM     15  C   UNL d   1      57.975  -9.242  31.622  0.00  0.00     0.089 C 
BRANCH  15  16
ATOM     16  C   UNL d   1      58.112  -9.307  32.435  0.00  0.00     0.213 C 
ATOM     17  O   UNL d   1      58.745  -8.899  32.779  0.00  0.00    -0.644 OA
ATOM     18  O   UNL d   1      57.622  -9.776  32.903  0.00  0.00    -0.644 OA
ENDBRANCH  15  16
ENDBRANCH  14  15
ENDBRANCH   1  14
TORSDOF 3
ENDMDL
MODEL 8
REMARK VINA RESULT:      -0.5      8.724      9.772
REMARK  3 active torsions:
REMARK  status: ('A' for Active; 'I' for Inactive)
REMARK    1  A    between atoms: C_6  and  N_1 
REMARK    2  A    between atoms: C_7  and  C_6 
REMARK    3  A    between atoms: C_8  and  C_7 
ROOT
ATOM      1  N   UNL d   1      59.132  -8.548  34.898  0.00  0.00    -0.305 N 
ATOM      2  C   UNL d   1      58.956  -7.781  35.141  0.00  0.00     0.064 A 
ATOM      3  C   UNL d   1      59.884  -9.120  35.261  0.00  0.00     0.064 A 
ATOM      4  C   UNL d   1      59.575  -7.797  35.675  0.00  0.00     0.018 A 
ATOM      5  C   UNL d   1      60.044  -8.466  35.739  0.00  0.00     0.018 A 
ATOM      6  C   UNL d   1      60.342  -9.791  35.315  0.00  0.00     0.018 A 
ATOM      7  C   UNL d   1      58.483  -7.105  35.077  0.00  0.00     0.018 A 
ATOM      8  C   UNL d   1      59.731  -7.135  36.154  0.00  0.00     0.002 A 
ATOM      9  C   UNL d   1      60.667  -8.489  36.274  0.00  0.00     0.002 A 
ATOM     10  C   UNL d   1      61.133  -9.170  36.329  0.00  0.00     0.000 A 
ATOM     11  C   UNL d   1      58.631  -6.443  35.549  0.00  0.00     0.002 A 
ATOM     12  C   UNL d   1      60.969  -9.818  35.850  0.00  0.00     0.002 A 
ATOM     13  C   UNL d   1      59.262  -6.466  36.090  0.00  0.00     0.000 A 
ENDROOT
BRANCH   1  14
ATOM     14  C   UNL d   1      58.674  -8.909  34.311  0.00  0.00     0.086 C 
BRANCH  14  15
ATOM     15  C   UNL d   1      58.993  -9.120  33.579  0.00  0.00     0.089 C 
BRANCH  15  16
ATOM     16  C   UNL d   1      58.497  -9.427  32.992  0.00  0.00     0.213 C 
ATOM     17  O   UNL d   1      58.724  -9.382  32.198  0.00  0.00    -0.644 OA
ATOM     18  O   UNL d   1      57.780  -9.778  33.197  0.00  0.00    -0.644 OA
ENDBRANCH  15  16
ENDBRANCH  14  15
ENDBRANCH   1  14
TORSDOF 3
ENDMDL
MODEL 9
REMARK VINA RESULT:      -0.4      2.063      3.803
REMARK  3 active torsions:
REMARK  status: ('A' for Active; 'I' for Inactive)
REMARK    1  A    between atoms: C_6  and  N_1 
REMARK    2  A    between atoms: C_7  and  C_6 
REMARK    3  A    between atoms: C_8  and  C_7 
ROOT
ATOM      1  N   UNL d   1      58.321   0.422  30.923  0.00  0.00    -0.305 N 
ATOM      2  C   UNL d   1      57.715   0.471  31.479  0.00  0.00     0.064 A 
ATOM      3  C   UNL d   1      59.310   0.486  31.127  0.00  0.00     0.064 A 
ATOM      4  C   UNL d   1      58.260   0.570  32.080  0.00  0.00     0.018 A 
ATOM      5  C   UNL d   1      59.062   0.578  31.910  0.00  0.00     0.018 A 
ATOM      6  C   UNL d   1      60.104   0.492  30.945  0.00  0.00     0.018 A 
ATOM      7  C   UNL d   1      56.906   0.463  31.651  0.00  0.00     0.018 A 
ATOM      8  C   UNL d   1      58.003   0.661  32.866  0.00  0.00     0.002 A 
ATOM      9  C   UNL d   1      59.614   0.676  32.509  0.00  0.00     0.002 A 
ATOM     10  C   UNL d   1      60.421   0.682  32.325  0.00  0.00     0.000 A 
ATOM     11  C   UNL d   1      56.642   0.554  32.429  0.00  0.00     0.002 A 
ATOM     12  C   UNL d   1      60.662   0.590  31.544  0.00  0.00     0.002 A 
ATOM     13  C   UNL d   1      57.201   0.653  33.036  0.00  0.00     0.000 A 
ENDROOT
BRANCH   1  14
ATOM     14  C   UNL d   1      58.139   0.312  30.124  0.00  0.00     0.086 C 
BRANCH  14  15
ATOM     15  C   UNL d   1      58.343  -0.379  29.722  0.00  0.00     0.089 C 
BRANCH  15  16
ATOM     16  C   UNL d   1      58.154  -0.455  28.920  0.00  0.00     0.213 C 
ATOM     17  O   UNL d   1      58.212  -1.194  28.553  0.00  0.00    -0.644 OA
ATOM     18  O   UNL d   1      57.909   0.202  28.486  0.00  0.00    -0.644 OA
ENDBRANCH  15  16
ENDBRANCH  14  15
ENDBRANCH   1  14
TORSDOF 3
ENDMDL
