MODEL 1
REMARK VINA RESULT:      -7.9      0.000      0.000
REMARK  3 active torsions:
REMARK  status: ('A' for Active; 'I' for Inactive)
REMARK    1  A    between atoms: C_6  and  C_2 
REMARK    2  A    between atoms: C_7  and  C_6 
REMARK    3  A    between atoms: C_8  and  C_7 
ROOT
ATOM      1  N   UNL d   1      52.804  34.415  54.044  0.00  0.00    -0.225 NA
ATOM      2  C   UNL d   1      52.373  33.857  53.572  0.00  0.00     0.163 A 
ATOM      3  N   UNL d   1      52.758  33.133  53.630  0.00  0.00    -0.225 NA
ATOM      4  C   UNL d   1      53.431  34.022  54.372  0.00  0.00     0.101 A 
ATOM      5  C   UNL d   1      53.426  33.206  54.125  0.00  0.00     0.101 A 
ATOM      6  C   UNL d   1      54.059  34.267  54.891  0.00  0.00     0.021 A 
ATOM      7  C   UNL d   1      54.002  32.672  54.375  0.00  0.00     0.021 A 
ATOM      8  C   UNL d   1      54.582  32.927  54.863  0.00  0.00     0.002 A 
ATOM      9  C   UNL d   1      54.610  33.712  55.117  0.00  0.00     0.002 A 
ENDROOT
BRANCH   2  10
ATOM     10  C   UNL d   1      51.723  34.226  53.221  0.00  0.00     0.039 C 
BRANCH  10  11
ATOM     11  C   UNL d   1      51.082  33.776  52.984  0.00  0.00     0.003 C 
BRANCH  11  12
ATOM     12  C   UNL d   1      50.425  34.147  52.645  0.00  0.00     0.000 A 
ATOM     13  C   UNL d   1      49.912  34.604  53.104  0.00  0.00     0.001 A 
ATOM     14  C   UNL d   1      49.268  34.960  52.742  0.00  0.00     0.011 A 
ATOM     15  C   UNL d   1      49.126  34.874  51.946  0.00  0.00     0.058 A 
ATOM     16  C   UNL d   1      49.640  34.417  51.489  0.00  0.00     0.011 A 
ATOM     17 CL   UNL d   1      48.467  35.246  51.605  0.00  0.00    -0.082 Cl
ATOM     18  C   UNL d   1      50.284  34.059  51.846  0.00  0.00     0.001 A 
ENDBRANCH  11  12
ENDBRANCH  10  11
ENDBRANCH   2  10
TORSDOF 3
ENDMDL
MODEL 2
REMARK VINA RESULT:      -7.5      2.547      3.727
REMARK  3 active torsions:
REMARK  status: ('A' for Active; 'I' for Inactive)
REMARK    1  A    between atoms: C_6  and  C_2 
REMARK    2  A    between atoms: C_7  and  C_6 
REMARK    3  A    between atoms: C_8  and  C_7 
ROOT
ATOM      1  N   UNL d   1      53.629  31.248  54.074  0.00  0.00    -0.225 NA
ATOM      2  C   UNL d   1      53.314  31.786  53.499  0.00  0.00     0.163 A 
ATOM      3  N   UNL d   1      52.885  31.343  52.954  0.00  0.00    -0.225 NA
ATOM      4  C   UNL d   1      53.388  30.504  53.869  0.00  0.00     0.101 A 
ATOM      5  C   UNL d   1      52.914  30.535  53.161  0.00  0.00     0.101 A 
ATOM      6  C   UNL d   1      53.517  29.737  54.215  0.00  0.00     0.021 A 
ATOM      7  C   UNL d   1      52.591  29.856  52.822  0.00  0.00     0.021 A 
ATOM      8  C   UNL d   1      52.727  29.148  53.167  0.00  0.00     0.002 A 
ATOM      9  C   UNL d   1      53.183  29.089  53.854  0.00  0.00     0.002 A 
ENDROOT
BRANCH   2  10
ATOM     10  C   UNL d   1      53.543  32.559  53.679  0.00  0.00     0.039 C 
BRANCH  10  11
ATOM     11  C   UNL d   1      53.198  33.184  53.281  0.00  0.00     0.003 C 
BRANCH  11  12
ATOM     12  C   UNL d   1      53.140  33.923  53.651  0.00  0.00     0.000 A 
ATOM     13  C   UNL d   1      53.544  34.077  54.354  0.00  0.00     0.001 A 
ATOM     14  C   UNL d   1      53.468  34.817  54.700  0.00  0.00     0.011 A 
ATOM     15  C   UNL d   1      53.006  35.396  54.366  0.00  0.00     0.058 A 
ATOM     16  C   UNL d   1      52.603  35.240  53.663  0.00  0.00     0.011 A 
ATOM     17 CL   UNL d   1      52.946  36.137  54.737  0.00  0.00    -0.082 Cl
ATOM     18  C   UNL d   1      52.675  34.503  53.314  0.00  0.00     0.001 A 
ENDBRANCH  11  12
ENDBRANCH  10  11
ENDBRANCH   2  10
TORSDOF 3
ENDMDL
MODEL 3
REMARK VINA RESULT:      -7.5      2.893      4.461
REMARK  3 active torsions:
REMARK  status: ('A' for Active; 'I' for Inactive)
REMARK    1  A    between atoms: C_6  and  C_2 
REMARK    2  A    between atoms: C_7  and  C_6 
REMARK    3  A    between atoms: C_8  and  C_7 
ROOT
ATOM      1  N   UNL d   1      53.547  33.250  54.387  0.00  0.00    -0.225 NA
ATOM      2  C   UNL d   1      53.324  32.776  53.720  0.00  0.00     0.163 A 
ATOM      3  N   UNL d   1      52.934  33.265  53.186  0.00  0.00    -0.225 NA
ATOM      4  C   UNL d   1      53.293  34.005  54.244  0.00  0.00     0.101 A 
ATOM      5  C   UNL d   1      52.900  34.042  53.489  0.00  0.00     0.101 A 
ATOM      6  C   UNL d   1      53.345  34.727  54.691  0.00  0.00     0.021 A 
ATOM      7  C   UNL d   1      52.582  34.746  53.197  0.00  0.00     0.021 A 
ATOM      8  C   UNL d   1      52.644  35.411  53.636  0.00  0.00     0.002 A 
ATOM      9  C   UNL d   1      53.020  35.402  54.372  0.00  0.00     0.002 A 
ENDROOT
BRANCH   2  10
ATOM     10  C   UNL d   1      53.569  31.995  53.833  0.00  0.00     0.039 C 
BRANCH  10  11
ATOM     11  C   UNL d   1      53.250  31.401  53.371  0.00  0.00     0.003 C 
BRANCH  11  12
ATOM     12  C   UNL d   1      53.263  30.619  53.644  0.00  0.00     0.000 A 
ATOM     13  C   UNL d   1      53.725  30.405  54.294  0.00  0.00     0.001 A 
ATOM     14  C   UNL d   1      53.718  29.624  54.544  0.00  0.00     0.011 A 
ATOM     15  C   UNL d   1      53.270  29.061  54.166  0.00  0.00     0.058 A 
ATOM     16  C   UNL d   1      52.809  29.277  53.517  0.00  0.00     0.011 A 
ATOM     17 CL   UNL d   1      53.282  28.276  54.440  0.00  0.00    -0.082 Cl
ATOM     18  C   UNL d   1      52.812  30.056  53.264  0.00  0.00     0.001 A 
ENDBRANCH  11  12
ENDBRANCH  10  11
ENDBRANCH   2  10
TORSDOF 3
ENDMDL
MODEL 4
REMARK VINA RESULT:      -7.4      2.035      4.672
REMARK  3 active torsions:
REMARK  status: ('A' for Active; 'I' for Inactive)
REMARK    1  A    between atoms: C_6  and  C_2 
REMARK    2  A    between atoms: C_7  and  C_6 
REMARK    3  A    between atoms: C_8  and  C_7 
ROOT
ATOM      1  N   UNL d   1      50.409  34.515  53.192  0.00  0.00    -0.225 NA
ATOM      2  C   UNL d   1      51.086  34.158  52.828  0.00  0.00     0.163 A 
ATOM      3  N   UNL d   1      50.911  34.045  52.032  0.00  0.00    -0.225 NA
ATOM      4  C   UNL d   1      49.846  34.610  52.618  0.00  0.00     0.101 A 
ATOM      5  C   UNL d   1      50.139  34.320  51.872  0.00  0.00     0.101 A 
ATOM      6  C   UNL d   1      49.058  34.930  52.627  0.00  0.00     0.021 A 
ATOM      7  C   UNL d   1      49.683  34.346  51.184  0.00  0.00     0.021 A 
ATOM      8  C   UNL d   1      48.946  34.652  51.220  0.00  0.00     0.002 A 
ATOM      9  C   UNL d   1      48.638  34.939  51.930  0.00  0.00     0.002 A 
ENDROOT
BRANCH   2  10
ATOM     10  C   UNL d   1      51.682  34.046  53.389  0.00  0.00     0.039 C 
BRANCH  10  11
ATOM     11  C   UNL d   1      52.423  33.799  53.146  0.00  0.00     0.003 C 
BRANCH  11  12
ATOM     12  C   UNL d   1      53.014  33.664  53.710  0.00  0.00     0.000 A 
ATOM     13  C   UNL d   1      53.276  34.272  54.203  0.00  0.00     0.001 A 
ATOM     14  C   UNL d   1      53.863  34.111  54.753  0.00  0.00     0.011 A 
ATOM     15  C   UNL d   1      54.189  33.370  54.821  0.00  0.00     0.058 A 
ATOM     16  C   UNL d   1      53.926  32.763  54.327  0.00  0.00     0.011 A 
ATOM     17 CL   UNL d   1      54.782  33.234  55.387  0.00  0.00    -0.082 Cl
ATOM     18  C   UNL d   1      53.341  32.919  53.777  0.00  0.00     0.001 A 
ENDBRANCH  11  12
ENDBRANCH  10  11
ENDBRANCH   2  10
TORSDOF 3
ENDMDL
MODEL 5
REMARK VINA RESULT:      -7.1      2.291      5.000
REMARK  3 active torsions:
REMARK  status: ('A' for Active; 'I' for Inactive)
REMARK    1  A    between atoms: C_6  and  C_2 
REMARK    2  A    between atoms: C_7  and  C_6 
REMARK    3  A    between atoms: C_8  and  C_7 
ROOT
ATOM      1  N   UNL d   1      49.171  34.715  51.920  0.00  0.00    -0.225 NA
ATOM      2  C   UNL d   1      49.610  34.831  52.637  0.00  0.00     0.163 A 
ATOM      3  N   UNL d   1      49.185  35.356  53.106  0.00  0.00    -0.225 NA
ATOM      4  C   UNL d   1      48.501  35.165  51.970  0.00  0.00     0.101 A 
ATOM      5  C   UNL d   1      48.484  35.583  52.712  0.00  0.00     0.101 A 
ATOM      6  C   UNL d   1      47.846  35.288  51.440  0.00  0.00     0.021 A 
ATOM      7  C   UNL d   1      47.863  36.086  52.916  0.00  0.00     0.021 A 
ATOM      8  C   UNL d   1      47.259  36.185  52.401  0.00  0.00     0.002 A 
ATOM      9  C   UNL d   1      47.251  35.792  51.674  0.00  0.00     0.002 A 
ENDROOT
BRANCH   2  10
ATOM     10  C   UNL d   1      50.304  34.383  52.620  0.00  0.00     0.039 C 
BRANCH  10  11
ATOM     11  C   UNL d   1      50.830  34.432  53.243  0.00  0.00     0.003 C 
BRANCH  11  12
ATOM     12  C   UNL d   1      51.531  33.990  53.222  0.00  0.00     0.000 A 
ATOM     13  C   UNL d   1      51.511  33.165  53.215  0.00  0.00     0.001 A 
ATOM     14  C   UNL d   1      52.220  32.752  53.194  0.00  0.00     0.011 A 
ATOM     15  C   UNL d   1      52.935  33.137  53.181  0.00  0.00     0.058 A 
ATOM     16  C   UNL d   1      52.952  33.962  53.189  0.00  0.00     0.011 A 
ATOM     17 CL   UNL d   1      53.638  32.695  53.160  0.00  0.00    -0.082 Cl
ATOM     18  C   UNL d   1      52.248  34.379  53.210  0.00  0.00     0.001 A 
ENDBRANCH  11  12
ENDBRANCH  10  11
ENDBRANCH   2  10
TORSDOF 3
ENDMDL
MODEL 6
REMARK VINA RESULT:      -7.0      1.166      1.731
REMARK  3 active torsions:
REMARK  status: ('A' for Active; 'I' for Inactive)
REMARK    1  A    between atoms: C_6  and  C_2 
REMARK    2  A    between atoms: C_7  and  C_6 
REMARK    3  A    between atoms: C_8  and  C_7 
ROOT
ATOM      1  N   UNL d   1      52.109  32.081  52.556  0.00  0.00    -0.225 NA
ATOM      2  C   UNL d   1      52.131  32.909  52.737  0.00  0.00     0.163 A 
ATOM      3  N   UNL d   1      52.778  33.041  53.227  0.00  0.00    -0.225 NA
ATOM      4  C   UNL d   1      52.735  31.734  52.934  0.00  0.00     0.101 A 
ATOM      5  C   UNL d   1      53.176  32.320  53.367  0.00  0.00     0.101 A 
ATOM      6  C   UNL d   1      53.014  30.931  52.974  0.00  0.00     0.021 A 
ATOM      7  C   UNL d   1      53.846  32.125  53.808  0.00  0.00     0.021 A 
ATOM      8  C   UNL d   1      54.088  31.363  53.828  0.00  0.00     0.002 A 
ATOM      9  C   UNL d   1      53.678  30.775  53.417  0.00  0.00     0.002 A 
ENDROOT
BRANCH   2  10
ATOM     10  C   UNL d   1      51.503  33.297  52.366  0.00  0.00     0.039 C 
BRANCH  10  11
ATOM     11  C   UNL d   1      51.220  33.998  52.676  0.00  0.00     0.003 C 
BRANCH  11  12
ATOM     12  C   UNL d   1      50.487  34.290  52.427  0.00  0.00     0.000 A 
ATOM     13  C   UNL d   1      49.960  34.627  52.966  0.00  0.00     0.001 A 
ATOM     14  C   UNL d   1      49.239  34.909  52.692  0.00  0.00     0.011 A 
ATOM     15  C   UNL d   1      49.037  34.862  51.906  0.00  0.00     0.058 A 
ATOM     16  C   UNL d   1      49.565  34.525  51.369  0.00  0.00     0.011 A 
ATOM     17 CL   UNL d   1      48.301  35.155  51.656  0.00  0.00    -0.082 Cl
ATOM     18  C   UNL d   1      50.285  34.242  51.638  0.00  0.00     0.001 A 
ENDBRANCH  11  12
ENDBRANCH  10  11
ENDBRANCH   2  10
TORSDOF 3
ENDMDL
MODEL 7
REMARK VINA RESULT:      -6.4      1.321      2.251
REMARK  3 active torsions:
REMARK  status: ('A' for Active; 'I' for Inactive)
REMARK    1  A    between atoms: C_6  and  C_2 
REMARK    2  A    between atoms: C_7  and  C_6 
REMARK    3  A    between atoms: C_8  and  C_7 
ROOT
ATOM      1  N   UNL d   1      50.828  33.391  52.908  0.00  0.00    -0.225 NA
ATOM      2  C   UNL d   1      50.696  34.229  52.916  0.00  0.00     0.163 A 
ATOM      3  N   UNL d   1      51.411  34.591  53.098  0.00  0.00    -0.225 NA
ATOM      4  C   UNL d   1      51.608  33.266  53.083  0.00  0.00     0.101 A 
ATOM      5  C   UNL d   1      52.001  34.012  53.209  0.00  0.00     0.101 A 
ATOM      6  C   UNL d   1      52.078  32.562  53.160  0.00  0.00     0.021 A 
ATOM      7  C   UNL d   1      52.804  34.055  53.397  0.00  0.00     0.021 A 
ATOM      8  C   UNL d   1      53.223  33.378  53.463  0.00  0.00     0.002 A 
ATOM      9  C   UNL d   1      52.866  32.643  53.346  0.00  0.00     0.002 A 
ENDROOT
BRANCH   2  10
ATOM     10  C   UNL d   1      49.905  34.392  52.740  0.00  0.00     0.039 C 
BRANCH  10  11
ATOM     11  C   UNL d   1      49.624  35.155  52.821  0.00  0.00     0.003 C 
BRANCH  11  12
ATOM     12  C   UNL d   1      48.862  35.341  52.554  0.00  0.00     0.000 A 
ATOM     13  C   UNL d   1      48.616  35.130  51.795  0.00  0.00     0.001 A 
ATOM     14  C   UNL d   1      47.856  35.326  51.556  0.00  0.00     0.011 A 
ATOM     15  C   UNL d   1      47.345  35.721  52.049  0.00  0.00     0.058 A 
ATOM     16  C   UNL d   1      47.592  35.930  52.808  0.00  0.00     0.011 A 
ATOM     17 CL   UNL d   1      46.580  35.907  51.782  0.00  0.00    -0.082 Cl
ATOM     18  C   UNL d   1      48.350  35.737  53.051  0.00  0.00     0.001 A 
ENDBRANCH  11  12
ENDBRANCH  10  11
ENDBRANCH   2  10
TORSDOF 3
ENDMDL
MODEL 8
REMARK VINA RESULT:      -5.8      9.775     10.470
REMARK  3 active torsions:
REMARK  status: ('A' for Active; 'I' for Inactive)
REMARK    1  A    between atoms: C_6  and  C_2 
REMARK    2  A    between atoms: C_7  and  C_6 
REMARK    3  A    between atoms: C_8  and  C_7 
ROOT
ATOM      1  N   UNL d   1      44.506  31.398  60.690  0.00  0.00    -0.225 NA
ATOM      2  C   UNL d   1      44.678  30.656  60.317  0.00  0.00     0.163 A 
ATOM      3  N   UNL d   1      44.738  30.088  60.909  0.00  0.00    -0.225 NA
ATOM      4  C   UNL d   1      44.467  31.266  61.487  0.00  0.00     0.101 A 
ATOM      5  C   UNL d   1      44.611  30.442  61.654  0.00  0.00     0.101 A 
ATOM      6  C   UNL d   1      44.316  31.775  62.152  0.00  0.00     0.021 A 
ATOM      7  C   UNL d   1      44.605  30.146  62.424  0.00  0.00     0.021 A 
ATOM      8  C   UNL d   1      44.460  30.645  63.031  0.00  0.00     0.002 A 
ATOM      9  C   UNL d   1      44.318  31.448  62.897  0.00  0.00     0.002 A 
ENDROOT
BRANCH   2  10
ATOM     10  C   UNL d   1      44.725  30.755  59.499  0.00  0.00     0.039 C 
BRANCH  10  11
ATOM     11  C   UNL d   1      45.107  30.192  59.045  0.00  0.00     0.003 C 
BRANCH  11  12
ATOM     12  C   UNL d   1      44.970  30.162  58.229  0.00  0.00     0.000 A 
ATOM     13  C   UNL d   1      44.827  30.851  57.798  0.00  0.00     0.001 A 
ATOM     14  C   UNL d   1      44.694  30.792  56.990  0.00  0.00     0.011 A 
ATOM     15  C   UNL d   1      44.701  30.074  56.610  0.00  0.00     0.058 A 
ATOM     16  C   UNL d   1      44.845  29.386  57.043  0.00  0.00     0.011 A 
ATOM     17 CL   UNL d   1      44.564  30.042  55.792  0.00  0.00    -0.082 Cl
ATOM     18  C   UNL d   1      44.978  29.440  57.850  0.00  0.00     0.001 A 
ENDBRANCH  11  12
ENDBRANCH  10  11
ENDBRANCH   2  10
TORSDOF 3
ENDMDL
MODEL 9
REMARK VINA RESULT:      -5.4      9.869     10.851
REMARK  3 active torsions:
REMARK  status: ('A' for Active; 'I' for Inactive)
REMARK    1  A    between atoms: C_6  and  C_2 
REMARK    2  A    between atoms: C_7  and  C_6 
REMARK    3  A    between atoms: C_8  and  C_7 
ROOT
ATOM      1  N   UNL d   1      44.783  30.620  58.451  0.00  0.00    -0.225 NA
ATOM      2  C   UNL d   1      44.986  30.061  59.057  0.00  0.00     0.163 A 
ATOM      3  N   UNL d   1      45.112  29.335  58.693  0.00  0.00    -0.225 NA
ATOM      4  C   UNL d   1      44.790  30.225  57.745  0.00  0.00     0.101 A 
ATOM      5  C   UNL d   1      44.996  29.407  57.869  0.00  0.00     0.101 A 
ATOM      6  C   UNL d   1      44.637  30.469  56.944  0.00  0.00     0.021 A 
ATOM      7  C   UNL d   1      45.047  28.871  57.245  0.00  0.00     0.021 A 
ATOM      8  C   UNL d   1      44.898  29.125  56.502  0.00  0.00     0.002 A 
ATOM      9  C   UNL d   1      44.696  29.912  56.354  0.00  0.00     0.002 A 
ENDROOT
BRANCH   2  10
ATOM     10  C   UNL d   1      44.988  30.433  59.795  0.00  0.00     0.039 C 
BRANCH  10  11
ATOM     11  C   UNL d   1      44.386  30.278  60.326  0.00  0.00     0.003 C 
BRANCH  11  12
ATOM     12  C   UNL d   1      44.430  30.584  61.094  0.00  0.00     0.000 A 
ATOM     13  C   UNL d   1      44.321  31.391  61.235  0.00  0.00     0.001 A 
ATOM     14  C   UNL d   1      44.369  31.668  62.005  0.00  0.00     0.011 A 
ATOM     15  C   UNL d   1      44.520  31.168  62.628  0.00  0.00     0.058 A 
ATOM     16  C   UNL d   1      44.628  30.362  62.485  0.00  0.00     0.011 A 
ATOM     17 CL   UNL d   1      44.564  31.475  63.398  0.00  0.00    -0.082 Cl
ATOM     18  C   UNL d   1      44.581  30.081  61.717  0.00  0.00     0.001 A 
ENDBRANCH  11  12
ENDBRANCH  10  11
ENDBRANCH   2  10
TORSDOF 3
ENDMDL
