MODEL 1
REMARK VINA RESULT:      -3.9      0.000      0.000
REMARK  4 active torsions:
REMARK  status: ('A' for Active; 'I' for Inactive)
REMARK    1  A    between atoms: C_7  and  C_1 
REMARK    2  A    between atoms: C_13  and  N_2 
REMARK    3  A    between atoms: C_8  and  C_7 
REMARK    4  A    between atoms: N_9  and  C_14 
ROOT
ATOM      1  N   UNL d   1      57.483   0.245  31.681  0.00  0.00    -0.242 N 
ATOM      2  C   UNL d   1      58.280   0.466  31.771  0.00  0.00     0.267 A 
ATOM      3  C   UNL d   1      57.359   0.074  30.884  0.00  0.00     0.267 A 
ATOM      4  C   UNL d   1      58.071   0.186  30.479  0.00  0.00     0.062 A 
ATOM      5  C   UNL d   1      58.639   0.428  31.027  0.00  0.00     0.066 A 
ATOM      6  O   UNL d   1      58.639   0.682  32.475  0.00  0.00    -0.267 OA
ATOM      7  O   UNL d   1      56.643  -0.169  30.551  0.00  0.00    -0.267 OA
ENDROOT
BRANCH   4   8
ATOM      8  C   UNL d   1      58.191   0.075  29.672  0.00  0.00     0.018 C 
BRANCH   8   9
ATOM      9  C   UNL d   1      58.815  -0.426  29.505  0.00  0.00     0.045 A 
ATOM     10  N   UNL d   1      59.601  -0.209  29.415  0.00  0.00    -0.308 N 
ATOM     11  C   UNL d   1      60.042  -0.876  29.252  0.00  0.00     0.060 A 
ATOM     12  C   UNL d   1      59.895   0.560  29.481  0.00  0.00     0.099 C 
ATOM     13  C   UNL d   1      60.839  -0.987  29.114  0.00  0.00     0.017 A 
ATOM     14  C   UNL d   1      59.530  -1.517  29.238  0.00  0.00    -0.002 A 
ATOM     15  C   UNL d   1      61.133  -1.747  28.960  0.00  0.00     0.002 A 
ATOM     16  C   UNL d   1      60.610  -2.387  28.948  0.00  0.00    -0.000 A 
ATOM     17  C   UNL d   1      59.817  -2.273  29.086  0.00  0.00    -0.003 A 
ATOM     18  C   UNL d   1      58.769  -1.239  29.395  0.00  0.00     0.054 A 
ATOM     19  C   UNL d   1      58.109  -1.739  29.425  0.00  0.00     0.010 C 
ATOM     20  C   UNL d   1      58.859  -2.052  29.265  0.00  0.00     0.010 C 
ENDBRANCH   8   9
ENDBRANCH   4   8
BRANCH   1  21
ATOM     21  C   UNL d   1      56.922   0.205  32.275  0.00  0.00     0.070 A 
ATOM     22  C   UNL d   1      57.025  -0.310  32.916  0.00  0.00     0.019 A 
ATOM     23  C   UNL d   1      56.456  -0.345  33.509  0.00  0.00     0.025 A 
ATOM     24  C   UNL d   1      55.789   0.128  33.467  0.00  0.00     0.127 A 
ATOM     25  C   UNL d   1      55.685   0.643  32.826  0.00  0.00     0.025 A 
ATOM     26  C   UNL d   1      56.251   0.682  32.231  0.00  0.00     0.019 A 
BRANCH  24  27
ATOM     27  N   UNL d   1      55.219   0.094  34.060  0.00  0.00    -0.114 N 
ATOM     28  O   UNL d   1      55.435  -0.076  34.836  0.00  0.00    -0.532 OA
ATOM     29  O   UNL d   1      54.432   0.230  33.878  0.00  0.00    -0.532 OA
ENDBRANCH  24  27
ENDBRANCH   1  21
TORSDOF 4
ENDMDL
MODEL 2
REMARK VINA RESULT:      -1.3      8.946     10.109
REMARK  4 active torsions:
REMARK  status: ('A' for Active; 'I' for Inactive)
REMARK    1  A    between atoms: C_7  and  C_1 
REMARK    2  A    between atoms: C_13  and  N_2 
REMARK    3  A    between atoms: C_8  and  C_7 
REMARK    4  A    between atoms: N_9  and  C_14 
ROOT
ATOM      1  N   UNL d   1      59.117  -9.662  32.350  0.00  0.00    -0.242 N 
ATOM      2  C   UNL d   1      59.940  -9.577  32.438  0.00  0.00     0.267 A 
ATOM      3  C   UNL d   1      58.790  -9.717  33.106  0.00  0.00     0.267 A 
ATOM      4  C   UNL d   1      59.401  -9.667  33.659  0.00  0.00     0.062 A 
ATOM      5  C   UNL d   1      60.111  -9.580  33.247  0.00  0.00     0.066 A 
ATOM      6  O   UNL d   1      60.480  -9.503  31.825  0.00  0.00    -0.267 OA
ATOM      7  O   UNL d   1      57.986  -9.807  33.275  0.00  0.00    -0.267 OA
ENDROOT
BRANCH   4   8
ATOM      8  C   UNL d   1      59.317  -9.697  34.478  0.00  0.00     0.018 C 
BRANCH   8   9
ATOM      9  C   UNL d   1      59.652  -9.057  34.861  0.00  0.00     0.045 A 
ATOM     10  N   UNL d   1      59.307  -8.320  34.964  0.00  0.00    -0.308 N 
ATOM     11  C   UNL d   1      59.826  -7.842  35.375  0.00  0.00     0.060 A 
ATOM     12  C   UNL d   1      58.558  -8.100  34.695  0.00  0.00     0.099 C 
ATOM     13  C   UNL d   1      59.777  -7.067  35.628  0.00  0.00     0.017 A 
ATOM     14  C   UNL d   1      60.502  -8.282  35.531  0.00  0.00    -0.002 A 
ATOM     15  C   UNL d   1      60.407  -6.723  36.043  0.00  0.00     0.002 A 
ATOM     16  C   UNL d   1      61.082  -7.174  36.195  0.00  0.00    -0.000 A 
ATOM     17  C   UNL d   1      61.130  -7.945  35.942  0.00  0.00    -0.003 A 
ATOM     18  C   UNL d   1      60.394  -9.036  35.213  0.00  0.00     0.054 A 
ATOM     19  C   UNL d   1      60.969  -9.630  35.267  0.00  0.00     0.010 C 
ATOM     20  C   UNL d   1      61.110  -8.883  35.599  0.00  0.00     0.010 C 
ENDBRANCH   8   9
ENDBRANCH   4   8
BRANCH   1  21
ATOM     21  C   UNL d   1      58.705  -9.688  31.644  0.00  0.00     0.070 A 
ATOM     22  C   UNL d   1      57.876  -9.677  31.641  0.00  0.00     0.019 A 
ATOM     23  C   UNL d   1      57.469  -9.703  30.928  0.00  0.00     0.025 A 
ATOM     24  C   UNL d   1      57.880  -9.739  30.220  0.00  0.00     0.127 A 
ATOM     25  C   UNL d   1      58.709  -9.749  30.222  0.00  0.00     0.025 A 
ATOM     26  C   UNL d   1      59.121  -9.724  30.933  0.00  0.00     0.019 A 
BRANCH  24  27
ATOM     27  N   UNL d   1      57.473  -9.765  29.505  0.00  0.00    -0.114 N 
ATOM     28  O   UNL d   1      56.651  -9.737  29.493  0.00  0.00    -0.532 OA
ATOM     29  O   UNL d   1      57.889  -9.818  28.801  0.00  0.00    -0.532 OA
ENDBRANCH  24  27
ENDBRANCH   1  21
TORSDOF 4
ENDMDL
