MODEL 1
REMARK VINA RESULT:      40.7      0.000      0.000
REMARK  2 active torsions:
REMARK  status: ('A' for Active; 'I' for Inactive)
REMARK    1  A    between atoms: C_3  and  C_1 
REMARK       I    between atoms: N_6  and  C_3 
REMARK    2  A    between atoms: C_11  and  N_6 
ROOT
ATOM      1  C   UNL d   1      60.079  49.667  51.320  0.00  0.00     0.121 A 
ATOM      2  C   UNL d   1      60.719  49.639  50.921  0.00  0.00     0.305 A 
ATOM      3  C   UNL d   1      60.098  49.686  52.142  0.00  0.00     0.012 A 
ATOM      4  O   UNL d   1      61.514  49.625  51.317  0.00  0.00    -0.273 OA
ATOM      5  C   UNL d   1      60.805  49.676  52.564  0.00  0.00     0.023 A 
ATOM      6  C   UNL d   1      61.522  49.645  52.145  0.00  0.00     0.103 A 
ATOM      7  O   UNL d   1      60.729  49.618  50.072  0.00  0.00    -0.259 OA
ATOM      8  C   UNL d   1      60.811  49.695  53.374  0.00  0.00     0.002 A 
ATOM      9  C   UNL d   1      62.231  49.634  52.546  0.00  0.00     0.025 A 
ATOM     10  C   UNL d   1      61.522  49.684  53.793  0.00  0.00     0.000 A 
ATOM     11  C   UNL d   1      62.239  49.654  53.374  0.00  0.00     0.002 A 
ENDROOT
BRANCH   1  12
ATOM     12  C   UNL d   1      59.355  49.678  50.912  0.00  0.00     0.284 C 
ATOM     13  N   UNL d   1      58.725  49.663  51.299  0.00  0.00    -0.208 NA
ATOM     14  O   UNL d   1      59.342  49.705  50.090  0.00  0.00    -0.265 OA
BRANCH  13  15
ATOM     15  C   UNL d   1      57.931  49.671  50.953  0.00  0.00     0.087 A 
ATOM     16  C   UNL d   1      57.756  49.666  50.153  0.00  0.00     0.049 A 
ATOM     17  C   UNL d   1      56.979  49.675  49.883  0.00  0.00     0.142 A 
ATOM     18  F   UNL d   1      56.809  49.669  49.084  0.00  0.00    -0.204 F 
ATOM     19  C   UNL d   1      56.356  49.691  50.441  0.00  0.00     0.030 A 
ATOM     20  C   UNL d   1      56.537  49.697  51.246  0.00  0.00     0.004 A 
ATOM     21  C   UNL d   1      57.305  49.687  51.513  0.00  0.00     0.019 A 
ENDBRANCH  13  15
ENDBRANCH   1  12
TORSDOF 2
ENDMDL
