MODEL 1
REMARK VINA RESULT:      -9.8      0.000      0.000
REMARK  4 active torsions:
REMARK  status: ('A' for Active; 'I' for Inactive)
REMARK    1  A    between atoms: O_2  and  P_1 
REMARK    2  A    between atoms: C_6  and  P_1 
REMARK    3  A    between atoms: C_3  and  O_2 
REMARK    4  A    between atoms: C_10  and  C_4 
ROOT
ATOM      1  C   UNL d   1      53.263  32.631  53.641  0.00  0.00     0.103 A 
ATOM      2  C   UNL d   1      53.950  32.382  54.028  0.00  0.00     0.023 A 
ATOM      3  C   UNL d   1      54.184  31.611  54.018  0.00  0.00     0.002 A 
ATOM      4  C   UNL d   1      52.814  32.067  53.239  0.00  0.00     0.025 A 
ATOM      5  C   UNL d   1      53.730  31.048  53.613  0.00  0.00     0.000 A 
ATOM      6  C   UNL d   1      53.046  31.296  53.229  0.00  0.00     0.002 A 
ATOM      7  C   UNL d   1      52.576  30.747  52.817  0.00  0.00     0.000 C 
ENDROOT
BRANCH   1   8
ATOM      8  O   UNL d   1      53.028  33.424  53.654  0.00  0.00    -0.269 OA
BRANCH   8   9
ATOM      9  P   UNL d   1      52.342  33.650  53.271  0.00  0.00     0.370 P 
ATOM     10  O   UNL d   1      52.734  33.629  52.552  0.00  0.00    -0.257 OA
ATOM     11  N   UNL d   1      51.950  33.668  54.020  0.00  0.00    -0.091 N 
BRANCH   9  12
ATOM     12  C   UNL d   1      51.639  33.879  52.901  0.00  0.00     0.077 A 
ATOM     13  C   UNL d   1      51.675  34.145  52.120  0.00  0.00     0.007 A 
ATOM     14  C   UNL d   1      50.968  34.375  51.747  0.00  0.00     0.000 A 
ATOM     15  C   UNL d   1      50.244  34.339  52.147  0.00  0.00     0.000 A 
ATOM     16  C   UNL d   1      50.230  34.073  52.918  0.00  0.00     0.000 A 
ATOM     17  C   UNL d   1      50.915  33.843  53.300  0.00  0.00     0.007 A 
ENDBRANCH   9  12
ENDBRANCH   8   9
ENDBRANCH   1   8
BRANCH   2  18
ATOM     18  C   UNL d   1      54.408  32.927  54.431  0.00  0.00     0.002 C 
ATOM     19  C   UNL d   1      54.264  33.087  55.221  0.00  0.00     0.000 C 
ATOM     20  C   UNL d   1      55.018  33.317  54.038  0.00  0.00     0.000 C 
ENDBRANCH   2  18
TORSDOF 4
ENDMDL
MODEL 2
REMARK VINA RESULT:      -9.2      1.150      3.519
REMARK  4 active torsions:
REMARK  status: ('A' for Active; 'I' for Inactive)
REMARK    1  A    between atoms: O_2  and  P_1 
REMARK    2  A    between atoms: C_6  and  P_1 
REMARK    3  A    between atoms: C_3  and  O_2 
REMARK    4  A    between atoms: C_10  and  C_4 
ROOT
ATOM      1  C   UNL d   1      52.554  33.384  53.304  0.00  0.00     0.103 A 
ATOM      2  C   UNL d   1      52.219  34.134  53.204  0.00  0.00     0.023 A 
ATOM      3  C   UNL d   1      52.437  34.758  53.664  0.00  0.00     0.002 A 
ATOM      4  C   UNL d   1      53.123  33.285  53.893  0.00  0.00     0.025 A 
ATOM      5  C   UNL d   1      53.009  34.655  54.254  0.00  0.00     0.000 A 
ATOM      6  C   UNL d   1      53.342  33.909  54.354  0.00  0.00     0.002 A 
ATOM      7  C   UNL d   1      53.918  33.784  54.941  0.00  0.00     0.000 C 
ENDROOT
BRANCH   1   8
ATOM      8  O   UNL d   1      52.326  32.747  52.828  0.00  0.00    -0.269 OA
BRANCH   8   9
ATOM      9  P   UNL d   1      52.608  31.997  52.993  0.00  0.00     0.370 P 
ATOM     10  O   UNL d   1      53.296  32.163  52.583  0.00  0.00    -0.257 OA
ATOM     11  N   UNL d   1      51.892  31.839  53.415  0.00  0.00    -0.091 N 
BRANCH   9  12
ATOM     12  C   UNL d   1      52.876  31.235  53.170  0.00  0.00     0.077 A 
ATOM     13  C   UNL d   1      52.317  30.646  53.315  0.00  0.00     0.007 A 
ATOM     14  C   UNL d   1      52.585  29.879  53.493  0.00  0.00     0.000 A 
ATOM     15  C   UNL d   1      53.395  29.708  53.526  0.00  0.00     0.000 A 
ATOM     16  C   UNL d   1      53.931  30.305  53.380  0.00  0.00     0.000 A 
ATOM     17  C   UNL d   1      53.685  31.064  53.203  0.00  0.00     0.007 A 
ENDBRANCH   9  12
ENDBRANCH   8   9
ENDBRANCH   1   8
BRANCH   2  18
ATOM     18  C   UNL d   1      51.652  34.250  52.624  0.00  0.00     0.002 C 
ATOM     19  C   UNL d   1      51.874  34.381  51.847  0.00  0.00     0.000 C 
ATOM     20  C   UNL d   1      50.854  34.235  52.828  0.00  0.00     0.000 C 
ENDBRANCH   2  18
TORSDOF 4
ENDMDL
MODEL 3
REMARK VINA RESULT:      -9.2      1.484      3.218
REMARK  4 active torsions:
REMARK  status: ('A' for Active; 'I' for Inactive)
REMARK    1  A    between atoms: O_2  and  P_1 
REMARK    2  A    between atoms: C_6  and  P_1 
REMARK    3  A    between atoms: C_3  and  O_2 
REMARK    4  A    between atoms: C_10  and  C_4 
ROOT
ATOM      1  C   UNL d   1      53.721  33.120  54.166  0.00  0.00     0.103 A 
ATOM      2  C   UNL d   1      53.984  33.768  54.608  0.00  0.00     0.023 A 
ATOM      3  C   UNL d   1      53.546  34.441  54.673  0.00  0.00     0.002 A 
ATOM      4  C   UNL d   1      52.990  33.176  53.787  0.00  0.00     0.025 A 
ATOM      5  C   UNL d   1      52.812  34.494  54.290  0.00  0.00     0.000 A 
ATOM      6  C   UNL d   1      52.551  33.849  53.850  0.00  0.00     0.002 A 
ATOM      7  C   UNL d   1      51.818  33.881  53.458  0.00  0.00     0.000 C 
ENDROOT
BRANCH   1   8
ATOM      8  O   UNL d   1      54.176  32.432  54.104  0.00  0.00    -0.269 OA
BRANCH   8   9
ATOM      9  P   UNL d   1      53.820  31.731  53.881  0.00  0.00     0.370 P 
ATOM     10  O   UNL d   1      53.516  31.642  54.635  0.00  0.00    -0.257 OA
ATOM     11  N   UNL d   1      54.140  31.835  53.105  0.00  0.00    -0.091 N 
BRANCH   9  12
ATOM     12  C   UNL d   1      53.468  31.024  53.636  0.00  0.00     0.077 A 
ATOM     13  C   UNL d   1      53.456  30.389  54.163  0.00  0.00     0.007 A 
ATOM     14  C   UNL d   1      53.101  29.677  53.919  0.00  0.00     0.000 A 
ATOM     15  C   UNL d   1      52.768  29.605  53.164  0.00  0.00     0.000 A 
ATOM     16  C   UNL d   1      52.791  30.244  52.658  0.00  0.00     0.000 A 
ATOM     17  C   UNL d   1      53.135  30.951  52.882  0.00  0.00     0.007 A 
ENDBRANCH   9  12
ENDBRANCH   8   9
ENDBRANCH   1   8
BRANCH   2  18
ATOM     18  C   UNL d   1      54.706  33.731  54.992  0.00  0.00     0.002 C 
ATOM     19  C   UNL d   1      55.399  33.895  54.588  0.00  0.00     0.000 C 
ATOM     20  C   UNL d   1      54.733  33.526  55.789  0.00  0.00     0.000 C 
ENDBRANCH   2  18
TORSDOF 4
ENDMDL
MODEL 4
REMARK VINA RESULT:      -8.5      1.364      3.483
REMARK  4 active torsions:
REMARK  status: ('A' for Active; 'I' for Inactive)
REMARK    1  A    between atoms: O_2  and  P_1 
REMARK    2  A    between atoms: C_6  and  P_1 
REMARK    3  A    between atoms: C_3  and  O_2 
REMARK    4  A    between atoms: C_10  and  C_4 
ROOT
ATOM      1  C   UNL d   1      52.986  32.091  53.336  0.00  0.00     0.103 A 
ATOM      2  C   UNL d   1      52.483  31.499  53.053  0.00  0.00     0.023 A 
ATOM      3  C   UNL d   1      51.737  31.665  52.798  0.00  0.00     0.002 A 
ATOM      4  C   UNL d   1      52.706  32.867  53.354  0.00  0.00     0.025 A 
ATOM      5  C   UNL d   1      51.459  32.446  52.817  0.00  0.00     0.000 A 
ATOM      6  C   UNL d   1      51.960  33.035  53.100  0.00  0.00     0.002 A 
ATOM      7  C   UNL d   1      51.701  33.825  53.127  0.00  0.00     0.000 C 
ENDROOT
BRANCH   1   8
ATOM      8  O   UNL d   1      53.751  31.914  53.596  0.00  0.00    -0.269 OA
BRANCH   8   9
ATOM      9  P   UNL d   1      54.153  32.449  54.065  0.00  0.00     0.370 P 
ATOM     10  O   UNL d   1      53.743  32.186  54.722  0.00  0.00    -0.257 OA
ATOM     11  N   UNL d   1      54.570  32.712  53.378  0.00  0.00    -0.091 N 
BRANCH   9  12
ATOM     12  C   UNL d   1      54.570  32.997  54.523  0.00  0.00     0.077 A 
ATOM     13  C   UNL d   1      55.171  33.433  54.163  0.00  0.00     0.007 A 
ATOM     14  C   UNL d   1      55.591  33.985  54.622  0.00  0.00     0.000 A 
ATOM     15  C   UNL d   1      55.412  34.096  55.423  0.00  0.00     0.000 A 
ATOM     16  C   UNL d   1      54.815  33.655  55.760  0.00  0.00     0.000 A 
ATOM     17  C   UNL d   1      54.391  33.109  55.323  0.00  0.00     0.007 A 
ENDBRANCH   9  12
ENDBRANCH   8   9
ENDBRANCH   1   8
BRANCH   2  18
ATOM     18  C   UNL d   1      52.744  30.723  53.028  0.00  0.00     0.002 C 
ATOM     19  C   UNL d   1      53.206  30.461  52.406  0.00  0.00     0.000 C 
ATOM     20  C   UNL d   1      52.538  30.206  53.635  0.00  0.00     0.000 C 
ENDBRANCH   2  18
TORSDOF 4
ENDMDL
