MODEL 1
REMARK VINA RESULT:      -2.8      0.000      0.000
REMARK  4 active torsions:
REMARK  status: ('A' for Active; 'I' for Inactive)
REMARK    1  A    between atoms: C_2  and  S_1 
REMARK    2  A    between atoms: N_5  and  S_1 
REMARK    3  A    between atoms: C_11  and  C_4 
REMARK    4  A    between atoms: C_9  and  N_5 
ROOT
ATOM      1  S   UNL d   1      57.413  -0.357  31.126  0.00  0.00     0.287 S 
ATOM      2  O   UNL d   1      58.072  -0.664  31.530  0.00  0.00    -0.198 OA
ATOM      3  O   UNL d   1      56.741  -0.049  30.730  0.00  0.00    -0.198 OA
ENDROOT
BRANCH   1   4
ATOM      4  C   UNL d   1      57.863  -0.219  30.443  0.00  0.00     0.125 A 
ATOM      5  C   UNL d   1      58.150  -0.863  30.011  0.00  0.00     0.121 A 
ATOM      6  N   UNL d   1      58.086  -1.677  30.112  0.00  0.00    -0.190 NA
ATOM      7  C   UNL d   1      58.601  -0.726  29.326  0.00  0.00     0.110 A 
ATOM      8  S   UNL d   1      58.487  -2.046  29.504  0.00  0.00     0.117 SA
ATOM      9  N   UNL d   1      58.805  -1.458  29.019  0.00  0.00    -0.190 NA
ATOM     10  C   UNL d   1      58.759   0.039  29.083  0.00  0.00     0.021 A 
ATOM     11  C   UNL d   1      58.468   0.682  29.521  0.00  0.00     0.002 A 
ATOM     12  C   UNL d   1      58.021   0.546  30.200  0.00  0.00     0.015 A 
ENDBRANCH   1   4
BRANCH   1  13
ATOM     13  N   UNL d   1      56.967  -0.496  31.810  0.00  0.00    -0.158 NA
BRANCH  13  14
ATOM     14  C   UNL d   1      56.891  -0.312  32.358  0.00  0.00     0.100 A 
ATOM     15  C   UNL d   1      56.357  -0.695  32.933  0.00  0.00     0.083 A 
ATOM     16  C   UNL d   1      56.352  -0.327  33.664  0.00  0.00     0.014 A 
ATOM     17  C   UNL d   1      56.808   0.351  33.859  0.00  0.00     0.035 A 
ATOM     18  C   UNL d   1      57.299   0.682  33.288  0.00  0.00     0.008 A 
ATOM     19 BR   UNL d   1      56.758   0.682  34.628  0.00  0.00    -0.049 Br
ATOM     20  C   UNL d   1      57.333   0.328  32.510  0.00  0.00     0.021 A 
BRANCH  15  21
ATOM     21  C   UNL d   1      55.910  -1.356  32.751  0.00  0.00     0.212 C 
ATOM     22  O   UNL d   1      56.193  -2.131  32.953  0.00  0.00    -0.644 OA
ATOM     23  O   UNL d   1      55.185  -1.266  32.372  0.00  0.00    -0.644 OA
ENDBRANCH  15  21
ENDBRANCH  13  14
ENDBRANCH   1  13
TORSDOF 4
ENDMDL
MODEL 2
REMARK VINA RESULT:      -2.7      1.896      3.826
REMARK  4 active torsions:
REMARK  status: ('A' for Active; 'I' for Inactive)
REMARK    1  A    between atoms: C_2  and  S_1 
REMARK    2  A    between atoms: N_5  and  S_1 
REMARK    3  A    between atoms: C_11  and  C_4 
REMARK    4  A    between atoms: C_9  and  N_5 
ROOT
ATOM      1  S   UNL d   1      57.640  -0.327  31.086  0.00  0.00     0.287 S 
ATOM      2  O   UNL d   1      58.283  -0.737  31.416  0.00  0.00    -0.198 OA
ATOM      3  O   UNL d   1      56.995   0.084  30.742  0.00  0.00    -0.198 OA
ENDROOT
BRANCH   1   4
ATOM      4  C   UNL d   1      57.336  -0.147  31.837  0.00  0.00     0.125 A 
ATOM      5  C   UNL d   1      56.752  -0.632  32.164  0.00  0.00     0.121 A 
ATOM      6  N   UNL d   1      56.371  -1.309  31.893  0.00  0.00    -0.190 NA
ATOM      7  C   UNL d   1      56.447  -0.453  32.917  0.00  0.00     0.110 A 
ATOM      8  S   UNL d   1      55.838  -1.552  32.461  0.00  0.00     0.117 SA
ATOM      9  N   UNL d   1      55.885  -1.022  33.093  0.00  0.00    -0.190 NA
ATOM     10  C   UNL d   1      56.722   0.198  33.328  0.00  0.00     0.021 A 
ATOM     11  C   UNL d   1      57.309   0.682  32.995  0.00  0.00     0.002 A 
ATOM     12  C   UNL d   1      57.612   0.504  32.249  0.00  0.00     0.015 A 
ENDBRANCH   1   4
BRANCH   1  13
ATOM     13  N   UNL d   1      57.946  -0.508  30.338  0.00  0.00    -0.158 NA
BRANCH  13  14
ATOM     14  C   UNL d   1      58.370  -0.365  29.966  0.00  0.00     0.100 A 
ATOM     15  C   UNL d   1      58.669  -0.894  29.338  0.00  0.00     0.083 A 
ATOM     16  C   UNL d   1      59.266  -0.559  28.891  0.00  0.00     0.014 A 
ATOM     17  C   UNL d   1      59.574   0.214  29.008  0.00  0.00     0.035 A 
ATOM     18  C   UNL d   1      59.264   0.681  29.610  0.00  0.00     0.008 A 
ATOM     19 BR   UNL d   1      60.188   0.500  28.514  0.00  0.00    -0.049 Br
ATOM     20  C   UNL d   1      58.638   0.368  30.102  0.00  0.00     0.021 A 
BRANCH  15  21
ATOM     21  C   UNL d   1      58.376  -1.648  29.217  0.00  0.00     0.212 C 
ATOM     22  O   UNL d   1      58.683  -2.302  29.663  0.00  0.00    -0.644 OA
ATOM     23  O   UNL d   1      57.782  -1.770  28.660  0.00  0.00    -0.644 OA
ENDBRANCH  15  21
ENDBRANCH  13  14
ENDBRANCH   1  13
TORSDOF 4
ENDMDL
MODEL 3
REMARK VINA RESULT:      -1.8      1.943      4.134
REMARK  4 active torsions:
REMARK  status: ('A' for Active; 'I' for Inactive)
REMARK    1  A    between atoms: C_2  and  S_1 
REMARK    2  A    between atoms: N_5  and  S_1 
REMARK    3  A    between atoms: C_11  and  C_4 
REMARK    4  A    between atoms: C_9  and  N_5 
ROOT
ATOM      1  S   UNL d   1      57.324  -0.424  31.317  0.00  0.00     0.287 S 
ATOM      2  O   UNL d   1      57.603  -1.188  31.488  0.00  0.00    -0.198 OA
ATOM      3  O   UNL d   1      57.050   0.347  31.133  0.00  0.00    -0.198 OA
ENDROOT
BRANCH   1   4
ATOM      4  C   UNL d   1      56.838  -0.422  31.989  0.00  0.00     0.125 A 
ATOM      5  C   UNL d   1      57.089  -0.021  32.667  0.00  0.00     0.121 A 
ATOM      6  N   UNL d   1      57.766   0.411  32.843  0.00  0.00    -0.190 NA
ATOM      7  C   UNL d   1      56.602  -0.018  33.342  0.00  0.00     0.110 A 
ATOM      8  S   UNL d   1      57.709   0.682  33.612  0.00  0.00     0.117 SA
ATOM      9  N   UNL d   1      56.990   0.416  33.919  0.00  0.00    -0.190 NA
ATOM     10  C   UNL d   1      55.883  -0.408  33.333  0.00  0.00     0.021 A 
ATOM     11  C   UNL d   1      55.637  -0.809  32.649  0.00  0.00     0.002 A 
ATOM     12  C   UNL d   1      56.119  -0.812  31.980  0.00  0.00     0.015 A 
ENDBRANCH   1   4
BRANCH   1  13
ATOM     13  N   UNL d   1      57.811  -0.430  30.646  0.00  0.00    -0.158 NA
BRANCH  13  14
ATOM     14  C   UNL d   1      58.053  -0.787  30.254  0.00  0.00     0.100 A 
ATOM     15  C   UNL d   1      58.483  -0.513  29.545  0.00  0.00     0.083 A 
ATOM     16  C   UNL d   1      58.769  -1.126  29.084  0.00  0.00     0.014 A 
ATOM     17  C   UNL d   1      58.668  -1.942  29.259  0.00  0.00     0.035 A 
ATOM     18  C   UNL d   1      58.255  -2.157  29.938  0.00  0.00     0.008 A 
ATOM     19 BR   UNL d   1      58.985  -2.523  28.746  0.00  0.00    -0.049 Br
ATOM     20  C   UNL d   1      57.940  -1.547  30.448  0.00  0.00     0.021 A 
BRANCH  15  21
ATOM     21  C   UNL d   1      58.587   0.278  29.367  0.00  0.00     0.212 C 
ATOM     22  O   UNL d   1      58.024   0.682  28.875  0.00  0.00    -0.644 OA
ATOM     23  O   UNL d   1      59.238   0.682  29.666  0.00  0.00    -0.644 OA
ENDBRANCH  15  21
ENDBRANCH  13  14
ENDBRANCH   1  13
TORSDOF 4
ENDMDL
MODEL 4
REMARK VINA RESULT:      -0.9      2.335      3.693
REMARK  4 active torsions:
REMARK  status: ('A' for Active; 'I' for Inactive)
REMARK    1  A    between atoms: C_2  and  S_1 
REMARK    2  A    between atoms: N_5  and  S_1 
REMARK    3  A    between atoms: C_11  and  C_4 
REMARK    4  A    between atoms: C_9  and  N_5 
ROOT
ATOM      1  S   UNL d   1      58.837  -1.967  29.137  0.00  0.00     0.287 S 
ATOM      2  O   UNL d   1      59.534  -1.697  28.773  0.00  0.00    -0.198 OA
ATOM      3  O   UNL d   1      58.130  -2.228  29.507  0.00  0.00    -0.198 OA
ENDROOT
BRANCH   1   4
ATOM      4  C   UNL d   1      59.006  -2.754  28.936  0.00  0.00     0.125 A 
ATOM      5  C   UNL d   1      59.778  -3.036  29.023  0.00  0.00     0.121 A 
ATOM      6  N   UNL d   1      60.475  -2.687  29.285  0.00  0.00    -0.190 NA
ATOM      7  C   UNL d   1      59.949  -3.826  28.822  0.00  0.00     0.110 A 
ATOM      8  S   UNL d   1      61.073  -3.243  29.251  0.00  0.00     0.117 SA
ATOM      9  N   UNL d   1      60.747  -3.946  28.965  0.00  0.00    -0.190 NA
ATOM     10  C   UNL d   1      59.358  -4.316  28.541  0.00  0.00     0.021 A 
ATOM     11  C   UNL d   1      58.584  -4.027  28.455  0.00  0.00     0.002 A 
ATOM     12  C   UNL d   1      58.415  -3.245  28.654  0.00  0.00     0.015 A 
ENDBRANCH   1   4
BRANCH   1  13
ATOM     13  N   UNL d   1      58.671  -1.181  29.336  0.00  0.00    -0.158 NA
BRANCH  13  14
ATOM     14  C   UNL d   1      58.409  -0.852  29.739  0.00  0.00     0.100 A 
ATOM     15  C   UNL d   1      58.453   0.020  29.763  0.00  0.00     0.083 A 
ATOM     16  C   UNL d   1      58.036   0.348  30.386  0.00  0.00     0.014 A 
ATOM     17  C   UNL d   1      57.604  -0.094  30.955  0.00  0.00     0.035 A 
ATOM     18  C   UNL d   1      57.588  -0.914  30.898  0.00  0.00     0.008 A 
ATOM     19 BR   UNL d   1      57.197   0.302  31.572  0.00  0.00    -0.049 Br
ATOM     20  C   UNL d   1      58.011  -1.297  30.260  0.00  0.00     0.021 A 
BRANCH  15  21
ATOM     21  C   UNL d   1      58.871   0.458  29.213  0.00  0.00     0.212 C 
ATOM     22  O   UNL d   1      59.675   0.682  29.368  0.00  0.00    -0.644 OA
ATOM     23  O   UNL d   1      58.508   0.681  28.509  0.00  0.00    -0.644 OA
ENDBRANCH  15  21
ENDBRANCH  13  14
ENDBRANCH   1  13
TORSDOF 4
ENDMDL
MODEL 5
REMARK VINA RESULT:       0.1      9.217      9.939
REMARK  4 active torsions:
REMARK  status: ('A' for Active; 'I' for Inactive)
REMARK    1  A    between atoms: C_2  and  S_1 
REMARK    2  A    between atoms: N_5  and  S_1 
REMARK    3  A    between atoms: C_11  and  C_4 
REMARK    4  A    between atoms: C_9  and  N_5 
ROOT
ATOM      1  S   UNL d   1      59.810  -9.230  33.881  0.00  0.00     0.287 S 
ATOM      2  O   UNL d   1      60.395  -9.818  33.828  0.00  0.00    -0.198 OA
ATOM      3  O   UNL d   1      59.217  -8.638  33.923  0.00  0.00    -0.198 OA
ENDROOT
BRANCH   1   4
ATOM      4  C   UNL d   1      59.917  -9.162  34.701  0.00  0.00     0.125 A 
ATOM      5  C   UNL d   1      60.370  -8.537  34.998  0.00  0.00     0.121 A 
ATOM      6  N   UNL d   1      60.772  -7.916  34.638  0.00  0.00    -0.190 NA
ATOM      7  C   UNL d   1      60.479  -8.466  35.820  0.00  0.00     0.110 A 
ATOM      8  S   UNL d   1      61.127  -7.464  35.218  0.00  0.00     0.117 SA
ATOM      9  N   UNL d   1      60.945  -7.805  35.948  0.00  0.00    -0.190 NA
ATOM     10  C   UNL d   1      60.140  -9.011  36.328  0.00  0.00     0.021 A 
ATOM     11  C   UNL d   1      59.686  -9.636  36.024  0.00  0.00     0.002 A 
ATOM     12  C   UNL d   1      59.579  -9.706  35.209  0.00  0.00     0.015 A 
ENDBRANCH   1   4
BRANCH   1  13
ATOM     13  N   UNL d   1      59.705  -9.301  33.063  0.00  0.00    -0.158 NA
BRANCH  13  14
ATOM     14  C   UNL d   1      59.299  -9.398  32.656  0.00  0.00     0.100 A 
ATOM     15  C   UNL d   1      59.473  -9.492  31.805  0.00  0.00     0.083 A 
ATOM     16  C   UNL d   1      58.804  -9.622  31.352  0.00  0.00     0.014 A 
ATOM     17  C   UNL d   1      58.022  -9.665  31.656  0.00  0.00     0.035 A 
ATOM     18  C   UNL d   1      57.901  -9.571  32.465  0.00  0.00     0.008 A 
ATOM     19 BR   UNL d   1      57.378  -9.801  31.138  0.00  0.00    -0.049 Br
ATOM     20  C   UNL d   1      58.574  -9.432  32.975  0.00  0.00     0.021 A 
BRANCH  15  21
ATOM     21  C   UNL d   1      60.230  -9.452  31.500  0.00  0.00     0.212 C 
ATOM     22  O   UNL d   1      60.877  -9.814  31.915  0.00  0.00    -0.644 OA
ATOM     23  O   UNL d   1      60.364  -9.059  30.790  0.00  0.00    -0.644 OA
ENDBRANCH  15  21
ENDBRANCH  13  14
ENDBRANCH   1  13
TORSDOF 4
ENDMDL
