MODEL 1
REMARK VINA RESULT:      -4.2      0.000      0.000
REMARK  2 active torsions:
REMARK  status: ('A' for Active; 'I' for Inactive)
REMARK    1  A    between atoms: C_8  and  N_2 
REMARK    2  A    between atoms: N_7  and  C_4 
ROOT
ATOM      1  C   UNL d   1      58.344   0.421  31.787  0.00  0.00     0.358 A 
ATOM      2  N   UNL d   1      57.648   0.078  31.501  0.00  0.00    -0.226 N 
ATOM      3  N   UNL d   1      58.991   0.506  31.293  0.00  0.00    -0.174 NA
ATOM      4  C   UNL d   1      58.951   0.251  30.512  0.00  0.00     0.158 A 
ATOM      5  C   UNL d   1      57.600  -0.180  30.721  0.00  0.00     0.271 A 
ATOM      6  C   UNL d   1      58.256  -0.093  30.226  0.00  0.00     0.099 A 
ATOM      7  O   UNL d   1      58.384   0.678  32.574  0.00  0.00    -0.244 OA
ATOM      8  O   UNL d   1      56.904  -0.524  30.436  0.00  0.00    -0.266 OA
ENDROOT
BRANCH   2   9
ATOM      9  C   UNL d   1      56.995  -0.008  31.998  0.00  0.00     0.071 A 
ATOM     10  C   UNL d   1      56.551   0.654  32.214  0.00  0.00     0.019 A 
ATOM     11  C   UNL d   1      55.902   0.574  32.708  0.00  0.00     0.013 A 
ATOM     12  C   UNL d   1      55.692  -0.174  32.990  0.00  0.00     0.058 A 
ATOM     13  C   UNL d   1      56.136  -0.828  32.773  0.00  0.00     0.013 A 
ATOM     14 CL   UNL d   1      55.044  -0.255  33.482  0.00  0.00    -0.082 Cl
ATOM     15  C   UNL d   1      56.787  -0.750  32.278  0.00  0.00     0.019 A 
ENDBRANCH   2   9
BRANCH   4  16
ATOM     16  N   UNL d   1      59.601   0.335  30.013  0.00  0.00    -0.285 N 
ATOM     17  C   UNL d   1      59.483   0.595  29.237  0.00  0.00     0.108 A 
ATOM     18  C   UNL d   1      60.132   0.681  28.734  0.00  0.00     0.142 A 
ATOM     19  O   UNL d   1      60.902   0.507  29.007  0.00  0.00    -0.300 OA
ATOM     20  C   UNL d   1      60.999   0.249  29.782  0.00  0.00     0.142 A 
ATOM     21  C   UNL d   1      60.351   0.163  30.285  0.00  0.00     0.108 A 
ENDBRANCH   4  16
TORSDOF 2
ENDMDL
MODEL 2
REMARK VINA RESULT:      -3.9      1.466      2.024
REMARK  2 active torsions:
REMARK  status: ('A' for Active; 'I' for Inactive)
REMARK    1  A    between atoms: C_8  and  N_2 
REMARK    2  A    between atoms: N_7  and  C_4 
ROOT
ATOM      1  C   UNL d   1      56.641  -1.110  31.587  0.00  0.00     0.358 A 
ATOM      2  N   UNL d   1      56.844  -0.440  32.027  0.00  0.00    -0.226 N 
ATOM      3  N   UNL d   1      57.096  -1.329  30.942  0.00  0.00    -0.174 NA
ATOM      4  C   UNL d   1      57.754  -0.883  30.729  0.00  0.00     0.158 A 
ATOM      5  C   UNL d   1      57.500   0.011  31.821  0.00  0.00     0.271 A 
ATOM      6  C   UNL d   1      57.956  -0.213  31.169  0.00  0.00     0.099 A 
ATOM      7  O   UNL d   1      55.978  -1.560  31.801  0.00  0.00    -0.244 OA
ATOM      8  O   UNL d   1      57.702   0.682  32.261  0.00  0.00    -0.266 OA
ENDROOT
BRANCH   2   9
ATOM      9  C   UNL d   1      56.386  -0.219  32.677  0.00  0.00     0.071 A 
ATOM     10  C   UNL d   1      56.434  -0.650  33.380  0.00  0.00     0.019 A 
ATOM     11  C   UNL d   1      55.982  -0.435  34.029  0.00  0.00     0.013 A 
ATOM     12  C   UNL d   1      55.476   0.217  33.978  0.00  0.00     0.058 A 
ATOM     13  C   UNL d   1      55.433   0.641  33.277  0.00  0.00     0.013 A 
ATOM     14 CL   UNL d   1      55.025   0.432  34.624  0.00  0.00    -0.082 Cl
ATOM     15  C   UNL d   1      55.885   0.427  32.626  0.00  0.00     0.019 A 
ENDBRANCH   2   9
BRANCH   4  16
ATOM     16  N   UNL d   1      58.212  -1.101  30.081  0.00  0.00    -0.285 N 
ATOM     17  C   UNL d   1      58.502  -0.513  29.576  0.00  0.00     0.108 A 
ATOM     18  C   UNL d   1      58.961  -0.728  28.925  0.00  0.00     0.142 A 
ATOM     19  O   UNL d   1      59.133  -1.532  28.777  0.00  0.00    -0.300 OA
ATOM     20  C   UNL d   1      58.836  -2.102  29.291  0.00  0.00     0.142 A 
ATOM     21  C   UNL d   1      58.376  -1.887  29.942  0.00  0.00     0.108 A 
ENDBRANCH   4  16
TORSDOF 2
ENDMDL
MODEL 3
REMARK VINA RESULT:      -3.8      0.524      1.395
REMARK  2 active torsions:
REMARK  status: ('A' for Active; 'I' for Inactive)
REMARK    1  A    between atoms: C_8  and  N_2 
REMARK    2  A    between atoms: N_7  and  C_4 
ROOT
ATOM      1  C   UNL d   1      57.584  -0.384  30.695  0.00  0.00     0.358 A 
ATOM      2  N   UNL d   1      57.660  -0.034  31.440  0.00  0.00    -0.226 N 
ATOM      3  N   UNL d   1      58.212  -0.370  30.170  0.00  0.00    -0.174 NA
ATOM      4  C   UNL d   1      58.919  -0.008  30.381  0.00  0.00     0.158 A 
ATOM      5  C   UNL d   1      58.364   0.331  31.659  0.00  0.00     0.271 A 
ATOM      6  C   UNL d   1      58.996   0.343  31.126  0.00  0.00     0.099 A 
ATOM      7  O   UNL d   1      56.871  -0.750  30.482  0.00  0.00    -0.244 OA
ATOM      8  O   UNL d   1      58.441   0.682  32.404  0.00  0.00    -0.266 OA
ENDROOT
BRANCH   2   9
ATOM      9  C   UNL d   1      57.028  -0.047  31.970  0.00  0.00     0.071 A 
ATOM     10  C   UNL d   1      56.857  -0.738  32.390  0.00  0.00     0.019 A 
ATOM     11  C   UNL d   1      56.230  -0.758  32.918  0.00  0.00     0.013 A 
ATOM     12  C   UNL d   1      55.768  -0.081  33.029  0.00  0.00     0.058 A 
ATOM     13  C   UNL d   1      55.942   0.602  32.609  0.00  0.00     0.013 A 
ATOM     14 CL   UNL d   1      55.143  -0.099  33.555  0.00  0.00    -0.082 Cl
ATOM     15  C   UNL d   1      56.570   0.623  32.080  0.00  0.00     0.019 A 
ENDBRANCH   2   9
BRANCH   4  16
ATOM     16  N   UNL d   1      59.552   0.008  29.855  0.00  0.00    -0.285 N 
ATOM     17  C   UNL d   1      60.046  -0.653  29.797  0.00  0.00     0.108 A 
ATOM     18  C   UNL d   1      60.681  -0.640  29.271  0.00  0.00     0.142 A 
ATOM     19  O   UNL d   1      60.824   0.034  28.799  0.00  0.00    -0.300 OA
ATOM     20  C   UNL d   1      60.322   0.682  28.870  0.00  0.00     0.142 A 
ATOM     21  C   UNL d   1      59.687   0.670  29.397  0.00  0.00     0.108 A 
ENDBRANCH   4  16
TORSDOF 2
ENDMDL
MODEL 4
REMARK VINA RESULT:      -3.4      1.943      4.424
REMARK  2 active torsions:
REMARK  status: ('A' for Active; 'I' for Inactive)
REMARK    1  A    between atoms: C_8  and  N_2 
REMARK    2  A    between atoms: N_7  and  C_4 
ROOT
ATOM      1  C   UNL d   1      57.600  -0.420  30.575  0.00  0.00     0.358 A 
ATOM      2  N   UNL d   1      58.320  -0.049  30.740  0.00  0.00    -0.226 N 
ATOM      3  N   UNL d   1      57.006  -0.431  31.139  0.00  0.00    -0.174 NA
ATOM      4  C   UNL d   1      57.124  -0.074  31.871  0.00  0.00     0.158 A 
ATOM      5  C   UNL d   1      58.446   0.311  31.469  0.00  0.00     0.271 A 
ATOM      6  C   UNL d   1      57.844   0.297  32.036  0.00  0.00     0.099 A 
ATOM      7  O   UNL d   1      57.480  -0.780  29.838  0.00  0.00    -0.244 OA
ATOM      8  O   UNL d   1      59.166   0.682  31.635  0.00  0.00    -0.266 OA
ENDROOT
BRANCH   2   9
ATOM      9  C   UNL d   1      58.918  -0.037  30.173  0.00  0.00     0.071 A 
ATOM     10  C   UNL d   1      58.887   0.507  29.552  0.00  0.00     0.019 A 
ATOM     11  C   UNL d   1      59.479   0.523  28.985  0.00  0.00     0.013 A 
ATOM     12  C   UNL d   1      60.110  -0.009  29.037  0.00  0.00     0.058 A 
ATOM     13  C   UNL d   1      60.136  -0.547  29.656  0.00  0.00     0.013 A 
ATOM     14 CL   UNL d   1      60.701   0.006  28.473  0.00  0.00    -0.082 Cl
ATOM     15  C   UNL d   1      59.543  -0.564  30.225  0.00  0.00     0.019 A 
ENDBRANCH   2   9
BRANCH   4  16
ATOM     16  N   UNL d   1      56.529  -0.084  32.439  0.00  0.00    -0.285 N 
ATOM     17  C   UNL d   1      56.226   0.633  32.720  0.00  0.00     0.108 A 
ATOM     18  C   UNL d   1      55.629   0.626  33.289  0.00  0.00     0.142 A 
ATOM     19  O   UNL d   1      55.333  -0.098  33.581  0.00  0.00    -0.300 OA
ATOM     20  C   UNL d   1      55.647  -0.801  33.290  0.00  0.00     0.142 A 
ATOM     21  C   UNL d   1      56.243  -0.795  32.720  0.00  0.00     0.108 A 
ENDBRANCH   4  16
TORSDOF 2
ENDMDL
MODEL 5
REMARK VINA RESULT:      -2.7      2.016      4.375
REMARK  2 active torsions:
REMARK  status: ('A' for Active; 'I' for Inactive)
REMARK    1  A    between atoms: C_8  and  N_2 
REMARK    2  A    between atoms: N_7  and  C_4 
ROOT
ATOM      1  C   UNL d   1      57.811   0.432  32.297  0.00  0.00     0.358 A 
ATOM      2  N   UNL d   1      57.426   0.080  31.655  0.00  0.00    -0.226 N 
ATOM      3  N   UNL d   1      57.409   0.551  33.000  0.00  0.00    -0.174 NA
ATOM      4  C   UNL d   1      56.622   0.323  33.070  0.00  0.00     0.158 A 
ATOM      5  C   UNL d   1      56.639  -0.151  31.717  0.00  0.00     0.271 A 
ATOM      6  C   UNL d   1      56.237  -0.029  32.429  0.00  0.00     0.099 A 
ATOM      7  O   UNL d   1      58.605   0.662  32.227  0.00  0.00    -0.244 OA
ATOM      8  O   UNL d   1      56.254  -0.503  31.075  0.00  0.00    -0.266 OA
ENDROOT
BRANCH   2   9
ATOM      9  C   UNL d   1      57.831  -0.041  30.947  0.00  0.00     0.071 A 
ATOM     10  C   UNL d   1      57.946   0.588  30.425  0.00  0.00     0.019 A 
ATOM     11  C   UNL d   1      58.347   0.474  29.719  0.00  0.00     0.013 A 
ATOM     12  C   UNL d   1      58.637  -0.277  29.531  0.00  0.00     0.058 A 
ATOM     13  C   UNL d   1      58.520  -0.899  30.053  0.00  0.00     0.013 A 
ATOM     14 CL   UNL d   1      59.037  -0.392  28.828  0.00  0.00    -0.082 Cl
ATOM     15  C   UNL d   1      58.118  -0.785  30.760  0.00  0.00     0.019 A 
ENDBRANCH   2   9
BRANCH   4  16
ATOM     16  N   UNL d   1      56.216   0.442  33.776  0.00  0.00    -0.285 N 
ATOM     17  C   UNL d   1      55.389   0.440  33.771  0.00  0.00     0.108 A 
ATOM     18  C   UNL d   1      54.978   0.560  34.477  0.00  0.00     0.142 A 
ATOM     19  O   UNL d   1      55.394   0.682  35.191  0.00  0.00    -0.300 OA
ATOM     20  C   UNL d   1      56.217   0.681  35.176  0.00  0.00     0.142 A 
ATOM     21  C   UNL d   1      56.627   0.561  34.470  0.00  0.00     0.108 A 
ENDBRANCH   4  16
TORSDOF 2
ENDMDL
