MODEL 1
REMARK VINA RESULT:      -7.9      0.000      0.000
REMARK  2 active torsions:
REMARK  status: ('A' for Active; 'I' for Inactive)
REMARK    1  A    between atoms: C_6  and  C_1 
REMARK    2  A    between atoms: N_8  and  C_6 
ROOT
ATOM      1  C   UNL d   1     -48.157  13.594  22.263  0.00  0.00     0.090 C 
ENDROOT
BRANCH   1   2
ATOM      2  C   UNL d   1     -48.884  13.984  22.213  0.00  0.00     0.133 A 
ATOM      3  C   UNL d   1     -49.416  13.772  21.618  0.00  0.00     0.289 A 
ATOM      4  N   UNL d   1     -50.144  14.156  21.560  0.00  0.00    -0.151 NA
ATOM      5  O   UNL d   1     -49.226  13.176  21.076  0.00  0.00    -0.265 OA
ATOM      6  C   UNL d   1     -50.335  14.752  22.101  0.00  0.00     0.374 A 
ATOM      7  N   UNL d   1     -49.804  14.964  22.696  0.00  0.00    -0.151 NA
ATOM      8  O   UNL d   1     -51.064  15.136  22.044  0.00  0.00    -0.242 OA
ATOM      9  C   UNL d   1     -49.068  14.571  22.749  0.00  0.00     0.289 A 
ATOM     10  O   UNL d   1     -48.539  14.778  23.337  0.00  0.00    -0.265 OA
ENDBRANCH   1   2
BRANCH   1  11
ATOM     11  N   UNL d   1     -48.085  12.912  22.719  0.00  0.00    -0.304 N 
ATOM     12  C   UNL d   1     -47.375  12.545  22.943  0.00  0.00     0.064 A 
ATOM     13  C   UNL d   1     -47.568  11.884  23.393  0.00  0.00     0.018 A 
ATOM     14  C   UNL d   1     -46.591  12.732  22.791  0.00  0.00     0.018 A 
ATOM     15  C   UNL d   1     -46.966  11.403  23.697  0.00  0.00     0.002 A 
ATOM     16  C   UNL d   1     -48.384  11.835  23.453  0.00  0.00     0.021 A 
ATOM     17  C   UNL d   1     -46.179  11.592  23.544  0.00  0.00     0.000 A 
ATOM     18  C   UNL d   1     -45.993  12.257  23.091  0.00  0.00     0.002 A 
ATOM     19  C   UNL d   1     -48.713  12.468  23.038  0.00  0.00     0.080 A 
ENDBRANCH   1  11
TORSDOF 2
ENDMDL
MODEL 2
REMARK VINA RESULT:      -7.7      1.654      2.467
REMARK  2 active torsions:
REMARK  status: ('A' for Active; 'I' for Inactive)
REMARK    1  A    between atoms: C_6  and  C_1 
REMARK    2  A    between atoms: N_8  and  C_6 
ROOT
ATOM      1  C   UNL d   1     -48.110  12.399  22.304  0.00  0.00     0.090 C 
ENDROOT
BRANCH   1   2
ATOM      2  C   UNL d   1     -48.853  12.202  22.607  0.00  0.00     0.133 A 
ATOM      3  C   UNL d   1     -48.901  11.762  23.304  0.00  0.00     0.289 A 
ATOM      4  N   UNL d   1     -49.640  11.561  23.614  0.00  0.00    -0.151 NA
ATOM      5  O   UNL d   1     -48.215  11.520  23.698  0.00  0.00    -0.265 OA
ATOM      6  C   UNL d   1     -50.326  11.802  23.221  0.00  0.00     0.374 A 
ATOM      7  N   UNL d   1     -50.278  12.242  22.524  0.00  0.00    -0.151 NA
ATOM      8  O   UNL d   1     -51.064  11.601  23.531  0.00  0.00    -0.242 OA
ATOM      9  C   UNL d   1     -49.528  12.443  22.216  0.00  0.00     0.289 A 
ATOM     10  O   UNL d   1     -49.476  12.878  21.526  0.00  0.00    -0.265 OA
ENDBRANCH   1   2
BRANCH   1  11
ATOM     11  N   UNL d   1     -47.756  13.113  22.512  0.00  0.00    -0.304 N 
ATOM     12  C   UNL d   1     -46.949  13.296  22.449  0.00  0.00     0.064 A 
ATOM     13  C   UNL d   1     -46.846  14.066  22.719  0.00  0.00     0.018 A 
ATOM     14  C   UNL d   1     -46.307  12.860  22.181  0.00  0.00     0.018 A 
ATOM     15  C   UNL d   1     -46.090  14.405  22.722  0.00  0.00     0.002 A 
ATOM     16  C   UNL d   1     -47.574  14.364  22.949  0.00  0.00     0.021 A 
ATOM     17  C   UNL d   1     -45.447  13.965  22.453  0.00  0.00     0.000 A 
ATOM     18  C   UNL d   1     -45.557  13.192  22.183  0.00  0.00     0.002 A 
ATOM     19  C   UNL d   1     -48.144  13.780  22.825  0.00  0.00     0.080 A 
ENDBRANCH   1  11
TORSDOF 2
ENDMDL
MODEL 3
REMARK VINA RESULT:      -7.4      1.849      3.899
REMARK  2 active torsions:
REMARK  status: ('A' for Active; 'I' for Inactive)
REMARK    1  A    between atoms: C_6  and  C_1 
REMARK    2  A    between atoms: N_8  and  C_6 
ROOT
ATOM      1  C   UNL d   1     -48.344  12.624  23.423  0.00  0.00     0.090 C 
ENDROOT
BRANCH   1   2
ATOM      2  C   UNL d   1     -47.595  12.281  23.492  0.00  0.00     0.133 A 
ATOM      3  C   UNL d   1     -46.925  12.758  23.422  0.00  0.00     0.289 A 
ATOM      4  N   UNL d   1     -46.173  12.424  23.489  0.00  0.00    -0.151 NA
ATOM      5  O   UNL d   1     -46.998  13.571  23.283  0.00  0.00    -0.265 OA
ATOM      6  C   UNL d   1     -46.098  11.612  23.627  0.00  0.00     0.374 A 
ATOM      7  N   UNL d   1     -46.768  11.135  23.698  0.00  0.00    -0.151 NA
ATOM      8  O   UNL d   1     -45.346  11.278  23.695  0.00  0.00    -0.242 OA
ATOM      9  C   UNL d   1     -47.526  11.480  23.629  0.00  0.00     0.289 A 
ATOM     10  O   UNL d   1     -48.192  11.011  23.698  0.00  0.00    -0.265 OA
ENDBRANCH   1   2
BRANCH   1  11
ATOM     11  N   UNL d   1     -48.713  12.665  22.688  0.00  0.00    -0.304 N 
ATOM     12  C   UNL d   1     -49.496  12.898  22.545  0.00  0.00     0.064 A 
ATOM     13  C   UNL d   1     -49.625  12.855  21.734  0.00  0.00     0.018 A 
ATOM     14  C   UNL d   1     -50.096  13.141  23.050  0.00  0.00     0.018 A 
ATOM     15  C   UNL d   1     -50.366  13.058  21.423  0.00  0.00     0.002 A 
ATOM     16  C   UNL d   1     -48.936  12.599  21.371  0.00  0.00     0.021 A 
ATOM     17  C   UNL d   1     -50.967  13.301  21.932  0.00  0.00     0.000 A 
ATOM     18  C   UNL d   1     -50.830  13.342  22.746  0.00  0.00     0.002 A 
ATOM     19  C   UNL d   1     -48.365  12.479  21.954  0.00  0.00     0.080 A 
ENDBRANCH   1  11
TORSDOF 2
ENDMDL
