MODEL 1
REMARK VINA RESULT:      -4.8      0.000      0.000
REMARK  6 active torsions:
REMARK  status: ('A' for Active; 'I' for Inactive)
REMARK    1  A    between atoms: C_10  and  N_1 
REMARK    2  A    between atoms: S_8  and  C_6 
REMARK    3  A    between atoms: C_13  and  S_8 
REMARK    4  A    between atoms: C_11  and  C_13 
REMARK    5  A    between atoms: O_18  and  C_11 
REMARK    6  A    between atoms: C_23  and  O_18 
ROOT
ATOM      1  N   UNL d   1      56.685  -0.630  32.158  0.00  0.00    -0.193 N 
ATOM      2  N   UNL d   1      56.596  -1.410  31.931  0.00  0.00    -0.058 NA
ATOM      3  C   UNL d   1      57.202  -0.274  31.628  0.00  0.00     0.188 A 
ATOM      4  C   UNL d   1      57.426  -0.845  31.077  0.00  0.00     0.164 A 
ATOM      5  N   UNL d   1      57.043  -1.544  31.276  0.00  0.00    -0.125 NA
ATOM      6  C   UNL d   1      57.941  -0.659  30.475  0.00  0.00     0.135 A 
ATOM      7  N   UNL d   1      57.494   0.485  31.577  0.00  0.00    -0.203 NA
ATOM      8  N   UNL d   1      58.241   0.110  30.417  0.00  0.00    -0.216 NA
ATOM      9  C   UNL d   1      58.017   0.682  30.968  0.00  0.00     0.201 A 
ENDROOT
BRANCH   6  10
ATOM     10  S   UNL d   1      58.165  -1.231  29.924  0.00  0.00    -0.061 SA
BRANCH  10  11
ATOM     11  C   UNL d   1      58.695  -1.049  29.334  0.00  0.00     0.094 C 
ATOM     12  C   UNL d   1      58.583  -0.372  28.885  0.00  0.00     0.013 C 
BRANCH  11  13
ATOM     13  C   UNL d   1      59.338  -1.546  29.193  0.00  0.00     0.306 C 
ATOM     14  O   UNL d   1      60.105  -1.289  29.329  0.00  0.00    -0.258 OA
BRANCH  13  15
ATOM     15  O   UNL d   1      59.203  -2.313  28.913  0.00  0.00    -0.271 OA
BRANCH  15  16
ATOM     16  C   UNL d   1      59.837  -2.829  28.804  0.00  0.00     0.126 C 
ATOM     17  C   UNL d   1      59.712  -3.570  28.457  0.00  0.00     0.029 C 
ENDBRANCH  15  16
ENDBRANCH  13  15
ENDBRANCH  11  13
ENDBRANCH  10  11
ENDBRANCH   6  10
BRANCH   1  18
ATOM     18  C   UNL d   1      56.309  -0.303  32.803  0.00  0.00     0.086 A 
ATOM     19  C   UNL d   1      55.485  -0.338  32.862  0.00  0.00     0.022 A 
ATOM     20  C   UNL d   1      55.100  -0.009  33.513  0.00  0.00     0.031 A 
ATOM     21  C   UNL d   1      55.529   0.353  34.106  0.00  0.00     0.140 A 
ATOM     22  C   UNL d   1      56.353   0.388  34.048  0.00  0.00     0.031 A 
ATOM     23  F   UNL d   1      55.102   0.682  34.763  0.00  0.00    -0.204 F 
ATOM     24  C   UNL d   1      56.745   0.064  33.404  0.00  0.00     0.022 A 
ENDBRANCH   1  18
TORSDOF 6
ENDMDL
MODEL 2
REMARK VINA RESULT:      -2.8      0.873      1.211
REMARK  6 active torsions:
REMARK  status: ('A' for Active; 'I' for Inactive)
REMARK    1  A    between atoms: C_10  and  N_1 
REMARK    2  A    between atoms: S_8  and  C_6 
REMARK    3  A    between atoms: C_13  and  S_8 
REMARK    4  A    between atoms: C_11  and  C_13 
REMARK    5  A    between atoms: O_18  and  C_11 
REMARK    6  A    between atoms: C_23  and  O_18 
ROOT
ATOM      1  N   UNL d   1      56.257  -0.154  32.776  0.00  0.00    -0.193 N 
ATOM      2  N   UNL d   1      55.889  -0.653  32.244  0.00  0.00    -0.058 NA
ATOM      3  C   UNL d   1      56.976   0.072  32.449  0.00  0.00     0.188 A 
ATOM      4  C   UNL d   1      57.040  -0.294  31.713  0.00  0.00     0.164 A 
ATOM      5  N   UNL d   1      56.360  -0.741  31.598  0.00  0.00    -0.125 NA
ATOM      6  C   UNL d   1      57.698  -0.177  31.248  0.00  0.00     0.135 A 
ATOM      7  N   UNL d   1      57.570   0.557  32.721  0.00  0.00    -0.203 NA
ATOM      8  N   UNL d   1      58.306   0.315  31.519  0.00  0.00    -0.216 NA
ATOM      9  C   UNL d   1      58.242   0.681  32.255  0.00  0.00     0.201 A 
ENDROOT
BRANCH   6  10
ATOM     10  S   UNL d   1      57.762  -0.543  30.512  0.00  0.00    -0.061 SA
BRANCH  10  11
ATOM     11  C   UNL d   1      58.411  -0.408  30.039  0.00  0.00     0.094 C 
ATOM     12  C   UNL d   1      58.862   0.266  30.157  0.00  0.00     0.013 C 
BRANCH  11  13
ATOM     13  C   UNL d   1      58.607  -0.950  29.449  0.00  0.00     0.306 C 
ATOM     14  O   UNL d   1      58.194  -0.966  28.741  0.00  0.00    -0.258 OA
BRANCH  13  15
ATOM     15  O   UNL d   1      59.230  -1.480  29.577  0.00  0.00    -0.271 OA
BRANCH  15  16
ATOM     16  C   UNL d   1      59.405  -2.053  29.010  0.00  0.00     0.126 C 
ATOM     17  C   UNL d   1      59.443  -2.851  29.227  0.00  0.00     0.029 C 
ENDBRANCH  15  16
ENDBRANCH  13  15
ENDBRANCH  11  13
ENDBRANCH  10  11
ENDBRANCH   6  10
BRANCH   1  18
ATOM     18  C   UNL d   1      55.934   0.055  33.494  0.00  0.00     0.086 A 
ATOM     19  C   UNL d   1      56.362  -0.063  34.191  0.00  0.00     0.022 A 
ATOM     20  C   UNL d   1      56.038   0.148  34.920  0.00  0.00     0.031 A 
ATOM     21  C   UNL d   1      55.291   0.475  34.959  0.00  0.00     0.140 A 
ATOM     22  C   UNL d   1      54.862   0.594  34.263  0.00  0.00     0.031 A 
ATOM     23  F   UNL d   1      54.987   0.681  35.726  0.00  0.00    -0.204 F 
ATOM     24  C   UNL d   1      55.176   0.387  33.533  0.00  0.00     0.022 A 
ENDBRANCH   1  18
TORSDOF 6
ENDMDL
MODEL 3
REMARK VINA RESULT:      -2.4      8.974     10.099
REMARK  6 active torsions:
REMARK  status: ('A' for Active; 'I' for Inactive)
REMARK    1  A    between atoms: C_10  and  N_1 
REMARK    2  A    between atoms: S_8  and  C_6 
REMARK    3  A    between atoms: C_13  and  S_8 
REMARK    4  A    between atoms: C_11  and  C_13 
REMARK    5  A    between atoms: O_18  and  C_11 
REMARK    6  A    between atoms: C_23  and  O_18 
ROOT
ATOM      1  N   UNL d   1      58.229  -9.817  31.969  0.00  0.00    -0.193 N 
ATOM      2  N   UNL d   1      57.667  -9.816  32.563  0.00  0.00    -0.058 NA
ATOM      3  C   UNL d   1      58.969  -9.817  32.325  0.00  0.00     0.188 A 
ATOM      4  C   UNL d   1      58.851  -9.817  33.142  0.00  0.00     0.164 A 
ATOM      5  N   UNL d   1      58.040  -9.817  33.275  0.00  0.00    -0.125 NA
ATOM      6  C   UNL d   1      59.486  -9.818  33.651  0.00  0.00     0.135 A 
ATOM      7  N   UNL d   1      59.723  -9.817  32.018  0.00  0.00    -0.203 NA
ATOM      8  N   UNL d   1      60.255  -9.818  33.345  0.00  0.00    -0.216 NA
ATOM      9  C   UNL d   1      60.373  -9.818  32.528  0.00  0.00     0.201 A 
ENDROOT
BRANCH   6  10
ATOM     10  S   UNL d   1      59.368  -9.818  34.468  0.00  0.00    -0.061 SA
BRANCH  10  11
ATOM     11  C   UNL d   1      59.953  -9.552  34.968  0.00  0.00     0.094 C 
ATOM     12  C   UNL d   1      60.733  -9.755  34.820  0.00  0.00     0.013 C 
BRANCH  11  13
ATOM     13  C   UNL d   1      59.754  -9.083  35.618  0.00  0.00     0.306 C 
ATOM     14  O   UNL d   1      59.381  -9.408  36.271  0.00  0.00    -0.258 OA
BRANCH  13  15
ATOM     15  O   UNL d   1      59.936  -8.276  35.604  0.00  0.00    -0.271 OA
BRANCH  15  16
ATOM     16  C   UNL d   1      59.878  -7.830  36.295  0.00  0.00     0.126 C 
ATOM     17  C   UNL d   1      59.808  -7.006  36.251  0.00  0.00     0.029 C 
ENDBRANCH  15  16
ENDBRANCH  13  15
ENDBRANCH  11  13
ENDBRANCH  10  11
ENDBRANCH   6  10
BRANCH   1  18
ATOM     18  C   UNL d   1      58.044  -9.816  31.175  0.00  0.00     0.086 A 
ATOM     19  C   UNL d   1      57.253  -9.818  30.936  0.00  0.00     0.022 A 
ATOM     20  C   UNL d   1      57.061  -9.818  30.133  0.00  0.00     0.031 A 
ATOM     21  C   UNL d   1      57.651  -9.816  29.569  0.00  0.00     0.140 A 
ATOM     22  C   UNL d   1      58.442  -9.815  29.807  0.00  0.00     0.031 A 
ATOM     23  F   UNL d   1      57.418  -9.816  28.751  0.00  0.00    -0.204 F 
ATOM     24  C   UNL d   1      58.643  -9.815  30.603  0.00  0.00     0.022 A 
ENDBRANCH   1  18
TORSDOF 6
ENDMDL
