MODEL 1
REMARK VINA RESULT:      12.9      0.000      0.000
REMARK  2 active torsions:
REMARK  status: ('A' for Active; 'I' for Inactive)
REMARK    1  A    between atoms: C_6  and  C_3 
REMARK    2  A    between atoms: O_13  and  C_10 
ROOT
ATOM      1  C   UNL d   1      58.982  49.706  50.358  0.00  0.00     0.018 A 
ATOM      2  C   UNL d   1      58.491  49.705  51.007  0.00  0.00     0.004 A 
ATOM      3  C   UNL d   1      58.661  49.707  49.605  0.00  0.00     0.004 A 
ATOM      4  C   UNL d   1      57.352  49.704  50.146  0.00  0.00     0.094 A 
ATOM      5  C   UNL d   1      57.842  49.706  49.497  0.00  0.00     0.024 A 
ATOM      6  C   UNL d   1      57.669  49.704  50.917  0.00  0.00     0.024 A 
ENDROOT
BRANCH   1   7
ATOM      7  C   UNL d   1      59.644  49.706  50.859  0.00  0.00     0.090 A 
ATOM      8  N   UNL d   1      59.898  49.707  51.650  0.00  0.00    -0.219 NA
ATOM      9  C   UNL d   1      60.721  49.707  51.634  0.00  0.00     0.215 A 
ATOM     10  S   UNL d   1      60.954  49.707  50.870  0.00  0.00    -0.045 SA
ATOM     11  N   UNL d   1      61.249  49.707  52.286  0.00  0.00    -0.120 N 
ATOM     12  C   UNL d   1      60.308  49.707  50.382  0.00  0.00     0.058 A 
ENDBRANCH   1   7
BRANCH   4  13
ATOM     13  O   UNL d   1      56.518  49.704  50.047  0.00  0.00    -0.328 OA
ATOM     14  C   UNL d   1      56.186  49.702  49.285  0.00  0.00     0.181 C 
ENDBRANCH   4  13
TORSDOF 2
ENDMDL
MODEL 2
REMARK VINA RESULT:      14.5      2.151      3.409
REMARK  2 active torsions:
REMARK  status: ('A' for Active; 'I' for Inactive)
REMARK    1  A    between atoms: C_6  and  C_3 
REMARK    2  A    between atoms: O_13  and  C_10 
ROOT
ATOM      1  C   UNL d   1      59.190  49.683  50.556  0.00  0.00     0.018 A 
ATOM      2  C   UNL d   1      59.156  49.700  51.369  0.00  0.00     0.004 A 
ATOM      3  C   UNL d   1      59.917  49.673  50.180  0.00  0.00     0.004 A 
ATOM      4  C   UNL d   1      60.582  49.697  51.429  0.00  0.00     0.094 A 
ATOM      5  C   UNL d   1      60.617  49.680  50.617  0.00  0.00     0.024 A 
ATOM      6  C   UNL d   1      59.847  49.707  51.822  0.00  0.00     0.024 A 
ENDROOT
BRANCH   1   7
ATOM      7  C   UNL d   1      58.360  49.684  50.521  0.00  0.00     0.090 A 
ATOM      8  N   UNL d   1      57.661  49.676  50.970  0.00  0.00    -0.219 NA
ATOM      9  C   UNL d   1      57.037  49.688  50.434  0.00  0.00     0.215 A 
ATOM     10  S   UNL d   1      57.343  49.702  49.696  0.00  0.00    -0.045 SA
ATOM     11  N   UNL d   1      56.215  49.685  50.600  0.00  0.00    -0.120 N 
ATOM     12  C   UNL d   1      58.153  49.700  49.731  0.00  0.00     0.058 A 
ENDBRANCH   1   7
BRANCH   4  13
ATOM     13  O   UNL d   1      61.289  49.705  51.884  0.00  0.00    -0.328 OA
ATOM     14  C   UNL d   1      61.254  49.675  52.713  0.00  0.00     0.181 C 
ENDBRANCH   4  13
TORSDOF 2
ENDMDL
