MODEL 1
REMARK VINA RESULT:      -6.2      0.000      0.000
REMARK  3 active torsions:
REMARK  status: ('A' for Active; 'I' for Inactive)
REMARK    1  A    between atoms: C_5  and  C_1 
REMARK    2  A    between atoms: C_8  and  N_2 
REMARK    3  A    between atoms: C_10  and  C_8 
ROOT
ATOM      1  C   UNL d   1     -41.538-122.706 -53.006  0.00  0.00     0.166 A 
ATOM      2  N   UNL d   1     -41.261-123.149 -51.440  0.00  0.00    -0.302 N 
ATOM      3  C   UNL d   1     -41.434-122.129 -52.425  0.00  0.00     0.058 A 
ATOM      4  C   UNL d   1     -41.504-123.504 -52.804  0.00  0.00     0.058 A 
ATOM      5  C   UNL d   1     -41.365-123.727 -52.020  0.00  0.00     0.083 A 
ATOM      6  C   UNL d   1     -41.295-122.351 -51.642  0.00  0.00     0.083 A 
ATOM      7  O   UNL d   1     -41.643-123.355 -53.590  0.00  0.00    -0.290 OA
ENDROOT
BRANCH   1   8
ATOM      8  C   UNL d   1     -41.676-122.485 -53.787  0.00  0.00     0.036 A 
ATOM      9  C   UNL d   1     -41.129-122.699 -54.384  0.00  0.00     0.003 A 
ATOM     10  C   UNL d   1     -41.277-122.472 -55.159  0.00  0.00     0.000 A 
ATOM     11  C   UNL d   1     -41.957-122.038 -55.354  0.00  0.00     0.000 A 
ATOM     12  C   UNL d   1     -42.492-121.829 -54.773  0.00  0.00     0.000 A 
ATOM     13  C   UNL d   1     -42.356-122.051 -53.981  0.00  0.00     0.003 A 
ENDBRANCH   1   8
BRANCH   2  14
ATOM     14  C   UNL d   1     -41.123-123.371 -50.658  0.00  0.00     0.080 C 
BRANCH  14  15
ATOM     15  C   UNL d   1     -41.735-123.335 -50.104  0.00  0.00     0.018 A 
ATOM     16  C   UNL d   1     -42.397-123.817 -50.190  0.00  0.00     0.002 A 
ATOM     17  C   UNL d   1     -43.008-123.780 -49.636  0.00  0.00     0.000 A 
ATOM     18  C   UNL d   1     -42.960-123.263 -48.999  0.00  0.00     0.000 A 
ATOM     19  C   UNL d   1     -42.297-122.780 -48.914  0.00  0.00     0.000 A 
ATOM     20  C   UNL d   1     -41.683-122.814 -49.466  0.00  0.00     0.002 A 
ENDBRANCH  14  15
ENDBRANCH   2  14
TORSDOF 3
ENDMDL
MODEL 2
REMARK VINA RESULT:      -3.4      0.917      1.645
REMARK  3 active torsions:
REMARK  status: ('A' for Active; 'I' for Inactive)
REMARK    1  A    between atoms: C_5  and  C_1 
REMARK    2  A    between atoms: C_8  and  N_2 
REMARK    3  A    between atoms: C_10  and  C_8 
ROOT
ATOM      1  C   UNL d   1     -41.371-122.839 -51.619  0.00  0.00     0.166 A 
ATOM      2  N   UNL d   1     -41.214-123.214 -50.020  0.00  0.00    -0.302 N 
ATOM      3  C   UNL d   1     -41.344-122.238 -51.054  0.00  0.00     0.058 A 
ATOM      4  C   UNL d   1     -41.320-123.627 -51.385  0.00  0.00     0.058 A 
ATOM      5  C   UNL d   1     -41.242-123.816 -50.585  0.00  0.00     0.083 A 
ATOM      6  C   UNL d   1     -41.265-122.426 -50.254  0.00  0.00     0.083 A 
ATOM      7  O   UNL d   1     -41.396-123.512 -52.186  0.00  0.00    -0.290 OA
ENDROOT
BRANCH   1   8
ATOM      8  C   UNL d   1     -41.450-122.651 -52.418  0.00  0.00     0.036 A 
ATOM      9  C   UNL d   1     -41.817-121.932 -52.643  0.00  0.00     0.003 A 
ATOM     10  C   UNL d   1     -41.890-121.756 -53.441  0.00  0.00     0.000 A 
ATOM     11  C   UNL d   1     -41.605-122.278 -54.020  0.00  0.00     0.000 A 
ATOM     12  C   UNL d   1     -41.247-122.979 -53.803  0.00  0.00     0.000 A 
ATOM     13  C   UNL d   1     -41.165-123.173 -52.997  0.00  0.00     0.003 A 
ENDBRANCH   1   8
BRANCH   2  14
ATOM     14  C   UNL d   1     -41.136-123.403 -49.221  0.00  0.00     0.080 C 
BRANCH  14  15
ATOM     15  C   UNL d   1     -41.796-123.383 -48.725  0.00  0.00     0.018 A 
ATOM     16  C   UNL d   1     -41.781-122.931 -48.037  0.00  0.00     0.002 A 
ATOM     17  C   UNL d   1     -42.441-122.911 -47.543  0.00  0.00     0.000 A 
ATOM     18  C   UNL d   1     -43.116-123.341 -47.733  0.00  0.00     0.000 A 
ATOM     19  C   UNL d   1     -43.131-123.794 -48.422  0.00  0.00     0.000 A 
ATOM     20  C   UNL d   1     -42.471-123.816 -48.920  0.00  0.00     0.002 A 
ENDBRANCH  14  15
ENDBRANCH   2  14
TORSDOF 3
ENDMDL
