MODEL 1
REMARK VINA RESULT:      -4.7      0.000      0.000
REMARK  1 active torsions:
REMARK  status: ('A' for Active; 'I' for Inactive)
REMARK    1  A    between atoms: C_10  and  C_4 
ROOT
ATOM      1  C   UNL d   1      58.473   0.195  30.650  0.00  0.00     0.186 A 
ATOM      2  N   UNL d   1      58.746   0.173  29.859  0.00  0.00    -0.193 N 
ATOM      3  N   UNL d   1      59.000   0.364  31.262  0.00  0.00    -0.214 NA
ATOM      4  C   UNL d   1      57.660   0.025  30.630  0.00  0.00     0.140 A 
ATOM      5  N   UNL d   1      58.103  -0.008  29.366  0.00  0.00    -0.058 NA
ATOM      6  N   UNL d   1      57.437  -0.098  29.851  0.00  0.00    -0.127 NA
ATOM      7  C   UNL d   1      59.797   0.513  31.101  0.00  0.00     0.142 A 
ATOM      8  C   UNL d   1      60.062   0.490  30.315  0.00  0.00     0.046 A 
ATOM      9  C   UNL d   1      59.540   0.321  29.701  0.00  0.00     0.088 A 
ATOM     10 CL   UNL d   1      60.322   0.682  31.712  0.00  0.00    -0.061 Cl
ATOM     11  C   UNL d   1      60.856   0.638  30.157  0.00  0.00     0.004 A 
ATOM     12  C   UNL d   1      59.817   0.302  28.923  0.00  0.00     0.019 A 
ATOM     13  C   UNL d   1      61.130   0.618  29.382  0.00  0.00     0.000 A 
ATOM     14  C   UNL d   1      60.610   0.450  28.765  0.00  0.00     0.002 A 
ENDROOT
BRANCH   4  15
ATOM     15  C   UNL d   1      57.172  -0.011  31.285  0.00  0.00     0.022 A 
ATOM     16  C   UNL d   1      57.003  -0.741  31.632  0.00  0.00     0.002 A 
ATOM     17  C   UNL d   1      56.510  -0.779  32.294  0.00  0.00     0.000 A 
ATOM     18  C   UNL d   1      56.187  -0.087  32.606  0.00  0.00     0.000 A 
ATOM     19  C   UNL d   1      56.357   0.644  32.257  0.00  0.00     0.000 A 
ATOM     20  C   UNL d   1      55.695  -0.124  33.265  0.00  0.00     0.000 C 
ATOM     21  C   UNL d   1      56.848   0.682  31.598  0.00  0.00     0.002 A 
ENDBRANCH   4  15
TORSDOF 1
ENDMDL
MODEL 2
REMARK VINA RESULT:      -3.2      1.071      1.600
REMARK  1 active torsions:
REMARK  status: ('A' for Active; 'I' for Inactive)
REMARK    1  A    between atoms: C_10  and  C_4 
ROOT
ATOM      1  C   UNL d   1      58.230   0.170  30.954  0.00  0.00     0.186 A 
ATOM      2  N   UNL d   1      59.019   0.430  30.864  0.00  0.00    -0.193 N 
ATOM      3  N   UNL d   1      57.813  -0.112  30.301  0.00  0.00    -0.214 NA
ATOM      4  C   UNL d   1      58.033   0.266  31.756  0.00  0.00     0.140 A 
ATOM      5  N   UNL d   1      59.298   0.682  31.605  0.00  0.00    -0.058 NA
ATOM      6  N   UNL d   1      58.682   0.576  32.149  0.00  0.00    -0.127 NA
ATOM      7  C   UNL d   1      58.169  -0.140  29.556  0.00  0.00     0.142 A 
ATOM      8  C   UNL d   1      58.952   0.119  29.471  0.00  0.00     0.046 A 
ATOM      9  C   UNL d   1      59.372   0.402  30.121  0.00  0.00     0.088 A 
ATOM     10 CL   UNL d   1      57.751  -0.422  28.904  0.00  0.00    -0.061 Cl
ATOM     11  C   UNL d   1      59.304   0.091  28.729  0.00  0.00     0.004 A 
ATOM     12  C   UNL d   1      60.152   0.657  30.024  0.00  0.00     0.019 A 
ATOM     13  C   UNL d   1      60.081   0.346  28.634  0.00  0.00     0.000 A 
ATOM     14  C   UNL d   1      60.504   0.629  29.281  0.00  0.00     0.002 A 
ENDROOT
BRANCH   4  15
ATOM     15  C   UNL d   1      57.310   0.079  32.089  0.00  0.00     0.022 A 
ATOM     16  C   UNL d   1      57.099  -0.712  32.193  0.00  0.00     0.002 A 
ATOM     17  C   UNL d   1      56.368  -0.903  32.529  0.00  0.00     0.000 A 
ATOM     18  C   UNL d   1      55.851  -0.301  32.759  0.00  0.00     0.000 A 
ATOM     19  C   UNL d   1      56.065   0.492  32.652  0.00  0.00     0.000 A 
ATOM     20  C   UNL d   1      55.123  -0.491  33.093  0.00  0.00     0.000 C 
ATOM     21  C   UNL d   1      56.793   0.681  32.318  0.00  0.00     0.002 A 
ENDBRANCH   4  15
TORSDOF 1
ENDMDL
MODEL 3
REMARK VINA RESULT:      -2.9      1.991      4.329
REMARK  1 active torsions:
REMARK  status: ('A' for Active; 'I' for Inactive)
REMARK    1  A    between atoms: C_10  and  C_4 
ROOT
ATOM      1  C   UNL d   1      57.281  -0.355  31.752  0.00  0.00     0.186 A 
ATOM      2  N   UNL d   1      57.290   0.169  32.405  0.00  0.00    -0.193 N 
ATOM      3  N   UNL d   1      56.691  -0.929  31.695  0.00  0.00    -0.214 NA
ATOM      4  C   UNL d   1      57.928  -0.154  31.271  0.00  0.00     0.140 A 
ATOM      5  N   UNL d   1      57.938   0.682  32.318  0.00  0.00    -0.058 NA
ATOM      6  N   UNL d   1      58.325   0.475  31.616  0.00  0.00    -0.127 NA
ATOM      7  C   UNL d   1      56.109  -0.992  32.278  0.00  0.00     0.142 A 
ATOM      8  C   UNL d   1      56.122  -0.470  32.922  0.00  0.00     0.046 A 
ATOM      9  C   UNL d   1      56.709   0.105  32.983  0.00  0.00     0.088 A 
ATOM     10 CL   UNL d   1      55.520  -1.566  32.220  0.00  0.00    -0.061 Cl
ATOM     11  C   UNL d   1      55.541  -0.534  33.501  0.00  0.00     0.004 A 
ATOM     12  C   UNL d   1      56.712   0.619  33.630  0.00  0.00     0.019 A 
ATOM     13  C   UNL d   1      55.545  -0.022  34.145  0.00  0.00     0.000 A 
ATOM     14  C   UNL d   1      56.131   0.555  34.209  0.00  0.00     0.002 A 
ENDROOT
BRANCH   4  15
ATOM     15  C   UNL d   1      58.127  -0.528  30.572  0.00  0.00     0.022 A 
ATOM     16  C   UNL d   1      58.129  -0.102  29.865  0.00  0.00     0.002 A 
ATOM     17  C   UNL d   1      58.331  -0.479  29.157  0.00  0.00     0.000 A 
ATOM     18  C   UNL d   1      58.529  -1.280  29.159  0.00  0.00     0.000 A 
ATOM     19  C   UNL d   1      58.525  -1.705  29.870  0.00  0.00     0.000 A 
ATOM     20  C   UNL d   1      58.729  -1.656  28.455  0.00  0.00     0.000 C 
ATOM     21  C   UNL d   1      58.325  -1.330  30.574  0.00  0.00     0.002 A 
ENDBRANCH   4  15
TORSDOF 1
ENDMDL
MODEL 4
REMARK VINA RESULT:      -1.8      2.281      4.677
REMARK  1 active torsions:
REMARK  status: ('A' for Active; 'I' for Inactive)
REMARK    1  A    between atoms: C_10  and  C_4 
ROOT
ATOM      1  C   UNL d   1      56.928   0.207  32.742  0.00  0.00     0.186 A 
ATOM      2  N   UNL d   1      57.061   0.446  33.533  0.00  0.00    -0.193 N 
ATOM      3  N   UNL d   1      56.174  -0.030  32.507  0.00  0.00    -0.214 NA
ATOM      4  C   UNL d   1      57.654   0.272  32.344  0.00  0.00     0.140 A 
ATOM      5  N   UNL d   1      57.862   0.653  33.611  0.00  0.00    -0.058 NA
ATOM      6  N   UNL d   1      58.219   0.543  32.872  0.00  0.00    -0.127 NA
ATOM      7  C   UNL d   1      55.548  -0.035  33.046  0.00  0.00     0.142 A 
ATOM      8  C   UNL d   1      55.685   0.202  33.828  0.00  0.00     0.046 A 
ATOM      9  C   UNL d   1      56.437   0.440  34.068  0.00  0.00     0.088 A 
ATOM     10 CL   UNL d   1      54.795  -0.273  32.809  0.00  0.00    -0.061 Cl
ATOM     11  C   UNL d   1      55.060   0.197  34.363  0.00  0.00     0.004 A 
ATOM     12  C   UNL d   1      56.561   0.674  34.851  0.00  0.00     0.019 A 
ATOM     13  C   UNL d   1      55.186   0.430  35.142  0.00  0.00     0.000 A 
ATOM     14  C   UNL d   1      55.936   0.669  35.386  0.00  0.00     0.002 A 
ENDROOT
BRANCH   4  15
ATOM     15  C   UNL d   1      57.775   0.093  31.555  0.00  0.00     0.022 A 
ATOM     16  C   UNL d   1      57.646  -0.676  31.284  0.00  0.00     0.002 A 
ATOM     17  C   UNL d   1      57.768  -0.858  30.487  0.00  0.00     0.000 A 
ATOM     18  C   UNL d   1      58.018  -0.270  29.964  0.00  0.00     0.000 A 
ATOM     19  C   UNL d   1      58.146   0.501  30.238  0.00  0.00     0.000 A 
ATOM     20  C   UNL d   1      58.139  -0.450  29.170  0.00  0.00     0.000 C 
ATOM     21  C   UNL d   1      58.025   0.682  31.032  0.00  0.00     0.002 A 
ENDBRANCH   4  15
TORSDOF 1
ENDMDL
