MODEL 1
REMARK VINA RESULT:      -5.6      0.000      0.000
REMARK  3 active torsions:
REMARK  status: ('A' for Active; 'I' for Inactive)
REMARK    1  A    between atoms: C_4  and  C_1 
REMARK    2  A    between atoms: N_7  and  C_4 
REMARK    3  A    between atoms: C_9  and  N_7 
ROOT
ATOM      1  C   UNL d   1     -41.608-122.723 -51.513  0.00  0.00     0.139 A 
ATOM      2  N   UNL d   1     -42.197-122.443 -51.031  0.00  0.00    -0.236 NA
ATOM      3  S   UNL d   1     -41.157-123.271 -51.100  0.00  0.00    -0.064 SA
ATOM      4  C   UNL d   1     -42.122-122.820 -50.291  0.00  0.00     0.088 A 
ATOM      5  C   UNL d   1     -41.479-123.332 -50.336  0.00  0.00     0.049 A 
ATOM      6  C   UNL d   1     -42.555-122.761 -49.591  0.00  0.00     0.020 A 
ATOM      7  C   UNL d   1     -41.263-123.790 -49.678  0.00  0.00     0.008 A 
ATOM      8  C   UNL d   1     -41.695-123.731 -48.978  0.00  0.00     0.001 A 
ATOM      9  C   UNL d   1     -42.344-123.214 -48.936  0.00  0.00     0.002 A 
ENDROOT
BRANCH   1  10
ATOM     10  C   UNL d   1     -41.489-122.486 -52.299  0.00  0.00     0.159 C 
ATOM     11  S   UNL d   1     -41.123-121.763 -52.466  0.00  0.00    -0.055 SA
BRANCH  10  12
ATOM     12  N   UNL d   1     -41.736-122.972 -52.918  0.00  0.00    -0.233 NA
BRANCH  12  13
ATOM     13  C   UNL d   1     -41.757-122.678 -53.693  0.00  0.00     0.082 A 
ATOM     14  C   UNL d   1     -41.190-122.934 -54.234  0.00  0.00     0.019 A 
ATOM     15  C   UNL d   1     -41.202-122.648 -55.005  0.00  0.00     0.002 A 
ATOM     16  C   UNL d   1     -41.781-122.106 -55.233  0.00  0.00     0.000 A 
ATOM     17  C   UNL d   1     -42.350-121.851 -54.685  0.00  0.00     0.002 A 
ATOM     18  C   UNL d   1     -42.339-122.137 -53.914  0.00  0.00     0.019 A 
ENDBRANCH  12  13
ENDBRANCH  10  12
ENDBRANCH   1  10
TORSDOF 3
ENDMDL
MODEL 2
REMARK VINA RESULT:      -5.2      0.636      4.256
REMARK  3 active torsions:
REMARK  status: ('A' for Active; 'I' for Inactive)
REMARK    1  A    between atoms: C_4  and  C_1 
REMARK    2  A    between atoms: N_7  and  C_4 
REMARK    3  A    between atoms: C_9  and  N_7 
ROOT
ATOM      1  C   UNL d   1     -41.497-122.814 -52.210  0.00  0.00     0.139 A 
ATOM      2  N   UNL d   1     -41.476-123.493 -52.654  0.00  0.00    -0.236 NA
ATOM      3  S   UNL d   1     -41.524-122.165 -52.711  0.00  0.00    -0.064 SA
ATOM      4  C   UNL d   1     -41.489-123.274 -53.458  0.00  0.00     0.088 A 
ATOM      5  C   UNL d   1     -41.519-122.452 -53.491  0.00  0.00     0.049 A 
ATOM      6  C   UNL d   1     -41.477-123.715 -54.155  0.00  0.00     0.020 A 
ATOM      7  C   UNL d   1     -41.538-122.064 -54.225  0.00  0.00     0.008 A 
ATOM      8  C   UNL d   1     -41.526-122.505 -54.922  0.00  0.00     0.001 A 
ATOM      9  C   UNL d   1     -41.496-123.334 -54.885  0.00  0.00     0.002 A 
ENDROOT
BRANCH   1  10
ATOM     10  C   UNL d   1     -41.493-122.792 -51.381  0.00  0.00     0.159 C 
ATOM     11  S   UNL d   1     -41.123-122.168 -50.982  0.00  0.00    -0.055 SA
BRANCH  10  12
ATOM     12  N   UNL d   1     -41.858-123.394 -50.951  0.00  0.00    -0.233 NA
BRANCH  12  13
ATOM     13  C   UNL d   1     -42.043-123.277 -50.151  0.00  0.00     0.082 A 
ATOM     14  C   UNL d   1     -41.551-123.600 -49.574  0.00  0.00     0.019 A 
ATOM     15  C   UNL d   1     -41.727-123.490 -48.778  0.00  0.00     0.002 A 
ATOM     16  C   UNL d   1     -42.395-123.057 -48.561  0.00  0.00     0.000 A 
ATOM     17  C   UNL d   1     -42.888-122.733 -49.146  0.00  0.00     0.002 A 
ATOM     18  C   UNL d   1     -42.713-122.843 -49.942  0.00  0.00     0.019 A 
ENDBRANCH  12  13
ENDBRANCH  10  12
ENDBRANCH   1  10
TORSDOF 3
ENDMDL
MODEL 3
REMARK VINA RESULT:      -4.6      0.666      4.253
REMARK  3 active torsions:
REMARK  status: ('A' for Active; 'I' for Inactive)
REMARK    1  A    between atoms: C_4  and  C_1 
REMARK    2  A    between atoms: N_7  and  C_4 
REMARK    3  A    between atoms: C_9  and  N_7 
ROOT
ATOM      1  C   UNL d   1     -41.513-122.465 -52.577  0.00  0.00     0.139 A 
ATOM      2  N   UNL d   1     -41.993-121.949 -52.979  0.00  0.00    -0.236 NA
ATOM      3  S   UNL d   1     -41.123-122.946 -53.115  0.00  0.00    -0.064 SA
ATOM      4  C   UNL d   1     -41.909-122.103 -53.794  0.00  0.00     0.088 A 
ATOM      5  C   UNL d   1     -41.370-122.720 -53.876  0.00  0.00     0.049 A 
ATOM      6  C   UNL d   1     -42.251-121.761 -54.463  0.00  0.00     0.020 A 
ATOM      7  C   UNL d   1     -41.169-123.002 -54.631  0.00  0.00     0.008 A 
ATOM      8  C   UNL d   1     -41.511-122.661 -55.300  0.00  0.00     0.001 A 
ATOM      9  C   UNL d   1     -42.054-122.038 -55.214  0.00  0.00     0.002 A 
ENDROOT
BRANCH   1  10
ATOM     10  C   UNL d   1     -41.438-122.493 -51.752  0.00  0.00     0.159 C 
ATOM     11  S   UNL d   1     -41.122-121.848 -51.340  0.00  0.00    -0.055 SA
BRANCH  10  12
ATOM     12  N   UNL d   1     -41.676-123.166 -51.338  0.00  0.00    -0.233 NA
BRANCH  12  13
ATOM     13  C   UNL d   1     -41.771-123.134 -50.515  0.00  0.00     0.082 A 
ATOM     14  C   UNL d   1     -42.518-122.980 -50.204  0.00  0.00     0.019 A 
ATOM     15  C   UNL d   1     -42.622-122.946 -49.388  0.00  0.00     0.002 A 
ATOM     16  C   UNL d   1     -41.978-123.068 -48.887  0.00  0.00     0.000 A 
ATOM     17  C   UNL d   1     -41.227-123.224 -49.205  0.00  0.00     0.002 A 
ATOM     18  C   UNL d   1     -41.123-123.257 -50.020  0.00  0.00     0.019 A 
ENDBRANCH  12  13
ENDBRANCH  10  12
ENDBRANCH   1  10
TORSDOF 3
ENDMDL
MODEL 4
REMARK VINA RESULT:      -4.5      0.920      1.273
REMARK  3 active torsions:
REMARK  status: ('A' for Active; 'I' for Inactive)
REMARK    1  A    between atoms: C_4  and  C_1 
REMARK    2  A    between atoms: N_7  and  C_4 
REMARK    3  A    between atoms: C_9  and  N_7 
ROOT
ATOM      1  C   UNL d   1     -41.700-122.911 -50.485  0.00  0.00     0.139 A 
ATOM      2  N   UNL d   1     -42.462-123.048 -50.242  0.00  0.00    -0.236 NA
ATOM      3  S   UNL d   1     -41.188-123.031 -49.855  0.00  0.00    -0.064 SA
ATOM      4  C   UNL d   1     -42.438-123.261 -49.436  0.00  0.00     0.088 A 
ATOM      5  C   UNL d   1     -41.650-123.249 -49.198  0.00  0.00     0.049 A 
ATOM      6  C   UNL d   1     -43.029-123.460 -48.896  0.00  0.00     0.020 A 
ATOM      7  C   UNL d   1     -41.446-123.438 -48.416  0.00  0.00     0.008 A 
ATOM      8  C   UNL d   1     -42.037-123.638 -47.876  0.00  0.00     0.001 A 
ATOM      9  C   UNL d   1     -42.832-123.648 -48.118  0.00  0.00     0.002 A 
ENDROOT
BRANCH   1  10
ATOM     10  C   UNL d   1     -41.484-122.686 -51.253  0.00  0.00     0.159 C 
ATOM     11  S   UNL d   1     -41.613-121.911 -51.513  0.00  0.00    -0.055 SA
BRANCH  10  12
ATOM     12  N   UNL d   1     -41.138-123.236 -51.762  0.00  0.00    -0.233 NA
BRANCH  12  13
ATOM     13  C   UNL d   1     -41.226-123.154 -52.583  0.00  0.00     0.082 A 
ATOM     14  C   UNL d   1     -41.416-123.816 -53.034  0.00  0.00     0.019 A 
ATOM     15  C   UNL d   1     -41.505-123.745 -53.849  0.00  0.00     0.002 A 
ATOM     16  C   UNL d   1     -41.403-123.010 -54.210  0.00  0.00     0.000 A 
ATOM     17  C   UNL d   1     -41.212-122.345 -53.751  0.00  0.00     0.002 A 
ATOM     18  C   UNL d   1     -41.123-122.415 -52.937  0.00  0.00     0.019 A 
ENDBRANCH  12  13
ENDBRANCH  10  12
ENDBRANCH   1  10
TORSDOF 3
ENDMDL
