MODEL 1
REMARK VINA RESULT:      87.3      0.000      0.000
REMARK  5 active torsions:
REMARK  status: ('A' for Active; 'I' for Inactive)
REMARK    1  A    between atoms: O_5  and  C_1 
REMARK    2  A    between atoms: C_10  and  C_2 
REMARK    3  A    between atoms: C_3  and  O_5 
REMARK    4  A    between atoms: C_6  and  C_3 
REMARK    5  A    between atoms: N_11  and  C_10 
ROOT
ATOM      1  C   UNL d   1     -50.983  26.255  34.939  0.00  0.00     0.122 A 
ATOM      2  C   UNL d   1     -51.069  26.644  35.661  0.00  0.00     0.043 A 
ATOM      3  C   UNL d   1     -50.307  26.381  34.483  0.00  0.00     0.105 A 
ATOM      4  C   UNL d   1     -49.720  26.895  34.748  0.00  0.00     0.030 A 
ATOM      5  C   UNL d   1     -49.814  27.277  35.467  0.00  0.00     0.059 A 
ATOM      6  C   UNL d   1     -50.482  27.158  35.926  0.00  0.00     0.015 A 
ATOM      7  N   UNL d   1     -50.225  25.993  33.767  0.00  0.00    -0.242 NA
ATOM      8 CL   UNL d   1     -49.205  27.793  35.715  0.00  0.00    -0.082 Cl
ATOM      9  C   UNL d   1     -49.056  27.016  34.294  0.00  0.00     0.004 A 
ATOM     10  C   UNL d   1     -49.550  26.119  33.310  0.00  0.00     0.099 A 
ATOM     11  C   UNL d   1     -48.962  26.633  33.575  0.00  0.00     0.021 A 
ENDROOT
BRANCH   1  12
ATOM     12  O   UNL d   1     -51.509  25.787  34.690  0.00  0.00    -0.271 OA
BRANCH  12  13
ATOM     13  C   UNL d   1     -52.019  25.590  33.896  0.00  0.00     0.301 C 
ATOM     14  O   UNL d   1     -52.211  26.391  33.322  0.00  0.00    -0.259 OA
BRANCH  13  15
ATOM     15  C   UNL d   1     -52.265  24.823  33.724  0.00  0.00     0.074 A 
ATOM     16  C   UNL d   1     -53.049  24.683  33.483  0.00  0.00     0.063 A 
ATOM     17 CL   UNL d   1     -53.655  25.308  33.394  0.00  0.00    -0.082 Cl
ATOM     18  C   UNL d   1     -53.294  23.905  33.310  0.00  0.00     0.012 A 
ATOM     19  C   UNL d   1     -52.759  23.267  33.378  0.00  0.00     0.001 A 
ATOM     20  C   UNL d   1     -51.979  23.410  33.619  0.00  0.00     0.000 A 
ATOM     21  C   UNL d   1     -51.734  24.188  33.791  0.00  0.00     0.006 A 
ENDBRANCH  13  15
ENDBRANCH  12  13
ENDBRANCH   1  12
BRANCH   2  22
ATOM     22  C   UNL d   1     -51.728  26.633  36.290  0.00  0.00     0.082 C 
BRANCH  22  23
ATOM     23  N   UNL d   1     -51.530  26.531  37.080  0.00  0.00    -0.299 N 
ATOM     24  C   UNL d   1     -51.312  27.177  37.529  0.00  0.00     0.107 A 
ATOM     25  C   UNL d   1     -51.111  27.090  38.326  0.00  0.00     0.142 A 
ATOM     26  O   UNL d   1     -51.132  26.346  38.660  0.00  0.00    -0.300 OA
ATOM     27  C   UNL d   1     -51.353  25.688  38.207  0.00  0.00     0.142 A 
ATOM     28  C   UNL d   1     -51.549  25.792  37.418  0.00  0.00     0.107 A 
ENDBRANCH  22  23
ENDBRANCH   2  22
TORSDOF 5
ENDMDL
