MODEL 1
REMARK VINA RESULT:      -5.1      0.000      0.000
REMARK  5 active torsions:
REMARK  status: ('A' for Active; 'I' for Inactive)
REMARK    1  A    between atoms: C_7  and  C_1 
REMARK    2  A    between atoms: C_5  and  S_14 
REMARK       I    between atoms: N_13  and  C_7 
REMARK    3  A    between atoms: C_18  and  N_13 
REMARK    4  A    between atoms: S_14  and  C_19 
REMARK    5  A    between atoms: C_19  and  C_18 
ROOT
ATOM      1  C   UNL d   1     -41.561-122.465 -51.185  0.00  0.00     0.056 C 
ENDROOT
BRANCH   1   2
ATOM      2  S   UNL d   1     -41.298-122.834 -51.883  0.00  0.00    -0.083 SA
BRANCH   2   3
ATOM      3  C   UNL d   1     -41.422-122.465 -52.618  0.00  0.00     0.050 A 
ATOM      4  C   UNL d   1     -41.367-122.833 -53.352  0.00  0.00     0.025 A 
ATOM      5  C   UNL d   1     -41.533-122.261 -53.935  0.00  0.00     0.082 A 
ATOM      6  C   UNL d   1     -41.187-123.611 -53.578  0.00  0.00     0.002 A 
ATOM      7  C   UNL d   1     -41.519-122.468 -54.735  0.00  0.00     0.019 A 
ATOM      8  N   UNL d   1     -41.689-121.546 -53.546  0.00  0.00    -0.243 NA
ATOM      9  C   UNL d   1     -41.341-123.242 -54.952  0.00  0.00     0.002 A 
ATOM     10  C   UNL d   1     -41.174-123.817 -54.368  0.00  0.00     0.000 A 
ATOM     11  C   UNL d   1     -41.620-121.674 -52.736  0.00  0.00     0.105 A 
ENDBRANCH   2   3
ENDBRANCH   1   2
BRANCH   1  12
ATOM     12  C   UNL d   1     -41.815-122.925 -50.548  0.00  0.00     0.109 C 
BRANCH  12  13
ATOM     13  N   UNL d   1     -42.581-123.262 -50.554  0.00  0.00    -0.204 NA
ATOM     14  C   UNL d   1     -42.941-123.486 -49.848  0.00  0.00     0.302 C 
ATOM     15  O   UNL d   1     -43.697-123.817 -49.859  0.00  0.00    -0.263 OA
BRANCH  14  16
ATOM     16  C   UNL d   1     -42.541-123.378 -49.123  0.00  0.00     0.158 A 
ATOM     17  O   UNL d   1     -41.888-123.759 -48.786  0.00  0.00    -0.296 OA
ATOM     18  C   UNL d   1     -41.745-123.409 -48.054  0.00  0.00     0.134 A 
ATOM     19 BR   UNL d   1     -41.138-123.618 -47.522  0.00  0.00    -0.022 Br
ATOM     20  C   UNL d   1     -42.303-122.815 -47.935  0.00  0.00     0.034 A 
ATOM     21  C   UNL d   1     -42.794-122.798 -48.596  0.00  0.00     0.032 A 
ENDBRANCH  14  16
ENDBRANCH  12  13
ENDBRANCH   1  12
TORSDOF 5
ENDMDL
