MODEL 1
REMARK VINA RESULT:      -3.5      0.000      0.000
REMARK  0 active torsions:
REMARK  status: ('A' for Active; 'I' for Inactive)
REMARK       I    between atoms: N_3  and  C_1 
REMARK       I    between atoms: N_5  and  C_1 
REMARK       I    between atoms: C_2  and  N_4 
REMARK       I    between atoms: N_6  and  C_2 
ROOT
ATOM      1  C   UNL d   1     -41.495-123.101 -53.526  0.00  0.00     0.339 C 
ATOM      2  C   UNL d   1     -41.997-122.136 -50.410  0.00  0.00     0.340 C 
ATOM      3  N   UNL d   1     -41.624-122.853 -52.737  0.00  0.00    -0.254 N 
ATOM      4  N   UNL d   1     -41.874-122.374 -51.191  0.00  0.00    -0.254 N 
ATOM      5  N   UNL d   1     -41.739-122.625 -54.154  0.00  0.00    -0.258 N 
ATOM      6  N   UNL d   1     -41.751-122.615 -49.790  0.00  0.00    -0.253 N 
ATOM      7  O   UNL d   1     -41.125-123.817 -53.672  0.00  0.00    -0.245 OA
ATOM      8  O   UNL d   1     -42.369-121.416 -50.249  0.00  0.00    -0.245 OA
ATOM      9  C   UNL d   1     -42.128-121.879 -51.822  0.00  0.00     0.104 A 
ATOM     10  C   UNL d   1     -41.506-123.085 -51.348  0.00  0.00     0.104 A 
ATOM     11  C   UNL d   1     -41.381-123.327 -52.127  0.00  0.00     0.104 A 
ATOM     12  C   UNL d   1     -42.002-122.121 -52.601  0.00  0.00     0.104 A 
ATOM     13  O   UNL d   1     -41.253-123.586 -48.557  0.00  0.00    -0.300 OA
ATOM     14  C   UNL d   1     -41.379-123.336 -49.953  0.00  0.00     0.111 A 
ATOM     15  C   UNL d   1     -41.877-122.374 -49.011  0.00  0.00     0.111 A 
ATOM     16  C   UNL d   1     -41.588-122.917 -54.909  0.00  0.00     0.085 A 
ATOM     17  C   UNL d   1     -42.107-121.913 -53.945  0.00  0.00     0.085 A 
ATOM     18  C   UNL d   1     -41.625-122.864 -48.391  0.00  0.00     0.142 A 
ATOM     19  C   UNL d   1     -41.132-123.817 -49.340  0.00  0.00     0.142 A 
ATOM     20  C   UNL d   1     -41.761-122.578 -55.637  0.00  0.00     0.019 A 
ATOM     21  C   UNL d   1     -42.409-121.325 -54.440  0.00  0.00     0.019 A 
ATOM     22  C   UNL d   1     -42.129-121.864 -55.799  0.00  0.00     0.002 A 
ATOM     23  C   UNL d   1     -42.418-121.305 -55.264  0.00  0.00     0.002 A 
ENDROOT
TORSDOF 0
ENDMDL
MODEL 2
REMARK VINA RESULT:      -1.9      0.825      4.926
REMARK  0 active torsions:
REMARK  status: ('A' for Active; 'I' for Inactive)
REMARK       I    between atoms: N_3  and  C_1 
REMARK       I    between atoms: N_5  and  C_1 
REMARK       I    between atoms: C_2  and  N_4 
REMARK       I    between atoms: N_6  and  C_2 
ROOT
ATOM      1  C   UNL d   1     -42.045-121.853 -50.741  0.00  0.00     0.339 C 
ATOM      2  C   UNL d   1     -41.538-122.791 -53.864  0.00  0.00     0.340 C 
ATOM      3  N   UNL d   1     -41.915-122.094 -51.532  0.00  0.00    -0.254 N 
ATOM      4  N   UNL d   1     -41.663-122.560 -53.082  0.00  0.00    -0.254 N 
ATOM      5  N   UNL d   1     -41.834-122.350 -50.117  0.00  0.00    -0.258 N 
ATOM      6  N   UNL d   1     -41.751-122.291 -54.480  0.00  0.00    -0.253 N 
ATOM      7  O   UNL d   1     -42.382-121.122 -50.589  0.00  0.00    -0.245 OA
ATOM      8  O   UNL d   1     -41.199-123.526 -54.032  0.00  0.00    -0.245 OA
ATOM      9  C   UNL d   1     -41.444-123.076 -52.455  0.00  0.00     0.104 A 
ATOM     10  C   UNL d   1     -41.999-121.834 -52.918  0.00  0.00     0.104 A 
ATOM     11  C   UNL d   1     -42.125-121.599 -52.138  0.00  0.00     0.104 A 
ATOM     12  C   UNL d   1     -41.571-122.842 -51.674  0.00  0.00     0.104 A 
ATOM     13  O   UNL d   1     -42.182-121.277 -55.704  0.00  0.00    -0.300 OA
ATOM     14  C   UNL d   1     -42.090-121.556 -54.311  0.00  0.00     0.111 A 
ATOM     15  C   UNL d   1     -41.624-122.525 -55.261  0.00  0.00     0.111 A 
ATOM     16  C   UNL d   1     -41.984-122.063 -49.360  0.00  0.00     0.085 A 
ATOM     17  C   UNL d   1     -41.498-123.076 -50.333  0.00  0.00     0.085 A 
ATOM     18  C   UNL d   1     -41.842-122.013 -55.877  0.00  0.00     0.142 A 
ATOM     19  C   UNL d   1     -42.304-121.053 -54.920  0.00  0.00     0.142 A 
ATOM     20  C   UNL d   1     -41.839-122.422 -48.635  0.00  0.00     0.019 A 
ATOM     21  C   UNL d   1     -41.232-123.685 -49.842  0.00  0.00     0.019 A 
ATOM     22  C   UNL d   1     -41.508-123.155 -48.479  0.00  0.00     0.002 A 
ATOM     23  C   UNL d   1     -41.238-123.718 -49.020  0.00  0.00     0.002 A 
ENDROOT
TORSDOF 0
ENDMDL
