MODEL 1
REMARK VINA RESULT:      -5.7      0.000      0.000
REMARK  1 active torsions:
REMARK  status: ('A' for Active; 'I' for Inactive)
REMARK    1  A    between atoms: C_6  and  C_2 
ROOT
ATOM      1  N   UNL d   1      57.381  -0.423  30.673  0.00  0.00    -0.220 NA
ATOM      2  C   UNL d   1      57.371  -0.009  31.373  0.00  0.00     0.182 A 
ATOM      3  O   UNL d   1      57.994   0.452  31.458  0.00  0.00    -0.288 OA
ATOM      4  C   UNL d   1      58.080  -0.184  30.308  0.00  0.00     0.106 A 
ATOM      5  C   UNL d   1      58.462   0.361  30.796  0.00  0.00     0.119 A 
ATOM      6  C   UNL d   1      58.405  -0.407  29.582  0.00  0.00     0.021 A 
ATOM      7  C   UNL d   1      59.168   0.682  30.559  0.00  0.00     0.026 A 
ATOM      8  C   UNL d   1      59.521   0.479  29.837  0.00  0.00     0.002 A 
ATOM      9  C   UNL d   1      59.126  -0.085  29.331  0.00  0.00     0.002 A 
ENDROOT
BRANCH   2  10
ATOM     10  C   UNL d   1      56.783  -0.051  31.945  0.00  0.00     0.041 A 
ATOM     11  C   UNL d   1      56.420   0.636  32.195  0.00  0.00     0.005 A 
ATOM     12  C   UNL d   1      55.819   0.588  32.780  0.00  0.00     0.021 A 
ATOM     13  C   UNL d   1      55.600  -0.131  33.095  0.00  0.00     0.103 A 
ATOM     14  C   UNL d   1      55.978  -0.833  32.832  0.00  0.00     0.021 A 
ATOM     15  N   UNL d   1      55.017  -0.135  33.657  0.00  0.00    -0.148 N 
ATOM     16  C   UNL d   1      56.568  -0.776  32.256  0.00  0.00     0.005 A 
ENDBRANCH   2  10
TORSDOF 1
ENDMDL
MODEL 2
REMARK VINA RESULT:      -5.5      1.069      3.758
REMARK  1 active torsions:
REMARK  status: ('A' for Active; 'I' for Inactive)
REMARK    1  A    between atoms: C_6  and  C_2 
ROOT
ATOM      1  N   UNL d   1      57.034   0.453  31.671  0.00  0.00    -0.220 NA
ATOM      2  C   UNL d   1      57.276  -0.166  31.203  0.00  0.00     0.182 A 
ATOM      3  O   UNL d   1      57.001  -0.853  31.448  0.00  0.00    -0.288 OA
ATOM      4  C   UNL d   1      56.570   0.097  32.252  0.00  0.00     0.106 A 
ATOM      5  C   UNL d   1      56.549  -0.716  32.113  0.00  0.00     0.119 A 
ATOM      6  C   UNL d   1      56.166   0.432  32.890  0.00  0.00     0.021 A 
ATOM      7  C   UNL d   1      56.124  -1.194  32.612  0.00  0.00     0.026 A 
ATOM      8  C   UNL d   1      55.708  -0.891  33.261  0.00  0.00     0.002 A 
ATOM      9  C   UNL d   1      55.730  -0.049  33.405  0.00  0.00     0.002 A 
ENDROOT
BRANCH   2  10
ATOM     10  C   UNL d   1      57.756  -0.105  30.539  0.00  0.00     0.041 A 
ATOM     11  C   UNL d   1      57.852   0.624  30.182  0.00  0.00     0.005 A 
ATOM     12  C   UNL d   1      58.344   0.682  29.504  0.00  0.00     0.021 A 
ATOM     13  C   UNL d   1      58.720   0.023  29.204  0.00  0.00     0.103 A 
ATOM     14  C   UNL d   1      58.616  -0.721  29.577  0.00  0.00     0.021 A 
ATOM     15  N   UNL d   1      59.186   0.121  28.548  0.00  0.00    -0.148 N 
ATOM     16  C   UNL d   1      58.130  -0.769  30.244  0.00  0.00     0.005 A 
ENDBRANCH   2  10
TORSDOF 1
ENDMDL
MODEL 3
REMARK VINA RESULT:      -5.5      0.531      1.125
REMARK  1 active torsions:
REMARK  status: ('A' for Active; 'I' for Inactive)
REMARK    1  A    between atoms: C_6  and  C_2 
ROOT
ATOM      1  N   UNL d   1      57.953   0.545  31.128  0.00  0.00    -0.220 NA
ATOM      2  C   UNL d   1      57.427  -0.064  31.242  0.00  0.00     0.182 A 
ATOM      3  O   UNL d   1      57.520  -0.642  30.727  0.00  0.00    -0.288 OA
ATOM      4  C   UNL d   1      58.403   0.304  30.480  0.00  0.00     0.106 A 
ATOM      5  C   UNL d   1      58.133  -0.435  30.231  0.00  0.00     0.119 A 
ATOM      6  C   UNL d   1      59.028   0.682  30.095  0.00  0.00     0.021 A 
ATOM      7  C   UNL d   1      58.489  -0.796  29.597  0.00  0.00     0.026 A 
ATOM      8  C   UNL d   1      59.118  -0.443  29.188  0.00  0.00     0.002 A 
ATOM      9  C   UNL d   1      59.397   0.322  29.446  0.00  0.00     0.002 A 
ENDROOT
BRANCH   2  10
ATOM     10  C   UNL d   1      56.851  -0.094  31.827  0.00  0.00     0.041 A 
ATOM     11  C   UNL d   1      56.631  -0.819  32.133  0.00  0.00     0.005 A 
ATOM     12  C   UNL d   1      56.041  -0.845  32.731  0.00  0.00     0.021 A 
ATOM     13  C   UNL d   1      55.692  -0.160  33.003  0.00  0.00     0.103 A 
ATOM     14  C   UNL d   1      55.924   0.580  32.682  0.00  0.00     0.021 A 
ATOM     15  N   UNL d   1      55.128  -0.228  33.580  0.00  0.00    -0.148 N 
ATOM     16  C   UNL d   1      56.506   0.596  32.095  0.00  0.00     0.005 A 
ENDBRANCH   2  10
TORSDOF 1
ENDMDL
MODEL 4
REMARK VINA RESULT:      -4.9      0.921      1.293
REMARK  1 active torsions:
REMARK  status: ('A' for Active; 'I' for Inactive)
REMARK    1  A    between atoms: C_6  and  C_2 
ROOT
ATOM      1  N   UNL d   1      56.896  -0.924  31.867  0.00  0.00    -0.220 NA
ATOM      2  C   UNL d   1      56.736  -0.175  32.141  0.00  0.00     0.182 A 
ATOM      3  O   UNL d   1      57.052   0.382  31.696  0.00  0.00    -0.288 OA
ATOM      4  C   UNL d   1      57.352  -0.798  31.192  0.00  0.00     0.106 A 
ATOM      5  C   UNL d   1      57.450   0.014  31.086  0.00  0.00     0.119 A 
ATOM      6  C   UNL d   1      57.687  -1.341  30.667  0.00  0.00     0.021 A 
ATOM      7  C   UNL d   1      57.882   0.284  30.454  0.00  0.00     0.026 A 
ATOM      8  C   UNL d   1      58.231  -0.234  29.909  0.00  0.00     0.002 A 
ATOM      9  C   UNL d   1      58.130  -1.074  30.019  0.00  0.00     0.002 A 
ENDROOT
BRANCH   2  10
ATOM     10  C   UNL d   1      56.294   0.005  32.810  0.00  0.00     0.041 A 
ATOM     11  C   UNL d   1      56.611   0.500  33.376  0.00  0.00     0.005 A 
ATOM     12  C   UNL d   1      56.155   0.681  34.058  0.00  0.00     0.021 A 
ATOM     13  C   UNL d   1      55.408   0.370  34.155  0.00  0.00     0.103 A 
ATOM     14  C   UNL d   1      55.089  -0.138  33.568  0.00  0.00     0.021 A 
ATOM     15  N   UNL d   1      55.001   0.569  34.826  0.00  0.00    -0.148 N 
ATOM     16  C   UNL d   1      55.545  -0.311  32.900  0.00  0.00     0.005 A 
ENDBRANCH   2  10
TORSDOF 1
ENDMDL
MODEL 5
REMARK VINA RESULT:      -2.9      9.710     10.291
REMARK  1 active torsions:
REMARK  status: ('A' for Active; 'I' for Inactive)
REMARK    1  A    between atoms: C_6  and  C_2 
ROOT
ATOM      1  N   UNL d   1      58.830  -9.816  34.291  0.00  0.00    -0.220 NA
ATOM      2  C   UNL d   1      59.094  -9.384  33.655  0.00  0.00     0.182 A 
ATOM      3  O   UNL d   1      59.610  -8.836  33.856  0.00  0.00    -0.288 OA
ATOM      4  C   UNL d   1      59.231  -9.492  34.934  0.00  0.00     0.106 A 
ATOM      5  C   UNL d   1      59.717  -8.882  34.664  0.00  0.00     0.119 A 
ATOM      6  C   UNL d   1      59.202  -9.692  35.735  0.00  0.00     0.021 A 
ATOM      7  C   UNL d   1      60.173  -8.472  35.195  0.00  0.00     0.026 A 
ATOM      8  C   UNL d   1      60.167  -8.646  36.005  0.00  0.00     0.002 A 
ATOM      9  C   UNL d   1      59.664  -9.278  36.285  0.00  0.00     0.002 A 
ENDROOT
BRANCH   2  10
ATOM     10  C   UNL d   1      58.859  -9.490  32.874  0.00  0.00     0.041 A 
ATOM     11  C   UNL d   1      59.414  -9.710  32.317  0.00  0.00     0.005 A 
ATOM     12  C   UNL d   1      59.169  -9.817  31.521  0.00  0.00     0.021 A 
ATOM     13  C   UNL d   1      58.391  -9.704  31.305  0.00  0.00     0.103 A 
ATOM     14  C   UNL d   1      57.827  -9.478  31.883  0.00  0.00     0.021 A 
ATOM     15  N   UNL d   1      58.196  -9.818  30.527  0.00  0.00    -0.148 N 
ATOM     16  C   UNL d   1      58.077  -9.375  32.665  0.00  0.00     0.005 A 
ENDBRANCH   2  10
TORSDOF 1
ENDMDL
MODEL 6
REMARK VINA RESULT:      -2.7      9.849     10.262
REMARK  1 active torsions:
REMARK  status: ('A' for Active; 'I' for Inactive)
REMARK    1  A    between atoms: C_6  and  C_2 
ROOT
ATOM      1  N   UNL d   1      58.499  -9.506  33.381  0.00  0.00    -0.220 NA
ATOM      2  C   UNL d   1      59.310  -9.546  33.434  0.00  0.00     0.182 A 
ATOM      3  O   UNL d   1      59.652  -9.656  32.742  0.00  0.00    -0.288 OA
ATOM      4  C   UNL d   1      58.346  -9.603  32.576  0.00  0.00     0.106 A 
ATOM      5  C   UNL d   1      59.063  -9.696  32.179  0.00  0.00     0.119 A 
ATOM      6  C   UNL d   1      57.627  -9.615  32.169  0.00  0.00     0.021 A 
ATOM      7  C   UNL d   1      59.061  -9.801  31.374  0.00  0.00     0.026 A 
ATOM      8  C   UNL d   1      58.358  -9.818  30.936  0.00  0.00     0.002 A 
ATOM      9  C   UNL d   1      57.616  -9.722  31.347  0.00  0.00     0.002 A 
ENDROOT
BRANCH   2  10
ATOM     10  C   UNL d   1      59.747  -9.480  34.127  0.00  0.00     0.041 A 
ATOM     11  C   UNL d   1      60.461  -9.084  34.111  0.00  0.00     0.005 A 
ATOM     12  C   UNL d   1      60.905  -9.020  34.822  0.00  0.00     0.021 A 
ATOM     13  C   UNL d   1      60.629  -9.346  35.516  0.00  0.00     0.103 A 
ATOM     14  C   UNL d   1      59.894  -9.752  35.523  0.00  0.00     0.021 A 
ATOM     15  N   UNL d   1      61.087  -9.262  36.180  0.00  0.00    -0.148 N 
ATOM     16  C   UNL d   1      59.465  -9.810  34.819  0.00  0.00     0.005 A 
ENDBRANCH   2  10
TORSDOF 1
ENDMDL
MODEL 7
REMARK VINA RESULT:      -2.7      1.767      2.465
REMARK  1 active torsions:
REMARK  status: ('A' for Active; 'I' for Inactive)
REMARK    1  A    between atoms: C_6  and  C_2 
ROOT
ATOM      1  N   UNL d   1      58.414  -1.935  29.762  0.00  0.00    -0.220 NA
ATOM      2  C   UNL d   1      58.531  -1.159  29.973  0.00  0.00     0.182 A 
ATOM      3  O   UNL d   1      59.196  -0.867  29.690  0.00  0.00    -0.288 OA
ATOM      4  C   UNL d   1      59.076  -2.122  29.308  0.00  0.00     0.106 A 
ATOM      5  C   UNL d   1      59.563  -1.457  29.263  0.00  0.00     0.119 A 
ATOM      6  C   UNL d   1      59.283  -2.828  28.933  0.00  0.00     0.021 A 
ATOM      7  C   UNL d   1      60.256  -1.498  28.843  0.00  0.00     0.026 A 
ATOM      8  C   UNL d   1      60.493  -2.191  28.455  0.00  0.00     0.002 A 
ATOM      9  C   UNL d   1      59.989  -2.880  28.502  0.00  0.00     0.002 A 
ENDROOT
BRANCH   2  10
ATOM     10  C   UNL d   1      58.021  -0.707  30.434  0.00  0.00     0.041 A 
ATOM     11  C   UNL d   1      58.023   0.105  30.350  0.00  0.00     0.005 A 
ATOM     12  C   UNL d   1      57.501   0.563  30.822  0.00  0.00     0.021 A 
ATOM     13  C   UNL d   1      56.999   0.205  31.357  0.00  0.00     0.103 A 
ATOM     14  C   UNL d   1      57.004  -0.631  31.436  0.00  0.00     0.021 A 
ATOM     15  N   UNL d   1      56.511   0.682  31.793  0.00  0.00    -0.148 N 
ATOM     16  C   UNL d   1      57.522  -1.073  30.967  0.00  0.00     0.005 A 
ENDBRANCH   2  10
TORSDOF 1
ENDMDL
