MODEL 1
REMARK VINA RESULT:      -2.5      0.000      0.000
REMARK  5 active torsions:
REMARK  status: ('A' for Active; 'I' for Inactive)
REMARK    1  A    between atoms: C_6  and  C_1 
REMARK    2  A    between atoms: C_8  and  N_3 
REMARK    3  A    between atoms: C_7  and  C_8 
REMARK    4  A    between atoms: C_9  and  C_7 
REMARK    5  A    between atoms: C_10  and  C_9 
ROOT
ATOM      1  C   UNL d   1     -43.141-122.921 -49.377  0.00  0.00     0.187 A 
ATOM      2  N   UNL d   1     -43.256-122.782 -48.559  0.00  0.00    -0.224 NA
ATOM      3  N   UNL d   1     -42.398-123.284 -49.477  0.00  0.00    -0.287 N 
ATOM      4  C   UNL d   1     -42.050-123.371 -48.732  0.00  0.00     0.083 A 
ATOM      5  C   UNL d   1     -42.574-123.063 -48.165  0.00  0.00     0.099 A 
ATOM      6  C   UNL d   1     -41.318-123.691 -48.480  0.00  0.00     0.019 A 
ATOM      7  C   UNL d   1     -42.378-123.072 -47.354  0.00  0.00     0.021 A 
ATOM      8  C   UNL d   1     -41.123-123.700 -47.678  0.00  0.00     0.002 A 
ATOM      9  C   UNL d   1     -41.651-123.392 -47.116  0.00  0.00     0.002 A 
ENDROOT
BRANCH   3  10
ATOM     10  C   UNL d   1     -42.210-123.454 -50.262  0.00  0.00     0.082 C 
BRANCH  10  11
ATOM     11  C   UNL d   1     -41.629-123.025 -50.650  0.00  0.00     0.019 C 
BRANCH  11  12
ATOM     12  C   UNL d   1     -41.124-123.407 -51.182  0.00  0.00     0.002 C 
BRANCH  12  13
ATOM     13  C   UNL d   1     -41.151-123.215 -51.983  0.00  0.00     0.000 A 
ATOM     14  C   UNL d   1     -41.206-123.814 -52.547  0.00  0.00     0.000 A 
ATOM     15  C   UNL d   1     -41.233-123.615 -53.342  0.00  0.00     0.000 A 
ATOM     16  C   UNL d   1     -41.205-122.826 -53.579  0.00  0.00     0.000 A 
ATOM     17  C   UNL d   1     -41.149-122.228 -53.010  0.00  0.00     0.000 A 
ATOM     18  C   UNL d   1     -41.123-122.424 -52.218  0.00  0.00     0.000 A 
ENDBRANCH  12  13
ENDBRANCH  11  12
ENDBRANCH  10  11
ENDBRANCH   3  10
BRANCH   1  19
ATOM     19  C   UNL d   1     -43.669-122.719 -49.835  0.00  0.00     0.230 C 
ATOM     20  O   UNL d   1     -43.703-121.996 -50.229  0.00  0.00    -0.283 OA
ATOM     21  C   UNL d   1     -44.282-123.251 -49.970  0.00  0.00     0.049 C 
ENDBRANCH   1  19
TORSDOF 5
ENDMDL
MODEL 2
REMARK VINA RESULT:      -1.0      1.526      4.111
REMARK  5 active torsions:
REMARK  status: ('A' for Active; 'I' for Inactive)
REMARK    1  A    between atoms: C_6  and  C_1 
REMARK    2  A    between atoms: C_8  and  N_3 
REMARK    3  A    between atoms: C_7  and  C_8 
REMARK    4  A    between atoms: C_9  and  C_7 
REMARK    5  A    between atoms: C_10  and  C_9 
ROOT
ATOM      1  C   UNL d   1     -41.658-122.799 -52.048  0.00  0.00     0.187 A 
ATOM      2  N   UNL d   1     -41.565-122.098 -52.497  0.00  0.00    -0.224 NA
ATOM      3  N   UNL d   1     -41.559-122.606 -51.243  0.00  0.00    -0.287 N 
ATOM      4  C   UNL d   1     -41.405-121.796 -51.188  0.00  0.00     0.083 A 
ATOM      5  C   UNL d   1     -41.409-121.479 -51.956  0.00  0.00     0.099 A 
ATOM      6  C   UNL d   1     -41.260-121.288 -50.538  0.00  0.00     0.019 A 
ATOM      7  C   UNL d   1     -41.269-120.666 -52.083  0.00  0.00     0.021 A 
ATOM      8  C   UNL d   1     -41.123-120.484 -50.661  0.00  0.00     0.002 A 
ATOM      9  C   UNL d   1     -41.127-120.173 -51.432  0.00  0.00     0.002 A 
ENDROOT
BRANCH   3  10
ATOM     10  C   UNL d   1     -41.636-123.250 -50.732  0.00  0.00     0.082 C 
BRANCH  10  11
ATOM     11  C   UNL d   1     -41.861-123.132 -49.953  0.00  0.00     0.019 C 
BRANCH  11  12
ATOM     12  C   UNL d   1     -41.956-123.783 -49.451  0.00  0.00     0.002 C 
BRANCH  12  13
ATOM     13  C   UNL d   1     -41.956-123.675 -48.635  0.00  0.00     0.000 A 
ATOM     14  C   UNL d   1     -42.671-123.636 -48.226  0.00  0.00     0.000 A 
ATOM     15  C   UNL d   1     -42.665-123.528 -47.414  0.00  0.00     0.000 A 
ATOM     16  C   UNL d   1     -41.951-123.460 -47.006  0.00  0.00     0.000 A 
ATOM     17  C   UNL d   1     -41.236-123.500 -47.419  0.00  0.00     0.000 A 
ATOM     18  C   UNL d   1     -41.242-123.607 -48.227  0.00  0.00     0.000 A 
ENDBRANCH  12  13
ENDBRANCH  11  12
ENDBRANCH  10  11
ENDBRANCH   3  10
BRANCH   1  19
ATOM     19  C   UNL d   1     -41.800-123.416 -52.405  0.00  0.00     0.230 C 
ATOM     20  O   UNL d   1     -42.546-123.758 -52.483  0.00  0.00    -0.283 OA
ATOM     21  C   UNL d   1     -41.167-123.805 -52.762  0.00  0.00     0.049 C 
ENDBRANCH   1  19
TORSDOF 5
ENDMDL
MODEL 3
REMARK VINA RESULT:       0.4      1.839      3.157
REMARK  5 active torsions:
REMARK  status: ('A' for Active; 'I' for Inactive)
REMARK    1  A    between atoms: C_6  and  C_1 
REMARK    2  A    between atoms: C_8  and  N_3 
REMARK    3  A    between atoms: C_7  and  C_8 
REMARK    4  A    between atoms: C_9  and  C_7 
REMARK    5  A    between atoms: C_10  and  C_9 
ROOT
ATOM      1  C   UNL d   1     -41.631-122.685 -50.851  0.00  0.00     0.187 A 
ATOM      2  N   UNL d   1     -41.610-122.099 -50.253  0.00  0.00    -0.224 NA
ATOM      3  N   UNL d   1     -41.484-122.315 -51.582  0.00  0.00    -0.287 N 
ATOM      4  C   UNL d   1     -41.372-121.508 -51.446  0.00  0.00     0.083 A 
ATOM      5  C   UNL d   1     -41.448-121.371 -50.630  0.00  0.00     0.099 A 
ATOM      6  C   UNL d   1     -41.208-120.862 -51.954  0.00  0.00     0.019 A 
ATOM      7  C   UNL d   1     -41.363-120.602 -50.316  0.00  0.00     0.021 A 
ATOM      8  C   UNL d   1     -41.123-120.101 -51.646  0.00  0.00     0.002 A 
ATOM      9  C   UNL d   1     -41.201-119.971 -50.829  0.00  0.00     0.002 A 
ENDROOT
BRANCH   3  10
ATOM     10  C   UNL d   1     -41.489-122.831 -52.227  0.00  0.00     0.082 C 
BRANCH  10  11
ATOM     11  C   UNL d   1     -41.558-122.537 -52.989  0.00  0.00     0.019 C 
BRANCH  11  12
ATOM     12  C   UNL d   1     -41.533-123.057 -53.632  0.00  0.00     0.002 C 
BRANCH  12  13
ATOM     13  C   UNL d   1     -41.758-122.795 -54.380  0.00  0.00     0.000 A 
ATOM     14  C   UNL d   1     -41.216-122.395 -54.856  0.00  0.00     0.000 A 
ATOM     15  C   UNL d   1     -41.446-122.138 -55.599  0.00  0.00     0.000 A 
ATOM     16  C   UNL d   1     -42.213-122.275 -55.871  0.00  0.00     0.000 A 
ATOM     17  C   UNL d   1     -42.754-122.676 -55.391  0.00  0.00     0.000 A 
ATOM     18  C   UNL d   1     -42.525-122.933 -54.652  0.00  0.00     0.000 A 
ENDBRANCH  12  13
ENDBRANCH  11  12
ENDBRANCH  10  11
ENDBRANCH   3  10
BRANCH   1  19
ATOM     19  C   UNL d   1     -41.765-123.372 -50.651  0.00  0.00     0.230 C 
ATOM     20  O   UNL d   1     -42.434-123.805 -50.860  0.00  0.00    -0.283 OA
ATOM     21  C   UNL d   1     -41.206-123.747 -50.177  0.00  0.00     0.049 C 
ENDBRANCH   1  19
TORSDOF 5
ENDMDL
