MODEL 1
REMARK VINA RESULT:      -2.4      0.000      0.000
REMARK  6 active torsions:
REMARK  status: ('A' for Active; 'I' for Inactive)
REMARK    1  A    between atoms: C_7  and  C_1 
REMARK       I    between atoms: C_2  and  N_4 
REMARK    2  A    between atoms: C_10  and  C_2 
REMARK    3  A    between atoms: N_4  and  C_3 
REMARK    4  A    between atoms: O_20  and  C_5 
REMARK    5  A    between atoms: O_21  and  C_7 
REMARK    6  A    between atoms: C_11  and  C_12 
ROOT
ATOM      1  C   UNL d   1      29.240  16.018 -23.703  0.00  0.00     0.086 A 
ATOM      2  C   UNL d   1      30.833  16.466 -23.814  0.00  0.00     0.148 A 
ATOM      3  C   UNL d   1      29.486  16.616 -24.227  0.00  0.00     0.102 A 
ATOM      4  C   UNL d   1      29.812  15.639 -23.226  0.00  0.00     0.021 A 
ATOM      5  C   UNL d   1      30.274  16.837 -24.281  0.00  0.00     0.057 A 
ATOM      6  C   UNL d   1      30.614  15.864 -23.281  0.00  0.00     0.088 A 
ATOM      7 CL   UNL d   1      31.170  15.489 -22.810  0.00  0.00    -0.080 Cl
ENDROOT
BRANCH   2   8
ATOM      8  N   UNL d   1      31.637  16.676 -23.854  0.00  0.00    -0.364 NA
ATOM      9  C   UNL d   1      32.430  16.918 -23.899  0.00  0.00     0.328 C 
ATOM     10  O   UNL d   1      33.011  16.349 -23.829  0.00  0.00    -0.251 OA
BRANCH   9  11
ATOM     11  C   UNL d   1      32.608  17.695 -24.008  0.00  0.00     0.070 A 
ATOM     12  C   UNL d   1      32.596  18.210 -23.363  0.00  0.00     0.006 A 
ATOM     13  C   UNL d   1      32.776  19.009 -23.457  0.00  0.00    -0.004 A 
ATOM     14  C   UNL d   1      32.973  19.303 -24.212  0.00  0.00    -0.023 A 
ATOM     15  C   UNL d   1      32.987  18.796 -24.858  0.00  0.00    -0.004 A 
ATOM     16  C   UNL d   1      32.803  17.991 -24.747  0.00  0.00     0.006 A 
BRANCH  14  17
ATOM     17  C   UNL d   1      33.154  20.112 -24.296  0.00  0.00     0.019 C 
ATOM     18  C   UNL d   1      33.241  20.441 -25.036  0.00  0.00     0.004 C 
ATOM     19  C   UNL d   1      33.241  20.567 -23.608  0.00  0.00     0.004 C 
ATOM     20  C   UNL d   1      33.107  19.832 -25.070  0.00  0.00     0.004 C 
ENDBRANCH  14  17
ENDBRANCH   9  11
ENDBRANCH   2   8
BRANCH   3  21
ATOM     21  O   UNL d   1      28.935  16.992 -24.698  0.00  0.00    -0.328 OA
ATOM     22  C   UNL d   1      29.093  17.767 -24.987  0.00  0.00     0.181 C 
ENDBRANCH   3  21
BRANCH   1  23
ATOM     23  C   UNL d   1      28.455  15.806 -23.656  0.00  0.00     0.298 C 
ATOM     24  O   UNL d   1      28.064  15.515 -24.331  0.00  0.00    -0.259 OA
BRANCH  23  25
ATOM     25  O   UNL d   1      28.051  15.879 -22.946  0.00  0.00    -0.296 OA
ATOM     26  C   UNL d   1      27.222  15.861 -22.922  0.00  0.00     0.185 C 
ENDBRANCH  23  25
ENDBRANCH   1  23
TORSDOF 6
ENDMDL
MODEL 2
REMARK VINA RESULT:      -0.9      3.134      5.409
REMARK  6 active torsions:
REMARK  status: ('A' for Active; 'I' for Inactive)
REMARK    1  A    between atoms: C_7  and  C_1 
REMARK       I    between atoms: C_2  and  N_4 
REMARK    2  A    between atoms: C_10  and  C_2 
REMARK    3  A    between atoms: N_4  and  C_3 
REMARK    4  A    between atoms: O_20  and  C_5 
REMARK    5  A    between atoms: O_21  and  C_7 
REMARK    6  A    between atoms: C_11  and  C_12 
ROOT
ATOM      1  C   UNL d   1      32.671  21.655 -21.578  0.00  0.00     0.086 A 
ATOM      2  C   UNL d   1      32.813  20.532 -22.791  0.00  0.00     0.148 A 
ATOM      3  C   UNL d   1      32.751  20.843 -21.410  0.00  0.00     0.102 A 
ATOM      4  C   UNL d   1      32.663  21.903 -22.375  0.00  0.00     0.021 A 
ATOM      5  C   UNL d   1      32.821  20.289 -22.011  0.00  0.00     0.057 A 
ATOM      6  C   UNL d   1      32.734  21.339 -22.987  0.00  0.00     0.088 A 
ATOM      7 CL   UNL d   1      32.725  21.589 -23.767  0.00  0.00    -0.080 Cl
ENDROOT
BRANCH   2   8
ATOM      8  N   UNL d   1      32.882  19.986 -23.414  0.00  0.00    -0.364 NA
ATOM      9  C   UNL d   1      32.939  19.417 -24.015  0.00  0.00     0.328 C 
ATOM     10  O   UNL d   1      33.236  19.649 -24.740  0.00  0.00    -0.251 OA
BRANCH   9  11
ATOM     11  C   UNL d   1      32.704  18.660 -23.876  0.00  0.00     0.070 A 
ATOM     12  C   UNL d   1      32.003  18.383 -24.213  0.00  0.00     0.006 A 
ATOM     13  C   UNL d   1      31.748  17.609 -24.081  0.00  0.00    -0.004 A 
ATOM     14  C   UNL d   1      32.202  17.100 -23.602  0.00  0.00    -0.023 A 
ATOM     15  C   UNL d   1      32.900  17.370 -23.264  0.00  0.00    -0.004 A 
ATOM     16  C   UNL d   1      33.145  18.153 -23.406  0.00  0.00     0.006 A 
BRANCH  14  17
ATOM     17  C   UNL d   1      31.935  16.321 -23.475  0.00  0.00     0.019 C 
ATOM     18  C   UNL d   1      32.313  15.692 -23.830  0.00  0.00     0.004 C 
ATOM     19  C   UNL d   1      31.278  16.207 -22.982  0.00  0.00     0.004 C 
ATOM     20  C   UNL d   1      32.581  16.236 -23.981  0.00  0.00     0.004 C 
ENDBRANCH  14  17
ENDBRANCH   9  11
ENDBRANCH   2   8
BRANCH   3  21
ATOM     21  O   UNL d   1      32.760  20.591 -20.633  0.00  0.00    -0.328 OA
ATOM     22  C   UNL d   1      33.240  19.935 -20.415  0.00  0.00     0.181 C 
ENDBRANCH   3  21
BRANCH   1  23
ATOM     23  C   UNL d   1      32.602  22.198 -20.974  0.00  0.00     0.298 C 
ATOM     24  O   UNL d   1      33.226  22.725 -20.818  0.00  0.00    -0.259 OA
BRANCH  23  25
ATOM     25  O   UNL d   1      31.919  22.223 -20.521  0.00  0.00    -0.296 OA
ATOM     26  C   UNL d   1      31.568  22.946 -20.318  0.00  0.00     0.185 C 
ENDBRANCH  23  25
ENDBRANCH   1  23
TORSDOF 6
ENDMDL
MODEL 3
REMARK VINA RESULT:      -0.1      3.668      5.842
REMARK  6 active torsions:
REMARK  status: ('A' for Active; 'I' for Inactive)
REMARK    1  A    between atoms: C_7  and  C_1 
REMARK       I    between atoms: C_2  and  N_4 
REMARK    2  A    between atoms: C_10  and  C_2 
REMARK    3  A    between atoms: N_4  and  C_3 
REMARK    4  A    between atoms: O_20  and  C_5 
REMARK    5  A    between atoms: O_21  and  C_7 
REMARK    6  A    between atoms: C_11  and  C_12 
ROOT
ATOM      1  C   UNL d   1      32.633  22.119 -20.724  0.00  0.00     0.086 A 
ATOM      2  C   UNL d   1      32.841  21.295 -22.148  0.00  0.00     0.148 A 
ATOM      3  C   UNL d   1      32.944  21.346 -20.736  0.00  0.00     0.102 A 
ATOM      4  C   UNL d   1      32.424  22.481 -21.447  0.00  0.00     0.021 A 
ATOM      5  C   UNL d   1      33.046  20.940 -21.441  0.00  0.00     0.057 A 
ATOM      6  C   UNL d   1      32.528  22.067 -22.165  0.00  0.00     0.088 A 
ATOM      7 CL   UNL d   1      32.320  22.429 -22.870  0.00  0.00    -0.080 Cl
ENDROOT
BRANCH   2   8
ATOM      8  N   UNL d   1      32.937  20.899 -22.873  0.00  0.00    -0.364 NA
ATOM      9  C   UNL d   1      33.026  20.475 -23.581  0.00  0.00     0.328 C 
ATOM     10  O   UNL d   1      33.230  20.888 -24.255  0.00  0.00    -0.251 OA
BRANCH   9  11
ATOM     11  C   UNL d   1      32.910  19.679 -23.590  0.00  0.00     0.070 A 
ATOM     12  C   UNL d   1      33.162  19.224 -22.950  0.00  0.00     0.006 A 
ATOM     13  C   UNL d   1      33.052  18.406 -22.943  0.00  0.00    -0.004 A 
ATOM     14  C   UNL d   1      32.681  18.033 -23.591  0.00  0.00    -0.023 A 
ATOM     15  C   UNL d   1      32.428  18.480 -24.231  0.00  0.00    -0.004 A 
ATOM     16  C   UNL d   1      32.547  19.305 -24.223  0.00  0.00     0.006 A 
BRANCH  14  17
ATOM     17  C   UNL d   1      32.575  17.207 -23.573  0.00  0.00     0.019 C 
ATOM     18  C   UNL d   1      31.834  16.884 -23.676  0.00  0.00     0.004 C 
ATOM     19  C   UNL d   1      33.241  16.728 -23.449  0.00  0.00     0.004 C 
ATOM     20  C   UNL d   1      31.818  17.508 -23.704  0.00  0.00     0.004 C 
ENDBRANCH  14  17
ENDBRANCH   9  11
ENDBRANCH   2   8
BRANCH   3  21
ATOM     21  O   UNL d   1      33.151  20.984 -20.034  0.00  0.00    -0.328 OA
ATOM     22  C   UNL d   1      33.236  20.147 -20.007  0.00  0.00     0.181 C 
ENDBRANCH   3  21
BRANCH   1  23
ATOM     23  C   UNL d   1      32.535  22.515 -20.018  0.00  0.00     0.298 C 
ATOM     24  O   UNL d   1      31.857  22.377 -19.557  0.00  0.00    -0.259 OA
BRANCH  23  25
ATOM     25  O   UNL d   1      33.105  23.047 -19.764  0.00  0.00    -0.296 OA
ATOM     26  C   UNL d   1      33.027  23.442 -19.039  0.00  0.00     0.185 C 
ENDBRANCH  23  25
ENDBRANCH   1  23
TORSDOF 6
ENDMDL
MODEL 4
REMARK VINA RESULT:       0.1      2.504      5.120
REMARK  6 active torsions:
REMARK  status: ('A' for Active; 'I' for Inactive)
REMARK    1  A    between atoms: C_7  and  C_1 
REMARK       I    between atoms: C_2  and  N_4 
REMARK    2  A    between atoms: C_10  and  C_2 
REMARK    3  A    between atoms: N_4  and  C_3 
REMARK    4  A    between atoms: O_20  and  C_5 
REMARK    5  A    between atoms: O_21  and  C_7 
REMARK    6  A    between atoms: C_11  and  C_12 
ROOT
ATOM      1  C   UNL d   1      32.643  20.932 -22.479  0.00  0.00     0.086 A 
ATOM      2  C   UNL d   1      32.641  19.468 -23.258  0.00  0.00     0.148 A 
ATOM      3  C   UNL d   1      32.715  20.216 -22.058  0.00  0.00     0.102 A 
ATOM      4  C   UNL d   1      32.568  20.905 -23.310  0.00  0.00     0.021 A 
ATOM      5  C   UNL d   1      32.714  19.493 -22.445  0.00  0.00     0.057 A 
ATOM      6  C   UNL d   1      32.567  20.168 -23.704  0.00  0.00     0.088 A 
ATOM      7 CL   UNL d   1      32.493  20.149 -24.520  0.00  0.00    -0.080 Cl
ENDROOT
BRANCH   2   8
ATOM      8  N   UNL d   1      32.638  18.744 -23.669  0.00  0.00    -0.364 NA
ATOM      9  C   UNL d   1      32.603  18.016 -24.066  0.00  0.00     0.328 C 
ATOM     10  O   UNL d   1      33.240  17.798 -24.529  0.00  0.00    -0.251 OA
BRANCH   9  11
ATOM     11  C   UNL d   1      31.955  17.546 -23.989  0.00  0.00     0.070 A 
ATOM     12  C   UNL d   1      31.276  17.714 -24.428  0.00  0.00     0.006 A 
ATOM     13  C   UNL d   1      30.603  17.242 -24.361  0.00  0.00    -0.004 A 
ATOM     14  C   UNL d   1      30.606  16.587 -23.844  0.00  0.00    -0.023 A 
ATOM     15  C   UNL d   1      31.277  16.415 -23.405  0.00  0.00    -0.004 A 
ATOM     16  C   UNL d   1      31.950  16.901 -23.483  0.00  0.00     0.006 A 
BRANCH  14  17
ATOM     17  C   UNL d   1      29.920  16.118 -23.785  0.00  0.00     0.019 C 
ATOM     18  C   UNL d   1      29.862  15.543 -23.210  0.00  0.00     0.004 C 
ATOM     19  C   UNL d   1      29.304  16.253 -24.324  0.00  0.00     0.004 C 
ATOM     20  C   UNL d   1      30.409  15.844 -23.180  0.00  0.00     0.004 C 
ENDBRANCH  14  17
ENDBRANCH   9  11
ENDBRANCH   2   8
BRANCH   3  21
ATOM     21  O   UNL d   1      32.789  20.232 -21.245  0.00  0.00    -0.328 OA
ATOM     22  C   UNL d   1      33.040  19.541 -20.836  0.00  0.00     0.181 C 
ENDBRANCH   3  21
BRANCH   1  23
ATOM     23  C   UNL d   1      32.645  21.645 -22.085  0.00  0.00     0.298 C 
ATOM     24  O   UNL d   1      33.241  22.204 -22.243  0.00  0.00    -0.259 OA
BRANCH  23  25
ATOM     25  O   UNL d   1      32.060  21.812 -21.535  0.00  0.00    -0.296 OA
ATOM     26  C   UNL d   1      32.028  22.549 -21.155  0.00  0.00     0.185 C 
ENDBRANCH  23  25
ENDBRANCH   1  23
TORSDOF 6
ENDMDL
