MODEL 1
REMARK VINA RESULT:      -3.0      0.000      0.000
REMARK  4 active torsions:
REMARK  status: ('A' for Active; 'I' for Inactive)
REMARK    1  A    between atoms: C_6  and  C_1 
REMARK    2  A    between atoms: C_3  and  C_5 
REMARK    3  A    between atoms: C_5  and  C_6 
REMARK    4  A    between atoms: C_17  and  C_13 
ROOT
ATOM      1  C   UNL d   1      32.616  20.749 -21.682  0.00  0.00     0.202 C 
ATOM      2  O   UNL d   1      31.837  20.442 -21.692  0.00  0.00    -0.286 OA
ENDROOT
BRANCH   1   3
ATOM      3  C   UNL d   1      32.746  21.491 -21.305  0.00  0.00     0.078 A 
ATOM      4  C   UNL d   1      33.010  21.491 -20.495  0.00  0.00     0.202 A 
ATOM      5  C   UNL d   1      33.138  22.218 -20.127  0.00  0.00     0.084 A 
ATOM      6  O   UNL d   1      33.132  20.778 -20.099  0.00  0.00    -0.286 OA
ATOM      7  C   UNL d   1      33.017  22.922 -20.523  0.00  0.00     0.199 A 
ATOM      8  C   UNL d   1      32.757  22.921 -21.320  0.00  0.00     0.039 A 
ATOM      9  O   UNL d   1      33.145  23.659 -20.155  0.00  0.00    -0.286 OA
ATOM     10  C   UNL d   1      32.622  22.194 -21.711  0.00  0.00     0.010 A 
BRANCH   8  11
ATOM     11  C   UNL d   1      32.633  23.630 -21.725  0.00  0.00     0.003 C 
ATOM     12  C   UNL d   1      32.049  23.682 -22.331  0.00  0.00     0.000 C 
ENDBRANCH   8  11
ENDBRANCH   1   3
BRANCH   1  13
ATOM     13  C   UNL d   1      33.239  20.338 -22.033  0.00  0.00     0.081 C 
BRANCH  13  14
ATOM     14  C   UNL d   1      33.074  19.755 -22.610  0.00  0.00     0.166 A 
ATOM     15  N   UNL d   1      32.826  18.991 -22.460  0.00  0.00    -0.225 NA
ATOM     16  C   UNL d   1      32.730  18.608 -23.189  0.00  0.00     0.101 A 
ATOM     17  C   UNL d   1      32.494  17.842 -23.375  0.00  0.00     0.021 A 
ATOM     18  C   UNL d   1      32.920  19.140 -23.782  0.00  0.00     0.101 A 
ATOM     19  C   UNL d   1      32.441  17.590 -24.158  0.00  0.00     0.002 A 
ATOM     20  C   UNL d   1      32.635  18.133 -24.759  0.00  0.00     0.002 A 
ATOM     21  C   UNL d   1      32.873  18.904 -24.572  0.00  0.00     0.021 A 
ATOM     22  N   UNL d   1      33.135  19.854 -23.439  0.00  0.00    -0.225 NA
ENDBRANCH  13  14
ENDBRANCH   1  13
TORSDOF 4
ENDMDL
MODEL 2
REMARK VINA RESULT:      -2.5      1.863      5.220
REMARK  4 active torsions:
REMARK  status: ('A' for Active; 'I' for Inactive)
REMARK    1  A    between atoms: C_6  and  C_1 
REMARK    2  A    between atoms: C_3  and  C_5 
REMARK    3  A    between atoms: C_5  and  C_6 
REMARK    4  A    between atoms: C_17  and  C_13 
ROOT
ATOM      1  C   UNL d   1      32.532  18.594 -23.508  0.00  0.00     0.202 C 
ATOM      2  O   UNL d   1      31.812  19.013 -23.428  0.00  0.00    -0.286 OA
ENDROOT
BRANCH   1   3
ATOM      3  C   UNL d   1      32.513  17.839 -23.883  0.00  0.00     0.078 A 
ATOM      4  C   UNL d   1      32.773  17.784 -24.692  0.00  0.00     0.202 A 
ATOM      5  C   UNL d   1      32.754  17.045 -25.058  0.00  0.00     0.084 A 
ATOM      6  O   UNL d   1      33.034  18.457 -25.091  0.00  0.00    -0.286 OA
ATOM      7  C   UNL d   1      32.495  16.381 -24.660  0.00  0.00     0.199 A 
ATOM      8  C   UNL d   1      32.240  16.435 -23.863  0.00  0.00     0.039 A 
ATOM      9  O   UNL d   1      32.475  15.632 -25.025  0.00  0.00    -0.286 OA
ATOM     10  C   UNL d   1      32.251  17.176 -23.475  0.00  0.00     0.010 A 
BRANCH   8  11
ATOM     11  C   UNL d   1      31.977  15.767 -23.456  0.00  0.00     0.003 C 
ATOM     12  C   UNL d   1      31.196  15.737 -23.138  0.00  0.00     0.000 C 
ENDBRANCH   8  11
ENDBRANCH   1   3
BRANCH   1  13
ATOM     13  C   UNL d   1      33.241  18.909 -23.229  0.00  0.00     0.081 C 
BRANCH  13  14
ATOM     14  C   UNL d   1      33.222  19.528 -22.666  0.00  0.00     0.166 A 
ATOM     15  N   UNL d   1      33.207  19.434 -21.854  0.00  0.00    -0.225 NA
ATOM     16  C   UNL d   1      33.192  20.189 -21.511  0.00  0.00     0.101 A 
ATOM     17  C   UNL d   1      33.173  20.431 -20.725  0.00  0.00     0.021 A 
ATOM     18  C   UNL d   1      33.197  20.741 -22.117  0.00  0.00     0.101 A 
ATOM     19  C   UNL d   1      33.160  21.230 -20.525  0.00  0.00     0.002 A 
ATOM     20  C   UNL d   1      33.165  21.789 -21.142  0.00  0.00     0.002 A 
ATOM     21  C   UNL d   1      33.184  21.546 -21.933  0.00  0.00     0.021 A 
ATOM     22  N   UNL d   1      33.216  20.347 -22.836  0.00  0.00    -0.225 NA
ENDBRANCH  13  14
ENDBRANCH   1  13
TORSDOF 4
ENDMDL
MODEL 3
REMARK VINA RESULT:      -1.7      0.685      1.599
REMARK  4 active torsions:
REMARK  status: ('A' for Active; 'I' for Inactive)
REMARK    1  A    between atoms: C_6  and  C_1 
REMARK    2  A    between atoms: C_3  and  C_5 
REMARK    3  A    between atoms: C_5  and  C_6 
REMARK    4  A    between atoms: C_17  and  C_13 
ROOT
ATOM      1  C   UNL d   1      32.632  20.741 -21.749  0.00  0.00     0.202 C 
ATOM      2  O   UNL d   1      31.849  20.444 -21.739  0.00  0.00    -0.286 OA
ENDROOT
BRANCH   1   3
ATOM      3  C   UNL d   1      32.786  21.474 -21.363  0.00  0.00     0.078 A 
ATOM      4  C   UNL d   1      32.779  22.186 -21.830  0.00  0.00     0.202 A 
ATOM      5  C   UNL d   1      32.929  22.903 -21.451  0.00  0.00     0.084 A 
ATOM      6  O   UNL d   1      32.625  22.149 -22.640  0.00  0.00    -0.286 OA
ATOM      7  C   UNL d   1      33.081  22.935 -20.649  0.00  0.00     0.199 A 
ATOM      8  C   UNL d   1      33.088  22.234 -20.190  0.00  0.00     0.039 A 
ATOM      9  O   UNL d   1      33.234  23.657 -20.261  0.00  0.00    -0.286 OA
ATOM     10  C   UNL d   1      32.937  21.498 -20.556  0.00  0.00     0.010 A 
BRANCH   8  11
ATOM     11  C   UNL d   1      33.241  22.262 -19.379  0.00  0.00     0.003 C 
ATOM     12  C   UNL d   1      33.239  21.555 -18.917  0.00  0.00     0.000 C 
ENDBRANCH   8  11
ENDBRANCH   1   3
BRANCH   1  13
ATOM     13  C   UNL d   1      33.238  20.328 -22.127  0.00  0.00     0.081 C 
BRANCH  13  14
ATOM     14  C   UNL d   1      33.064  19.611 -22.521  0.00  0.00     0.166 A 
ATOM     15  N   UNL d   1      32.743  19.543 -23.270  0.00  0.00    -0.225 NA
ATOM     16  C   UNL d   1      32.663  18.734 -23.438  0.00  0.00     0.101 A 
ATOM     17  C   UNL d   1      32.376  18.342 -24.102  0.00  0.00     0.021 A 
ATOM     18  C   UNL d   1      32.936  18.313 -22.791  0.00  0.00     0.101 A 
ATOM     19  C   UNL d   1      32.354  17.519 -24.136  0.00  0.00     0.002 A 
ATOM     20  C   UNL d   1      32.633  17.093 -23.476  0.00  0.00     0.002 A 
ATOM     21  C   UNL d   1      32.922  17.487 -22.808  0.00  0.00     0.021 A 
ATOM     22  N   UNL d   1      33.187  18.841 -22.216  0.00  0.00    -0.225 NA
ENDBRANCH  13  14
ENDBRANCH   1  13
TORSDOF 4
ENDMDL
MODEL 4
REMARK VINA RESULT:      -1.4      1.385      2.202
REMARK  4 active torsions:
REMARK  status: ('A' for Active; 'I' for Inactive)
REMARK    1  A    between atoms: C_6  and  C_1 
REMARK    2  A    between atoms: C_3  and  C_5 
REMARK    3  A    between atoms: C_5  and  C_6 
REMARK    4  A    between atoms: C_17  and  C_13 
ROOT
ATOM      1  C   UNL d   1      33.113  19.769 -23.122  0.00  0.00     0.202 C 
ATOM      2  O   UNL d   1      33.067  19.753 -23.957  0.00  0.00    -0.286 OA
ENDROOT
BRANCH   1   3
ATOM      3  C   UNL d   1      33.144  20.519 -22.738  0.00  0.00     0.078 A 
ATOM      4  C   UNL d   1      33.208  21.217 -23.223  0.00  0.00     0.202 A 
ATOM      5  C   UNL d   1      33.238  21.950 -22.846  0.00  0.00     0.084 A 
ATOM      6  O   UNL d   1      33.238  21.151 -24.044  0.00  0.00    -0.286 OA
ATOM      7  C   UNL d   1      33.208  22.012 -22.032  0.00  0.00     0.199 A 
ATOM      8  C   UNL d   1      33.145  21.324 -21.557  0.00  0.00     0.039 A 
ATOM      9  O   UNL d   1      33.239  22.750 -21.648  0.00  0.00    -0.286 OA
ATOM     10  C   UNL d   1      33.113  20.571 -21.920  0.00  0.00     0.010 A 
BRANCH   8  11
ATOM     11  C   UNL d   1      33.115  21.381 -20.734  0.00  0.00     0.003 C 
ATOM     12  C   UNL d   1      32.378  21.496 -20.338  0.00  0.00     0.000 C 
ENDBRANCH   8  11
ENDBRANCH   1   3
BRANCH   1  13
ATOM     13  C   UNL d   1      33.128  19.070 -22.684  0.00  0.00     0.081 C 
BRANCH  13  14
ATOM     14  C   UNL d   1      32.835  18.365 -23.025  0.00  0.00     0.166 A 
ATOM     15  N   UNL d   1      32.105  18.274 -23.382  0.00  0.00    -0.225 NA
ATOM     16  C   UNL d   1      32.046  17.488 -23.642  0.00  0.00     0.101 A 
ATOM     17  C   UNL d   1      31.443  17.088 -24.033  0.00  0.00     0.021 A 
ATOM     18  C   UNL d   1      32.741  17.103 -23.442  0.00  0.00     0.101 A 
ATOM     19  C   UNL d   1      31.519  16.293 -24.234  0.00  0.00     0.002 A 
ATOM     20  C   UNL d   1      32.227  15.903 -24.030  0.00  0.00     0.002 A 
ATOM     21  C   UNL d   1      32.834  16.306 -23.636  0.00  0.00     0.021 A 
ATOM     22  N   UNL d   1      33.238  17.632 -23.060  0.00  0.00    -0.225 NA
ENDBRANCH  13  14
ENDBRANCH   1  13
TORSDOF 4
ENDMDL
MODEL 5
REMARK VINA RESULT:      -0.5      2.373      3.929
REMARK  4 active torsions:
REMARK  status: ('A' for Active; 'I' for Inactive)
REMARK    1  A    between atoms: C_6  and  C_1 
REMARK    2  A    between atoms: C_3  and  C_5 
REMARK    3  A    between atoms: C_5  and  C_6 
REMARK    4  A    between atoms: C_17  and  C_13 
ROOT
ATOM      1  C   UNL d   1      32.605  17.777 -23.743  0.00  0.00     0.202 C 
ATOM      2  O   UNL d   1      32.907  17.271 -23.149  0.00  0.00    -0.286 OA
ENDROOT
BRANCH   1   3
ATOM      3  C   UNL d   1      32.759  18.603 -23.680  0.00  0.00     0.078 A 
ATOM      4  C   UNL d   1      33.013  19.021 -24.378  0.00  0.00     0.202 A 
ATOM      5  C   UNL d   1      33.164  19.829 -24.315  0.00  0.00     0.084 A 
ATOM      6  O   UNL d   1      33.102  18.619 -25.092  0.00  0.00    -0.286 OA
ATOM      7  C   UNL d   1      33.074  20.224 -23.606  0.00  0.00     0.199 A 
ATOM      8  C   UNL d   1      32.825  19.813 -22.919  0.00  0.00     0.039 A 
ATOM      9  O   UNL d   1      33.225  21.041 -23.537  0.00  0.00    -0.286 OA
ATOM     10  C   UNL d   1      32.667  18.992 -22.963  0.00  0.00     0.010 A 
BRANCH   8  11
ATOM     11  C   UNL d   1      32.733  20.207 -22.200  0.00  0.00     0.003 C 
ATOM     12  C   UNL d   1      33.025  19.869 -21.484  0.00  0.00     0.000 C 
ENDBRANCH   8  11
ENDBRANCH   1   3
BRANCH   1  13
ATOM     13  C   UNL d   1      32.168  17.477 -24.375  0.00  0.00     0.081 C 
BRANCH  13  14
ATOM     14  C   UNL d   1      31.467  17.046 -24.222  0.00  0.00     0.166 A 
ATOM     15  N   UNL d   1      31.337  16.558 -23.579  0.00  0.00    -0.225 NA
ATOM     16  C   UNL d   1      30.572  16.246 -23.649  0.00  0.00     0.101 A 
ATOM     17  C   UNL d   1      30.149  15.728 -23.168  0.00  0.00     0.021 A 
ATOM     18  C   UNL d   1      30.238  16.545 -24.334  0.00  0.00     0.101 A 
ATOM     19  C   UNL d   1      29.382  15.497 -23.362  0.00  0.00     0.002 A 
ATOM     20  C   UNL d   1      29.045  15.803 -24.060  0.00  0.00     0.002 A 
ATOM     21  C   UNL d   1      29.470  16.323 -24.543  0.00  0.00     0.021 A 
ATOM     22  N   UNL d   1      30.779  17.041 -24.699  0.00  0.00    -0.225 NA
ENDBRANCH  13  14
ENDBRANCH   1  13
TORSDOF 4
ENDMDL
