MODEL 1
REMARK VINA RESULT:      -8.5      0.000      0.000
REMARK  4 active torsions:
REMARK  status: ('A' for Active; 'I' for Inactive)
REMARK    1  A    between atoms: C_7  and  N_1 
REMARK    2  A    between atoms: C_10  and  C_5 
REMARK    3  A    between atoms: N_6  and  C_9 
REMARK    4  A    between atoms: O_18  and  C_13 
ROOT
ATOM      1  N   UNL d   1      52.534  33.756  53.583  0.00  0.00    -0.279 N 
ATOM      2  C   UNL d   1      52.786  34.492  53.307  0.00  0.00     0.206 A 
ATOM      3  N   UNL d   1      52.168  34.826  52.912  0.00  0.00    -0.217 NA
ATOM      4  C   UNL d   1      51.756  33.656  53.347  0.00  0.00     0.101 A 
ATOM      5  C   UNL d   1      51.553  34.319  52.940  0.00  0.00     0.101 A 
ATOM      6  S   UNL d   1      53.555  34.822  53.424  0.00  0.00    -0.038 SA
ENDROOT
BRANCH   5   7
ATOM      7  C   UNL d   1      50.804  34.390  52.629  0.00  0.00     0.019 A 
ATOM      8  C   UNL d   1      50.075  34.498  52.984  0.00  0.00     0.003 A 
ATOM      9  C   UNL d   1      49.378  34.553  52.521  0.00  0.00     0.024 A 
ATOM     10  C   UNL d   1      49.426  34.498  51.708  0.00  0.00     0.127 A 
ATOM     11  C   UNL d   1      50.175  34.387  51.346  0.00  0.00     0.024 A 
ATOM     12  C   UNL d   1      50.852  34.335  51.816  0.00  0.00     0.003 A 
BRANCH  10  13
ATOM     13  N   UNL d   1      48.741  34.552  51.249  0.00  0.00    -0.114 N 
ATOM     14  O   UNL d   1      48.588  33.995  50.673  0.00  0.00    -0.532 OA
ATOM     15  O   UNL d   1      48.209  35.175  51.376  0.00  0.00    -0.532 OA
ENDBRANCH  10  13
ENDBRANCH   5   7
BRANCH   1  16
ATOM     16  C   UNL d   1      53.047  33.259  54.021  0.00  0.00     0.088 A 
ATOM     17  C   UNL d   1      53.183  32.480  53.781  0.00  0.00     0.110 A 
ATOM     18  C   UNL d   1      53.678  32.007  54.207  0.00  0.00     0.026 A 
ATOM     19  C   UNL d   1      54.060  32.289  54.891  0.00  0.00     0.002 A 
ATOM     20  C   UNL d   1      53.934  33.067  55.144  0.00  0.00     0.002 A 
ATOM     21  C   UNL d   1      53.414  33.553  54.690  0.00  0.00     0.020 A 
BRANCH  17  22
ATOM     22  O   UNL d   1      52.784  32.200  53.074  0.00  0.00    -0.327 OA
ATOM     23  C   UNL d   1      52.863  31.389  52.873  0.00  0.00     0.181 C 
ENDBRANCH  17  22
ENDBRANCH   1  16
TORSDOF 4
ENDMDL
MODEL 2
REMARK VINA RESULT:      -8.5      2.272      4.421
REMARK  4 active torsions:
REMARK  status: ('A' for Active; 'I' for Inactive)
REMARK    1  A    between atoms: C_7  and  N_1 
REMARK    2  A    between atoms: C_10  and  C_5 
REMARK    3  A    between atoms: N_6  and  C_9 
REMARK    4  A    between atoms: O_18  and  C_13 
ROOT
ATOM      1  N   UNL d   1      53.566  33.332  53.988  0.00  0.00    -0.279 N 
ATOM      2  C   UNL d   1      54.369  33.169  53.887  0.00  0.00     0.206 A 
ATOM      3  N   UNL d   1      54.439  32.380  53.742  0.00  0.00    -0.217 NA
ATOM      4  C   UNL d   1      53.159  32.626  53.901  0.00  0.00     0.101 A 
ATOM      5  C   UNL d   1      53.710  32.060  53.752  0.00  0.00     0.101 A 
ATOM      6  S   UNL d   1      54.993  33.737  53.930  0.00  0.00    -0.038 SA
ENDROOT
BRANCH   5   7
ATOM      7  C   UNL d   1      53.476  31.288  53.638  0.00  0.00     0.019 A 
ATOM      8  C   UNL d   1      53.155  30.907  52.988  0.00  0.00     0.003 A 
ATOM      9  C   UNL d   1      52.962  30.091  53.025  0.00  0.00     0.024 A 
ATOM     10  C   UNL d   1      53.095  29.673  53.713  0.00  0.00     0.127 A 
ATOM     11  C   UNL d   1      53.423  30.067  54.377  0.00  0.00     0.024 A 
ATOM     12  C   UNL d   1      53.608  30.870  54.326  0.00  0.00     0.003 A 
BRANCH  10  13
ATOM     13  N   UNL d   1      52.905  28.870  53.752  0.00  0.00    -0.114 N 
ATOM     14  O   UNL d   1      52.451  28.527  53.167  0.00  0.00    -0.532 OA
ATOM     15  O   UNL d   1      53.179  28.413  54.387  0.00  0.00    -0.532 OA
ENDBRANCH  10  13
ENDBRANCH   5   7
BRANCH   1  16
ATOM     16  C   UNL d   1      53.299  34.109  54.148  0.00  0.00     0.088 A 
ATOM     17  C   UNL d   1      52.765  34.482  53.640  0.00  0.00     0.110 A 
ATOM     18  C   UNL d   1      52.511  35.231  53.800  0.00  0.00     0.026 A 
ATOM     19  C   UNL d   1      52.778  35.641  54.474  0.00  0.00     0.002 A 
ATOM     20  C   UNL d   1      53.313  35.280  54.992  0.00  0.00     0.002 A 
ATOM     21  C   UNL d   1      53.572  34.497  54.815  0.00  0.00     0.020 A 
BRANCH  17  22
ATOM     22  O   UNL d   1      52.496  34.050  52.948  0.00  0.00    -0.327 OA
ATOM     23  C   UNL d   1      51.886  34.391  52.485  0.00  0.00     0.181 C 
ENDBRANCH  17  22
ENDBRANCH   1  16
TORSDOF 4
ENDMDL
MODEL 3
REMARK VINA RESULT:      -6.1      2.074      5.205
REMARK  4 active torsions:
REMARK  status: ('A' for Active; 'I' for Inactive)
REMARK    1  A    between atoms: C_7  and  N_1 
REMARK    2  A    between atoms: C_10  and  C_5 
REMARK    3  A    between atoms: N_6  and  C_9 
REMARK    4  A    between atoms: O_18  and  C_13 
ROOT
ATOM      1  N   UNL d   1      48.656  35.053  52.125  0.00  0.00    -0.279 N 
ATOM      2  C   UNL d   1      48.884  34.755  51.390  0.00  0.00     0.206 A 
ATOM      3  N   UNL d   1      49.589  34.378  51.490  0.00  0.00    -0.217 NA
ATOM      4  C   UNL d   1      49.236  34.847  52.666  0.00  0.00     0.101 A 
ATOM      5  C   UNL d   1      49.794  34.437  52.257  0.00  0.00     0.101 A 
ATOM      6  S   UNL d   1      48.447  34.838  50.672  0.00  0.00    -0.038 SA
ENDROOT
BRANCH   5   7
ATOM      7  C   UNL d   1      50.452  34.153  52.645  0.00  0.00     0.019 A 
ATOM      8  C   UNL d   1      50.531  33.658  53.292  0.00  0.00     0.003 A 
ATOM      9  C   UNL d   1      51.291  33.452  53.581  0.00  0.00     0.024 A 
ATOM     10  C   UNL d   1      51.958  33.746  53.216  0.00  0.00     0.127 A 
ATOM     11  C   UNL d   1      51.874  34.254  52.553  0.00  0.00     0.024 A 
ATOM     12  C   UNL d   1      51.119  34.448  52.279  0.00  0.00     0.003 A 
BRANCH  10  13
ATOM     13  N   UNL d   1      52.708  33.545  53.499  0.00  0.00    -0.114 N 
ATOM     14  O   UNL d   1      53.038  33.961  54.119  0.00  0.00    -0.532 OA
ATOM     15  O   UNL d   1      53.124  32.918  53.151  0.00  0.00    -0.532 OA
ENDBRANCH  10  13
ENDBRANCH   5   7
BRANCH   1  16
ATOM     16  C   UNL d   1      47.941  35.480  52.217  0.00  0.00     0.088 A 
ATOM     17  C   UNL d   1      47.862  36.043  52.816  0.00  0.00     0.110 A 
ATOM     18  C   UNL d   1      47.171  36.450  52.899  0.00  0.00     0.026 A 
ATOM     19  C   UNL d   1      46.527  36.314  52.389  0.00  0.00     0.002 A 
ATOM     20  C   UNL d   1      46.591  35.753  51.784  0.00  0.00     0.002 A 
ATOM     21  C   UNL d   1      47.319  35.333  51.706  0.00  0.00     0.020 A 
BRANCH  17  22
ATOM     22  O   UNL d   1      48.532  36.175  53.336  0.00  0.00    -0.327 OA
ATOM     23  C   UNL d   1      48.433  36.708  53.977  0.00  0.00     0.181 C 
ENDBRANCH  17  22
ENDBRANCH   1  16
TORSDOF 4
ENDMDL
