MODEL 1
REMARK VINA RESULT:      -7.2      0.000      0.000
REMARK  6 active torsions:
REMARK  status: ('A' for Active; 'I' for Inactive)
REMARK    1  A    between atoms: C_3  and  C_1 
REMARK    2  A    between atoms: C_2  and  C_3 
REMARK    3  A    between atoms: C_4  and  C_2 
REMARK    4  A    between atoms: C_7  and  C_4 
REMARK    5  A    between atoms: O_17  and  C_5 
REMARK    6  A    between atoms: O_20  and  C_13 
ROOT
ATOM      1  C   UNL d   1     -48.564  13.118  22.731  0.00  0.00     0.042 C 
ENDROOT
BRANCH   1   2
ATOM      2  C   UNL d   1     -49.359  13.005  22.918  0.00  0.00     0.199 C 
ATOM      3  O   UNL d   1     -49.590  12.371  23.391  0.00  0.00    -0.286 OA
BRANCH   2   4
ATOM      4  C   UNL d   1     -49.928  13.532  22.628  0.00  0.00     0.079 A 
ATOM      5  C   UNL d   1     -50.438  13.296  22.020  0.00  0.00     0.199 A 
ATOM      6  C   UNL d   1     -51.007  13.826  21.730  0.00  0.00     0.043 A 
ATOM      7  O   UNL d   1     -50.386  12.536  21.698  0.00  0.00    -0.286 OA
ATOM      8  C   UNL d   1     -51.064  14.584  22.046  0.00  0.00     0.015 A 
ATOM      9  C   UNL d   1     -50.553  14.820  22.654  0.00  0.00     0.058 A 
ATOM     10  C   UNL d   1     -49.988  14.297  22.944  0.00  0.00     0.018 A 
ATOM     11 CL   UNL d   1     -50.611  15.579  22.970  0.00  0.00    -0.082 Cl
ENDBRANCH   2   4
ENDBRANCH   1   2
BRANCH   1  12
ATOM     12  C   UNL d   1     -47.985  12.734  23.171  0.00  0.00     0.005 C 
BRANCH  12  13
ATOM     13  C   UNL d   1     -47.191  12.835  22.981  0.00  0.00     0.022 A 
ATOM     14  C   UNL d   1     -46.627  12.283  23.237  0.00  0.00     0.096 A 
ATOM     15  C   UNL d   1     -45.832  12.383  23.047  0.00  0.00     0.048 A 
ATOM     16  C   UNL d   1     -45.594  13.034  22.601  0.00  0.00     0.096 A 
ATOM     17  C   UNL d   1     -46.158  13.588  22.345  0.00  0.00     0.024 A 
ATOM     18  C   UNL d   1     -46.954  13.483  22.538  0.00  0.00     0.004 A 
BRANCH  14  19
ATOM     19  O   UNL d   1     -46.863  11.637  23.678  0.00  0.00    -0.328 OA
ATOM     20  C   UNL d   1     -46.408  10.951  23.681  0.00  0.00     0.181 C 
ENDBRANCH  14  19
BRANCH  16  21
ATOM     21  O   UNL d   1     -44.806  13.145  22.406  0.00  0.00    -0.328 OA
ATOM     22  C   UNL d   1     -44.531  12.980  21.646  0.00  0.00     0.181 C 
ENDBRANCH  16  21
ENDBRANCH  12  13
ENDBRANCH   1  12
TORSDOF 6
ENDMDL
MODEL 2
REMARK VINA RESULT:      -6.8      0.913      1.659
REMARK  6 active torsions:
REMARK  status: ('A' for Active; 'I' for Inactive)
REMARK    1  A    between atoms: C_3  and  C_1 
REMARK    2  A    between atoms: C_2  and  C_3 
REMARK    3  A    between atoms: C_4  and  C_2 
REMARK    4  A    between atoms: C_7  and  C_4 
REMARK    5  A    between atoms: O_17  and  C_5 
REMARK    6  A    between atoms: O_20  and  C_13 
ROOT
ATOM      1  C   UNL d   1     -48.551  13.189  22.546  0.00  0.00     0.042 C 
ENDROOT
BRANCH   1   2
ATOM      2  C   UNL d   1     -49.128  13.607  22.130  0.00  0.00     0.199 C 
ATOM      3  O   UNL d   1     -49.093  13.658  21.308  0.00  0.00    -0.286 OA
BRANCH   2   4
ATOM      4  C   UNL d   1     -49.743  13.976  22.541  0.00  0.00     0.079 A 
ATOM      5  C   UNL d   1     -50.446  13.565  22.691  0.00  0.00     0.199 A 
ATOM      6  C   UNL d   1     -51.063  13.937  23.103  0.00  0.00     0.043 A 
ATOM      7  O   UNL d   1     -50.540  12.785  22.433  0.00  0.00    -0.286 OA
ATOM      8  C   UNL d   1     -50.976  14.713  23.363  0.00  0.00     0.015 A 
ATOM      9  C   UNL d   1     -50.273  15.125  23.213  0.00  0.00     0.058 A 
ATOM     10  C   UNL d   1     -49.659  14.759  22.804  0.00  0.00     0.018 A 
ATOM     11 CL   UNL d   1     -50.186  15.902  23.473  0.00  0.00    -0.082 Cl
ENDBRANCH   2   4
ENDBRANCH   1   2
BRANCH   1  12
ATOM     12  C   UNL d   1     -47.763  13.247  22.318  0.00  0.00     0.005 C 
BRANCH  12  13
ATOM     13  C   UNL d   1     -47.200  12.756  22.661  0.00  0.00     0.022 A 
ATOM     14  C   UNL d   1     -46.394  12.951  22.618  0.00  0.00     0.096 A 
ATOM     15  C   UNL d   1     -45.830  12.459  22.962  0.00  0.00     0.048 A 
ATOM     16  C   UNL d   1     -46.064  11.772  23.351  0.00  0.00     0.096 A 
ATOM     17  C   UNL d   1     -46.870  11.576  23.395  0.00  0.00     0.024 A 
ATOM     18  C   UNL d   1     -47.432  12.071  23.048  0.00  0.00     0.004 A 
BRANCH  14  19
ATOM     19  O   UNL d   1     -46.163  13.632  22.232  0.00  0.00    -0.328 OA
ATOM     20  C   UNL d   1     -45.389  13.905  22.306  0.00  0.00     0.181 C 
ENDBRANCH  14  19
BRANCH  16  21
ATOM     21  O   UNL d   1     -45.512  11.275  23.697  0.00  0.00    -0.328 OA
ATOM     22  C   UNL d   1     -45.450  10.485  23.468  0.00  0.00     0.181 C 
ENDBRANCH  16  21
ENDBRANCH  12  13
ENDBRANCH   1  12
TORSDOF 6
ENDMDL
MODEL 3
REMARK VINA RESULT:      -6.5      1.820      4.705
REMARK  6 active torsions:
REMARK  status: ('A' for Active; 'I' for Inactive)
REMARK    1  A    between atoms: C_3  and  C_1 
REMARK    2  A    between atoms: C_2  and  C_3 
REMARK    3  A    between atoms: C_4  and  C_2 
REMARK    4  A    between atoms: C_7  and  C_4 
REMARK    5  A    between atoms: O_17  and  C_5 
REMARK    6  A    between atoms: O_20  and  C_13 
ROOT
ATOM      1  C   UNL d   1     -47.378  13.430  22.661  0.00  0.00     0.042 C 
ENDROOT
BRANCH   1   2
ATOM      2  C   UNL d   1     -46.620  13.505  22.980  0.00  0.00     0.199 C 
ATOM      3  O   UNL d   1     -46.376  14.220  23.310  0.00  0.00    -0.286 OA
BRANCH   2   4
ATOM      4  C   UNL d   1     -46.105  12.858  22.967  0.00  0.00     0.079 A 
ATOM      5  C   UNL d   1     -45.374  12.919  22.582  0.00  0.00     0.199 A 
ATOM      6  C   UNL d   1     -44.858  12.270  22.570  0.00  0.00     0.043 A 
ATOM      7  O   UNL d   1     -45.154  13.623  22.207  0.00  0.00    -0.286 OA
ATOM      8  C   UNL d   1     -45.072  11.567  22.941  0.00  0.00     0.015 A 
ATOM      9  C   UNL d   1     -45.802  11.506  23.327  0.00  0.00     0.058 A 
ATOM     10  C   UNL d   1     -46.317  12.148  23.340  0.00  0.00     0.018 A 
ATOM     11 CL   UNL d   1     -46.015  10.802  23.698  0.00  0.00    -0.082 Cl
ENDBRANCH   2   4
ENDBRANCH   1   2
BRANCH   1  12
ATOM     12  C   UNL d   1     -47.910  14.053  22.729  0.00  0.00     0.005 C 
BRANCH  12  13
ATOM     13  C   UNL d   1     -48.665  13.985  22.408  0.00  0.00     0.022 A 
ATOM     14  C   UNL d   1     -49.277  14.479  22.672  0.00  0.00     0.096 A 
ATOM     15  C   UNL d   1     -50.032  14.410  22.351  0.00  0.00     0.048 A 
ATOM     16  C   UNL d   1     -50.182  13.850  21.767  0.00  0.00     0.096 A 
ATOM     17  C   UNL d   1     -49.570  13.354  21.502  0.00  0.00     0.024 A 
ATOM     18  C   UNL d   1     -48.814  13.427  21.826  0.00  0.00     0.004 A 
BRANCH  14  19
ATOM     19  O   UNL d   1     -49.128  15.035  23.252  0.00  0.00    -0.328 OA
ATOM     20  C   UNL d   1     -49.715  15.569  23.471  0.00  0.00     0.181 C 
ENDBRANCH  14  19
BRANCH  16  21
ATOM     21  O   UNL d   1     -50.930  13.772  21.440  0.00  0.00    -0.328 OA
ATOM     22  C   UNL d   1     -51.064  13.261  20.806  0.00  0.00     0.181 C 
ENDBRANCH  16  21
ENDBRANCH  12  13
ENDBRANCH   1  12
TORSDOF 6
ENDMDL
MODEL 4
REMARK VINA RESULT:      -6.2      8.034      9.969
REMARK  6 active torsions:
REMARK  status: ('A' for Active; 'I' for Inactive)
REMARK    1  A    between atoms: C_3  and  C_1 
REMARK    2  A    between atoms: C_2  and  C_3 
REMARK    3  A    between atoms: C_4  and  C_2 
REMARK    4  A    between atoms: C_7  and  C_4 
REMARK    5  A    between atoms: O_17  and  C_5 
REMARK    6  A    between atoms: O_20  and  C_13 
ROOT
ATOM      1  C   UNL d   1     -39.753  14.271  18.966  0.00  0.00     0.042 C 
ENDROOT
BRANCH   1   2
ATOM      2  C   UNL d   1     -40.028  14.061  18.217  0.00  0.00     0.199 C 
ATOM      3  O   UNL d   1     -40.779  13.734  18.126  0.00  0.00    -0.286 OA
BRANCH   2   4
ATOM      4  C   UNL d   1     -39.547  14.180  17.554  0.00  0.00     0.079 A 
ATOM      5  C   UNL d   1     -39.104  13.551  17.247  0.00  0.00     0.199 A 
ATOM      6  C   UNL d   1     -38.621  13.672  16.583  0.00  0.00     0.043 A 
ATOM      7  O   UNL d   1     -39.137  12.802  17.596  0.00  0.00    -0.286 OA
ATOM      8  C   UNL d   1     -38.583  14.415  16.231  0.00  0.00     0.015 A 
ATOM      9  C   UNL d   1     -39.026  15.044  16.538  0.00  0.00     0.058 A 
ATOM     10  C   UNL d   1     -39.506  14.928  17.197  0.00  0.00     0.018 A 
ATOM     11 CL   UNL d   1     -38.988  15.788  16.185  0.00  0.00    -0.082 Cl
ENDBRANCH   2   4
ENDBRANCH   1   2
BRANCH   1  12
ATOM     12  C   UNL d   1     -40.289  14.500  19.546  0.00  0.00     0.005 C 
BRANCH  12  13
ATOM     13  C   UNL d   1     -40.017  14.719  20.291  0.00  0.00     0.022 A 
ATOM     14  C   UNL d   1     -40.440  15.272  20.743  0.00  0.00     0.096 A 
ATOM     15  C   UNL d   1     -40.169  15.491  21.489  0.00  0.00     0.048 A 
ATOM     16  C   UNL d   1     -39.476  15.162  21.789  0.00  0.00     0.096 A 
ATOM     17  C   UNL d   1     -39.052  14.608  21.336  0.00  0.00     0.024 A 
ATOM     18  C   UNL d   1     -39.327  14.391  20.589  0.00  0.00     0.004 A 
BRANCH  14  19
ATOM     19  O   UNL d   1     -41.127  15.598  20.445  0.00  0.00    -0.328 OA
ATOM     20  C   UNL d   1     -41.685  15.922  20.958  0.00  0.00     0.181 C 
ENDBRANCH  14  19
BRANCH  16  21
ATOM     21  O   UNL d   1     -39.196  15.372  22.529  0.00  0.00    -0.328 OA
ATOM     22  C   UNL d   1     -38.700  14.868  22.954  0.00  0.00     0.181 C 
ENDBRANCH  16  21
ENDBRANCH  12  13
ENDBRANCH   1  12
TORSDOF 6
ENDMDL
MODEL 5
REMARK VINA RESULT:      -6.2      0.924      1.214
REMARK  6 active torsions:
REMARK  status: ('A' for Active; 'I' for Inactive)
REMARK    1  A    between atoms: C_3  and  C_1 
REMARK    2  A    between atoms: C_2  and  C_3 
REMARK    3  A    between atoms: C_4  and  C_2 
REMARK    4  A    between atoms: C_7  and  C_4 
REMARK    5  A    between atoms: O_17  and  C_5 
REMARK    6  A    between atoms: O_20  and  C_13 
ROOT
ATOM      1  C   UNL d   1     -47.379  13.187  22.854  0.00  0.00     0.042 C 
ENDROOT
BRANCH   1   2
ATOM      2  C   UNL d   1     -48.167  13.159  23.097  0.00  0.00     0.199 C 
ATOM      3  O   UNL d   1     -48.419  12.581  23.627  0.00  0.00    -0.286 OA
BRANCH   2   4
ATOM      4  C   UNL d   1     -48.705  13.716  22.806  0.00  0.00     0.079 A 
ATOM      5  C   UNL d   1     -49.309  13.478  22.292  0.00  0.00     0.199 A 
ATOM      6  C   UNL d   1     -49.848  14.037  22.001  0.00  0.00     0.043 A 
ATOM      7  O   UNL d   1     -49.380  12.686  22.064  0.00  0.00    -0.286 OA
ATOM      8  C   UNL d   1     -49.783  14.827  22.223  0.00  0.00     0.015 A 
ATOM      9  C   UNL d   1     -49.180  15.065  22.738  0.00  0.00     0.058 A 
ATOM     10  C   UNL d   1     -48.643  14.513  23.028  0.00  0.00     0.018 A 
ATOM     11 CL   UNL d   1     -49.115  15.856  22.960  0.00  0.00    -0.082 Cl
ENDBRANCH   2   4
ENDBRANCH   1   2
BRANCH   1  12
ATOM     12  C   UNL d   1     -46.861  12.591  23.085  0.00  0.00     0.005 C 
BRANCH  12  13
ATOM     13  C   UNL d   1     -46.093  12.578  22.791  0.00  0.00     0.022 A 
ATOM     14  C   UNL d   1     -45.545  12.027  23.081  0.00  0.00     0.096 A 
ATOM     15  C   UNL d   1     -44.775  12.015  22.788  0.00  0.00     0.048 A 
ATOM     16  C   UNL d   1     -44.548  12.550  22.204  0.00  0.00     0.096 A 
ATOM     17  C   UNL d   1     -45.097  13.102  21.913  0.00  0.00     0.024 A 
ATOM     18  C   UNL d   1     -45.866  13.111  22.211  0.00  0.00     0.004 A 
BRANCH  14  19
ATOM     19  O   UNL d   1     -45.770  11.497  23.660  0.00  0.00    -0.328 OA
ATOM     20  C   UNL d   1     -45.417  10.754  23.698  0.00  0.00     0.181 C 
ENDBRANCH  14  19
BRANCH  16  21
ATOM     21  O   UNL d   1     -43.785  12.547  21.904  0.00  0.00    -0.328 OA
ATOM     22  C   UNL d   1     -43.605  12.938  21.201  0.00  0.00     0.181 C 
ENDBRANCH  16  21
ENDBRANCH  12  13
ENDBRANCH   1  12
TORSDOF 6
ENDMDL
MODEL 6
REMARK VINA RESULT:      -6.0      8.567      9.827
REMARK  6 active torsions:
REMARK  status: ('A' for Active; 'I' for Inactive)
REMARK    1  A    between atoms: C_3  and  C_1 
REMARK    2  A    between atoms: C_2  and  C_3 
REMARK    3  A    between atoms: C_4  and  C_2 
REMARK    4  A    between atoms: C_7  and  C_4 
REMARK    5  A    between atoms: O_17  and  C_5 
REMARK    6  A    between atoms: O_20  and  C_13 
ROOT
ATOM      1  C   UNL d   1     -39.982  14.412  19.703  0.00  0.00     0.042 C 
ENDROOT
BRANCH   1   2
ATOM      2  C   UNL d   1     -40.363  14.455  20.433  0.00  0.00     0.199 C 
ATOM      3  O   UNL d   1     -41.185  14.421  20.477  0.00  0.00    -0.286 OA
BRANCH   2   4
ATOM      4  C   UNL d   1     -39.915  14.532  21.125  0.00  0.00     0.079 A 
ATOM      5  C   UNL d   1     -39.872  15.264  21.509  0.00  0.00     0.199 A 
ATOM      6  C   UNL d   1     -39.422  15.340  22.203  0.00  0.00     0.043 A 
ATOM      7  O   UNL d   1     -40.272  15.922  21.209  0.00  0.00    -0.286 OA
ATOM      8  C   UNL d   1     -39.021  14.689  22.508  0.00  0.00     0.015 A 
ATOM      9  C   UNL d   1     -39.065  13.957  22.123  0.00  0.00     0.058 A 
ATOM     10  C   UNL d   1     -39.509  13.878  21.435  0.00  0.00     0.018 A 
ATOM     11 CL   UNL d   1     -38.663  13.305  22.428  0.00  0.00    -0.082 Cl
ENDBRANCH   2   4
ENDBRANCH   1   2
BRANCH   1  12
ATOM     12  C   UNL d   1     -40.427  14.432  19.011  0.00  0.00     0.005 C 
BRANCH  12  13
ATOM     13  C   UNL d   1     -40.055  14.349  18.282  0.00  0.00     0.022 A 
ATOM     14  C   UNL d   1     -40.296  14.812  17.636  0.00  0.00     0.096 A 
ATOM     15  C   UNL d   1     -39.924  14.729  16.906  0.00  0.00     0.048 A 
ATOM     16  C   UNL d   1     -39.311  14.186  16.815  0.00  0.00     0.096 A 
ATOM     17  C   UNL d   1     -39.070  13.723  17.461  0.00  0.00     0.024 A 
ATOM     18  C   UNL d   1     -39.446  13.809  18.191  0.00  0.00     0.004 A 
BRANCH  14  19
ATOM     19  O   UNL d   1     -40.903  15.350  17.727  0.00  0.00    -0.328 OA
ATOM     20  C   UNL d   1     -41.222  15.727  17.067  0.00  0.00     0.181 C 
ENDBRANCH  14  19
BRANCH  16  21
ATOM     21  O   UNL d   1     -38.934  14.094  16.093  0.00  0.00    -0.328 OA
ATOM     22  C   UNL d   1     -38.131  13.908  16.056  0.00  0.00     0.181 C 
ENDBRANCH  16  21
ENDBRANCH  12  13
ENDBRANCH   1  12
TORSDOF 6
ENDMDL
MODEL 7
REMARK VINA RESULT:      -5.0      9.210     10.431
REMARK  6 active torsions:
REMARK  status: ('A' for Active; 'I' for Inactive)
REMARK    1  A    between atoms: C_3  and  C_1 
REMARK    2  A    between atoms: C_2  and  C_3 
REMARK    3  A    between atoms: C_4  and  C_2 
REMARK    4  A    between atoms: C_7  and  C_4 
REMARK    5  A    between atoms: O_17  and  C_5 
REMARK    6  A    between atoms: O_20  and  C_13 
ROOT
ATOM      1  C   UNL d   1     -39.193  14.819  19.247  0.00  0.00     0.042 C 
ENDROOT
BRANCH   1   2
ATOM      2  C   UNL d   1     -38.638  14.553  19.797  0.00  0.00     0.199 C 
ATOM      3  O   UNL d   1     -37.942  14.192  19.544  0.00  0.00    -0.286 OA
BRANCH   2   4
ATOM      4  C   UNL d   1     -38.783  14.650  20.606  0.00  0.00     0.079 A 
ATOM      5  C   UNL d   1     -38.515  15.330  20.995  0.00  0.00     0.199 A 
ATOM      6  C   UNL d   1     -38.661  15.425  21.806  0.00  0.00     0.043 A 
ATOM      7  O   UNL d   1     -38.102  15.916  20.583  0.00  0.00    -0.286 OA
ATOM      8  C   UNL d   1     -39.071  14.846  22.223  0.00  0.00     0.015 A 
ATOM      9  C   UNL d   1     -39.339  14.166  21.833  0.00  0.00     0.058 A 
ATOM     10  C   UNL d   1     -39.196  14.067  21.029  0.00  0.00     0.018 A 
ATOM     11 CL   UNL d   1     -39.749  13.586  22.250  0.00  0.00    -0.082 Cl
ENDBRANCH   2   4
ENDBRANCH   1   2
BRANCH   1  12
ATOM     12  C   UNL d   1     -39.096  14.637  18.451  0.00  0.00     0.005 C 
BRANCH  12  13
ATOM     13  C   UNL d   1     -39.650  14.897  17.901  0.00  0.00     0.022 A 
ATOM     14  C   UNL d   1     -39.496  14.824  17.089  0.00  0.00     0.096 A 
ATOM     15  C   UNL d   1     -40.050  15.084  16.537  0.00  0.00     0.048 A 
ATOM     16  C   UNL d   1     -40.759  15.417  16.791  0.00  0.00     0.096 A 
ATOM     17  C   UNL d   1     -40.914  15.490  17.605  0.00  0.00     0.024 A 
ATOM     18  C   UNL d   1     -40.356  15.228  18.153  0.00  0.00     0.004 A 
BRANCH  14  19
ATOM     19  O   UNL d   1     -38.792  14.494  16.837  0.00  0.00    -0.328 OA
ATOM     20  C   UNL d   1     -38.637  14.420  16.032  0.00  0.00     0.181 C 
ENDBRANCH  14  19
BRANCH  16  21
ATOM     21  O   UNL d   1     -41.318  15.679  16.252  0.00  0.00    -0.328 OA
ATOM     22  C   UNL d   1     -42.066  15.922  16.502  0.00  0.00     0.181 C 
ENDBRANCH  16  21
ENDBRANCH  12  13
ENDBRANCH   1  12
TORSDOF 6
ENDMDL
