MODEL 1
REMARK VINA RESULT:      23.4      0.000      0.000
REMARK  5 active torsions:
REMARK  status: ('A' for Active; 'I' for Inactive)
REMARK    1  A    between atoms: N_2  and  S_1 
REMARK    2  A    between atoms: C_3  and  S_1 
REMARK    3  A    between atoms: C_15  and  C_11 
REMARK    4  A    between atoms: O_17  and  C_12 
REMARK    5  A    between atoms: C_21  and  O_17 
ROOT
ATOM      1  C   UNL d   1      46.186 -17.710  43.526  0.00  0.00     0.128 A 
ATOM      2  C   UNL d   1      45.944 -16.923  43.494  0.00  0.00     0.015 A 
ATOM      3  C   UNL d   1      45.829 -16.498  44.192  0.00  0.00     0.001 A 
ATOM      4  C   UNL d   1      46.312 -18.071  44.254  0.00  0.00     0.112 A 
ATOM      5  C   UNL d   1      45.955 -16.860  44.921  0.00  0.00     0.002 A 
ATOM      6  C   UNL d   1      46.197 -17.646  44.952  0.00  0.00     0.025 A 
ENDROOT
BRANCH   1   7
ATOM      7  S   UNL d   1      46.302 -18.135  42.829  0.00  0.00     0.288 S 
ATOM      8  O   UNL d   1      46.623 -17.464  42.473  0.00  0.00    -0.198 OA
ATOM      9  O   UNL d   1      45.980 -18.806  43.184  0.00  0.00    -0.198 OA
BRANCH   7  10
ATOM     10  N   UNL d   1      46.417 -18.560  42.131  0.00  0.00    -0.152 N 
ATOM     11  N   UNL d   1      46.414 -19.379  42.053  0.00  0.00    -0.155 NA
ATOM     12  C   UNL d   1      46.551 -19.568  41.264  0.00  0.00     0.104 A 
ATOM     13  C   UNL d   1      46.592 -20.329  40.946  0.00  0.00     0.022 C 
ATOM     14  C   UNL d   1      46.640 -18.861  40.848  0.00  0.00     0.041 A 
ATOM     15  C   UNL d   1      46.557 -18.240  41.383  0.00  0.00     0.096 A 
ATOM     16  C   UNL d   1      46.606 -17.437  41.203  0.00  0.00     0.022 C 
ENDBRANCH   7  10
ENDBRANCH   1   7
BRANCH   4  17
ATOM     17  O   UNL d   1      46.555 -18.861  44.288  0.00  0.00    -0.304 OA
BRANCH  17  18
ATOM     18  C   UNL d   1      46.205 -19.378  44.825  0.00  0.00     0.123 C 
ATOM     19  C   UNL d   1      46.525 -20.134  44.946  0.00  0.00     0.029 C 
ENDBRANCH  17  18
ENDBRANCH   4  17
BRANCH   3  20
ATOM     20  C   UNL d   1      45.587 -15.712  44.161  0.00  0.00     0.000 C 
ATOM     21  C   UNL d   1      45.168 -15.380  44.798  0.00  0.00     0.000 C 
ATOM     22  C   UNL d   1      45.759 -15.252  43.499  0.00  0.00     0.000 C 
ENDBRANCH   3  20
TORSDOF 5
ENDMDL
MODEL 2
REMARK VINA RESULT:      24.0      1.297      3.494
REMARK  5 active torsions:
REMARK  status: ('A' for Active; 'I' for Inactive)
REMARK    1  A    between atoms: N_2  and  S_1 
REMARK    2  A    between atoms: C_3  and  S_1 
REMARK    3  A    between atoms: C_15  and  C_11 
REMARK    4  A    between atoms: O_17  and  C_12 
REMARK    5  A    between atoms: C_21  and  O_17 
ROOT
ATOM      1  C   UNL d   1      46.213 -17.972  43.282  0.00  0.00     0.128 A 
ATOM      2  C   UNL d   1      46.201 -17.985  42.458  0.00  0.00     0.015 A 
ATOM      3  C   UNL d   1      46.396 -18.677  42.054  0.00  0.00     0.001 A 
ATOM      4  C   UNL d   1      46.419 -18.649  43.700  0.00  0.00     0.112 A 
ATOM      5  C   UNL d   1      46.603 -19.356  42.473  0.00  0.00     0.002 A 
ATOM      6  C   UNL d   1      46.614 -19.341  43.296  0.00  0.00     0.025 A 
ENDROOT
BRANCH   1   7
ATOM      7  S   UNL d   1      46.017 -17.280  43.686  0.00  0.00     0.288 S 
ATOM      8  O   UNL d   1      46.646 -17.406  44.205  0.00  0.00    -0.198 OA
ATOM      9  O   UNL d   1      45.389 -17.154  43.167  0.00  0.00    -0.198 OA
BRANCH   7  10
ATOM     10  N   UNL d   1      45.822 -16.588  44.091  0.00  0.00    -0.152 N 
ATOM     11  N   UNL d   1      46.182 -15.853  44.001  0.00  0.00    -0.155 NA
ATOM     12  C   UNL d   1      45.817 -15.318  44.509  0.00  0.00     0.104 A 
ATOM     13  C   UNL d   1      46.008 -14.519  44.595  0.00  0.00     0.022 C 
ATOM     14  C   UNL d   1      45.226 -15.724  44.918  0.00  0.00     0.041 A 
ATOM     15  C   UNL d   1      45.230 -16.506  44.660  0.00  0.00     0.096 A 
ATOM     16  C   UNL d   1      44.729 -17.105  44.924  0.00  0.00     0.022 C 
ENDBRANCH   7  10
ENDBRANCH   1   7
BRANCH   4  17
ATOM     17  O   UNL d   1      46.431 -18.638  44.527  0.00  0.00    -0.304 OA
BRANCH  17  18
ATOM     18  C   UNL d   1      46.597 -19.326  44.947  0.00  0.00     0.123 C 
ATOM     19  C   UNL d   1      46.165 -20.019  44.800  0.00  0.00     0.029 C 
ENDBRANCH  17  18
ENDBRANCH   4  17
BRANCH   3  20
ATOM     20  C   UNL d   1      46.385 -18.691  41.231  0.00  0.00     0.000 C 
ATOM     21  C   UNL d   1      46.646 -19.367  40.823  0.00  0.00     0.000 C 
ATOM     22  C   UNL d   1      46.116 -18.036  40.809  0.00  0.00     0.000 C 
ENDBRANCH   3  20
TORSDOF 5
ENDMDL
