MODEL 1
REMARK VINA RESULT:      22.3      0.000      0.000
REMARK  4 active torsions:
REMARK  status: ('A' for Active; 'I' for Inactive)
REMARK    1  A    between atoms: S_10  and  C_3 
REMARK    2  A    between atoms: C_11  and  C_7 
REMARK    3  A    between atoms: C_13  and  S_10 
REMARK    4  A    between atoms: C_14  and  C_13 
ROOT
ATOM      1  N   UNL d   1      45.267 -15.711  44.467  0.00  0.00    -0.186 N 
ATOM      2  N   UNL d   1      45.630 -15.008  44.263  0.00  0.00    -0.162 NA
ATOM      3  C   UNL d   1      45.511 -16.500  44.395  0.00  0.00     0.217 A 
ATOM      4  C   UNL d   1      44.518 -15.715  44.812  0.00  0.00     0.187 A 
ATOM      5  N   UNL d   1      44.913 -16.972  44.695  0.00  0.00    -0.120 NA
ATOM      6  N   UNL d   1      44.298 -16.488  44.954  0.00  0.00    -0.127 NA
ATOM      7  C   UNL d   1      45.240 -14.292  44.406  0.00  0.00     0.102 A 
ATOM      8  C   UNL d   1      44.129 -14.995  44.955  0.00  0.00     0.042 A 
ATOM      9  C   UNL d   1      44.489 -14.290  44.753  0.00  0.00     0.024 A 
ENDROOT
BRANCH   3  10
ATOM     10  S   UNL d   1      46.221 -16.779  44.082  0.00  0.00    -0.046 SA
BRANCH  10  11
ATOM     11  C   UNL d   1      46.497 -17.519  44.280  0.00  0.00     0.038 C 
BRANCH  11  12
ATOM     12  C   UNL d   1      46.534 -18.108  43.716  0.00  0.00     0.007 A 
ATOM     13  C   UNL d   1      46.608 -17.914  42.917  0.00  0.00     0.001 A 
ATOM     14  C   UNL d   1      46.645 -18.510  42.340  0.00  0.00     0.000 A 
ATOM     15  C   UNL d   1      46.608 -19.299  42.556  0.00  0.00     0.000 A 
ATOM     16  C   UNL d   1      46.533 -19.502  43.358  0.00  0.00     0.000 A 
ATOM     17  C   UNL d   1      46.647 -19.878  41.970  0.00  0.00     0.000 C 
ATOM     18  C   UNL d   1      46.497 -18.906  43.928  0.00  0.00     0.001 A 
ENDBRANCH  11  12
ENDBRANCH  10  11
ENDBRANCH   3  10
BRANCH   7  19
ATOM     19  C   UNL d   1      45.601 -13.579  44.203  0.00  0.00     0.022 A 
ATOM     20  C   UNL d   1      45.484 -13.256  43.454  0.00  0.00     0.022 A 
ATOM     21  C   UNL d   1      45.842 -12.546  43.247  0.00  0.00     0.099 A 
ATOM     22  N   UNL d   1      46.317 -12.158  43.787  0.00  0.00    -0.242 NA
ATOM     23  C   UNL d   1      46.442 -12.485  44.558  0.00  0.00     0.099 A 
ATOM     24  C   UNL d   1      46.075 -13.195  44.744  0.00  0.00     0.022 A 
ENDBRANCH   7  19
TORSDOF 4
ENDMDL
