MODEL 1
REMARK VINA RESULT:      49.5      0.000      0.000
REMARK  3 active torsions:
REMARK  status: ('A' for Active; 'I' for Inactive)
REMARK    1  A    between atoms: N_5  and  C_1 
REMARK    2  A    between atoms: C_7  and  N_2 
REMARK    3  A    between atoms: C_9  and  C_7 
ROOT
ATOM      1  C   UNL d   1     -58.844 -98.839 -43.872  0.00  0.00     0.720 A 
ATOM      2  N   UNL d   1     -58.089 -98.796 -44.210  0.00  0.00    -0.139 N 
ATOM      3  N   UNL d   1     -59.394 -98.863 -44.487  0.00  0.00    -0.060 NA
ATOM      4  C   UNL d   1     -58.178 -98.794 -45.033  0.00  0.00     0.100 A 
ATOM      5  C   UNL d   1     -58.983 -98.836 -45.204  0.00  0.00     0.116 A 
ATOM      6  C   UNL d   1     -57.620 -98.760 -45.642  0.00  0.00     0.020 A 
ATOM      7  C   UNL d   1     -59.238 -98.844 -45.986  0.00  0.00     0.021 A 
ATOM      8  C   UNL d   1     -57.876 -98.768 -46.423  0.00  0.00     0.002 A 
ATOM      9  C   UNL d   1     -58.681 -98.810 -46.594  0.00  0.00     0.002 A 
ENDROOT
BRANCH   2  10
ATOM     10  C   UNL d   1     -57.374 -98.761 -43.794  0.00  0.00     0.098 C 
BRANCH  10  11
ATOM     11  C   UNL d   1     -56.721 -99.188 -44.070  0.00  0.00     0.018 A 
ATOM     12  C   UNL d   1     -56.065 -98.794 -44.359  0.00  0.00     0.002 A 
ATOM     13  C   UNL d   1     -55.416 -99.222 -44.634  0.00  0.00     0.000 A 
ATOM     14  C   UNL d   1     -55.430-100.049 -44.617  0.00  0.00     0.000 A 
ATOM     15  C   UNL d   1     -56.099-100.440 -44.323  0.00  0.00     0.000 A 
ATOM     16  C   UNL d   1     -56.744-100.009 -44.049  0.00  0.00     0.002 A 
ENDBRANCH  10  11
ENDBRANCH   2  10
BRANCH   1  17
ATOM     17  N   UNL d   1     -59.007 -98.853 -43.065  0.00  0.00    -0.136 N 
ATOM     18  C   UNL d   1     -59.788 -98.857 -42.795  0.00  0.00     0.119 A 
ATOM     19  C   UNL d   1     -59.942 -98.871 -41.989  0.00  0.00     0.119 A 
ATOM     20  N   UNL d   1     -59.321 -98.883 -41.447  0.00  0.00    -0.239 NA
ATOM     21  C   UNL d   1     -58.541 -98.879 -41.717  0.00  0.00     0.119 A 
ATOM     22  C   UNL d   1     -58.376 -98.865 -42.530  0.00  0.00     0.119 A 
ENDBRANCH   1  17
TORSDOF 3
ENDMDL
