MODEL 1
REMARK VINA RESULT:      -6.2      0.000      0.000
REMARK  3 active torsions:
REMARK  status: ('A' for Active; 'I' for Inactive)
REMARK    1  A    between atoms: C_9  and  C_5 
REMARK    2  A    between atoms: C_10  and  C_6 
REMARK    3  A    between atoms: O_16  and  C_13 
ROOT
ATOM      1  N   UNL d   1      58.288  -0.656  29.891  0.00  0.00    -0.205 N 
ATOM      2  C   UNL d   1      58.134   0.152  29.815  0.00  0.00     0.197 A 
ATOM      3  N   UNL d   1      57.625   0.374  30.432  0.00  0.00    -0.200 NA
ATOM      4  N   UNL d   1      57.877  -0.933  30.550  0.00  0.00    -0.144 NA
ATOM      5  C   UNL d   1      57.469  -0.300  30.883  0.00  0.00     0.184 A 
ATOM      6  C   UNL d   1      58.798  -0.884  29.277  0.00  0.00     0.092 A 
ATOM      7  S   UNL d   1      58.551   0.427  29.149  0.00  0.00    -0.046 SA
ATOM      8  C   UNL d   1      58.960  -0.219  28.819  0.00  0.00     0.058 A 
ENDROOT
BRANCH   5   9
ATOM      9  C   UNL d   1      56.990  -0.327  31.546  0.00  0.00     0.038 A 
ATOM     10  C   UNL d   1      56.773   0.367  31.925  0.00  0.00     0.005 A 
ATOM     11  C   UNL d   1      56.290   0.343  32.595  0.00  0.00     0.024 A 
ATOM     12  C   UNL d   1      56.026  -0.377  32.882  0.00  0.00     0.094 A 
ATOM     13  C   UNL d   1      56.242  -1.084  32.503  0.00  0.00     0.024 A 
ATOM     14  C   UNL d   1      56.724  -1.054  31.836  0.00  0.00     0.005 A 
BRANCH  12  15
ATOM     15  O   UNL d   1      55.542  -0.401  33.552  0.00  0.00    -0.328 OA
ATOM     16  C   UNL d   1      55.030   0.232  33.714  0.00  0.00     0.181 C 
ENDBRANCH  12  15
ENDBRANCH   5   9
BRANCH   6  17
ATOM     17  C   UNL d   1      59.088  -1.650  29.152  0.00  0.00     0.018 A 
ATOM     18  C   UNL d   1      58.606  -2.234  28.827  0.00  0.00     0.002 A 
ATOM     19  C   UNL d   1      58.898  -2.995  28.704  0.00  0.00     0.000 A 
ATOM     20  C   UNL d   1      59.683  -3.179  28.909  0.00  0.00     0.000 A 
ATOM     21  C   UNL d   1      60.164  -2.596  29.235  0.00  0.00     0.000 A 
ATOM     22  C   UNL d   1      59.876  -1.833  29.359  0.00  0.00     0.002 A 
ENDBRANCH   6  17
TORSDOF 3
ENDMDL
MODEL 2
REMARK VINA RESULT:      -4.6      1.781      4.504
REMARK  3 active torsions:
REMARK  status: ('A' for Active; 'I' for Inactive)
REMARK    1  A    between atoms: C_9  and  C_5 
REMARK    2  A    between atoms: C_10  and  C_6 
REMARK    3  A    between atoms: O_16  and  C_13 
ROOT
ATOM      1  N   UNL d   1      57.817  -0.561  30.531  0.00  0.00    -0.205 N 
ATOM      2  C   UNL d   1      58.080  -0.105  29.894  0.00  0.00     0.197 A 
ATOM      3  N   UNL d   1      58.526  -0.596  29.395  0.00  0.00    -0.200 NA
ATOM      4  N   UNL d   1      58.100  -1.329  30.428  0.00  0.00    -0.144 NA
ATOM      5  C   UNL d   1      58.535  -1.352  29.730  0.00  0.00     0.184 A 
ATOM      6  C   UNL d   1      57.370  -0.075  31.034  0.00  0.00     0.092 A 
ATOM      7  S   UNL d   1      57.792   0.669  30.003  0.00  0.00    -0.046 SA
ATOM      8  C   UNL d   1      57.354   0.682  30.710  0.00  0.00     0.058 A 
ENDROOT
BRANCH   5   9
ATOM      9  C   UNL d   1      58.914  -2.005  29.416  0.00  0.00     0.038 A 
ATOM     10  C   UNL d   1      59.733  -2.055  29.437  0.00  0.00     0.005 A 
ATOM     11  C   UNL d   1      60.118  -2.714  29.120  0.00  0.00     0.024 A 
ATOM     12  C   UNL d   1      59.682  -3.320  28.784  0.00  0.00     0.094 A 
ATOM     13  C   UNL d   1      58.852  -3.275  28.760  0.00  0.00     0.024 A 
ATOM     14  C   UNL d   1      58.473  -2.617  29.077  0.00  0.00     0.005 A 
BRANCH  12  15
ATOM     15  O   UNL d   1      60.067  -3.979  28.467  0.00  0.00    -0.328 OA
ATOM     16  C   UNL d   1      60.890  -4.055  28.550  0.00  0.00     0.181 C 
ENDBRANCH  12  15
ENDBRANCH   5   9
BRANCH   6  17
ATOM     17  C   UNL d   1      57.006  -0.317  31.738  0.00  0.00     0.018 A 
ATOM     18  C   UNL d   1      56.499  -0.967  31.747  0.00  0.00     0.002 A 
ATOM     19  C   UNL d   1      56.139  -1.205  32.449  0.00  0.00     0.000 A 
ATOM     20  C   UNL d   1      56.285  -0.790  33.155  0.00  0.00     0.000 A 
ATOM     21  C   UNL d   1      56.791  -0.141  33.146  0.00  0.00     0.000 A 
ATOM     22  C   UNL d   1      57.154   0.100  32.446  0.00  0.00     0.002 A 
ENDBRANCH   6  17
TORSDOF 3
ENDMDL
MODEL 3
REMARK VINA RESULT:      -4.3      1.141      1.886
REMARK  3 active torsions:
REMARK  status: ('A' for Active; 'I' for Inactive)
REMARK    1  A    between atoms: C_9  and  C_5 
REMARK    2  A    between atoms: C_10  and  C_6 
REMARK    3  A    between atoms: O_16  and  C_13 
ROOT
ATOM      1  N   UNL d   1      58.613  -0.983  29.831  0.00  0.00    -0.205 N 
ATOM      2  C   UNL d   1      58.138  -1.657  29.790  0.00  0.00     0.197 A 
ATOM      3  N   UNL d   1      57.539  -1.583  30.360  0.00  0.00    -0.200 NA
ATOM      4  N   UNL d   1      58.311  -0.494  30.423  0.00  0.00    -0.144 NA
ATOM      5  C   UNL d   1      57.651  -0.862  30.749  0.00  0.00     0.184 A 
ATOM      6  C   UNL d   1      59.213  -1.051  29.263  0.00  0.00     0.092 A 
ATOM      7  S   UNL d   1      58.446  -2.148  29.192  0.00  0.00    -0.046 SA
ATOM      8  C   UNL d   1      59.112  -1.768  28.869  0.00  0.00     0.058 A 
ENDROOT
BRANCH   5   9
ATOM      9  C   UNL d   1      57.182  -0.570  31.352  0.00  0.00     0.038 A 
ATOM     10  C   UNL d   1      56.724  -1.082  31.802  0.00  0.00     0.005 A 
ATOM     11  C   UNL d   1      56.250  -0.790  32.411  0.00  0.00     0.024 A 
ATOM     12  C   UNL d   1      56.235   0.013  32.570  0.00  0.00     0.094 A 
ATOM     13  C   UNL d   1      56.697   0.537  32.118  0.00  0.00     0.024 A 
ATOM     14  C   UNL d   1      57.168   0.241  31.511  0.00  0.00     0.005 A 
BRANCH  12  15
ATOM     15  O   UNL d   1      55.761   0.305  33.180  0.00  0.00    -0.328 OA
ATOM     16  C   UNL d   1      56.103   0.498  33.912  0.00  0.00     0.181 C 
ENDBRANCH  12  15
ENDBRANCH   5   9
BRANCH   6  17
ATOM     17  C   UNL d   1      59.809  -0.492  29.122  0.00  0.00     0.018 A 
ATOM     18  C   UNL d   1      59.686   0.128  28.592  0.00  0.00     0.002 A 
ATOM     19  C   UNL d   1      60.280   0.682  28.455  0.00  0.00     0.000 A 
ATOM     20  C   UNL d   1      61.009   0.620  28.851  0.00  0.00     0.000 A 
ATOM     21  C   UNL d   1      61.131   0.002  29.380  0.00  0.00     0.000 A 
ATOM     22  C   UNL d   1      60.540  -0.556  29.520  0.00  0.00     0.002 A 
ENDBRANCH   6  17
TORSDOF 3
ENDMDL
