MODEL 1
REMARK VINA RESULT:      -2.0      0.000      0.000
REMARK  5 active torsions:
REMARK  status: ('A' for Active; 'I' for Inactive)
REMARK    1  A    between atoms: C_7  and  C_1 
REMARK    2  A    between atoms: C_8  and  C_2 
REMARK    3  A    between atoms: O_16  and  C_8 
REMARK    4  A    between atoms: O_17  and  C_12 
REMARK    5  A    between atoms: C_21  and  O_16 
ROOT
ATOM      1  C   UNL d   1      58.507  -0.463  30.111  0.00  0.00     0.069 A 
ATOM      2  C   UNL d   1      58.225  -1.213  29.918  0.00  0.00     0.166 A 
ATOM      3  C   UNL d   1      58.211  -0.070  30.776  0.00  0.00     0.200 A 
ATOM      4  O   UNL d   1      57.645  -1.583  30.382  0.00  0.00    -0.301 OA
ATOM      5  C   UNL d   1      57.634  -0.432  31.242  0.00  0.00     0.062 A 
ATOM      6  C   UNL d   1      57.355  -1.182  31.046  0.00  0.00     0.106 A 
ATOM      7  C   UNL d   1      56.769  -1.547  31.522  0.00  0.00     0.067 A 
ATOM      8  C   UNL d   1      57.336  -0.038  31.911  0.00  0.00     0.009 A 
ATOM      9  O   UNL d   1      58.488   0.681  30.976  0.00  0.00    -0.286 OA
ATOM     10  C   UNL d   1      56.476  -1.154  32.182  0.00  0.00     0.198 A 
ATOM     11  C   UNL d   1      56.761  -0.396  32.378  0.00  0.00     0.042 A 
ATOM     12  O   UNL d   1      55.901  -1.512  32.650  0.00  0.00    -0.286 OA
ENDROOT
BRANCH   1  13
ATOM     13  C   UNL d   1      59.082  -0.106  29.643  0.00  0.00     0.028 A 
ATOM     14  C   UNL d   1      59.863  -0.088  29.910  0.00  0.00     0.094 A 
ATOM     15  C   UNL d   1      60.439   0.269  29.442  0.00  0.00     0.024 A 
ATOM     16  C   UNL d   1      60.241   0.608  28.711  0.00  0.00     0.002 A 
ATOM     17  C   UNL d   1      59.457   0.584  28.455  0.00  0.00     0.000 A 
ATOM     18  C   UNL d   1      58.874   0.227  28.920  0.00  0.00     0.002 A 
BRANCH  14  19
ATOM     19  O   UNL d   1      60.059  -0.421  30.629  0.00  0.00    -0.328 OA
ATOM     20  C   UNL d   1      60.833  -0.363  30.908  0.00  0.00     0.181 C 
ENDBRANCH  14  19
ENDBRANCH   1  13
BRANCH   2  21
ATOM     21  C   UNL d   1      58.523  -1.607  29.249  0.00  0.00     0.323 C 
ATOM     22  O   UNL d   1      58.368  -1.306  28.495  0.00  0.00    -0.257 OA
BRANCH  21  23
ATOM     23  O   UNL d   1      58.971  -2.294  29.340  0.00  0.00    -0.270 OA
BRANCH  23  24
ATOM     24  C   UNL d   1      58.878  -2.909  28.810  0.00  0.00     0.126 C 
ATOM     25  C   UNL d   1      59.418  -3.532  28.799  0.00  0.00     0.029 C 
ENDBRANCH  23  24
ENDBRANCH  21  23
ENDBRANCH   2  21
TORSDOF 5
ENDMDL
