MODEL 1
REMARK VINA RESULT:      25.7      0.000      0.000
REMARK  3 active torsions:
REMARK  status: ('A' for Active; 'I' for Inactive)
REMARK    1  A    between atoms: N_5  and  C_1 
REMARK    2  A    between atoms: C_10  and  C_2 
REMARK       I    between atoms: C_8  and  N_5 
REMARK    3  A    between atoms: C_7  and  C_8 
ROOT
ATOM      1  C   UNL d   1      13.607  12.916  -3.473  0.00  0.00     0.119 A 
ATOM      2  C   UNL d   1      13.408  13.520  -4.012  0.00  0.00     0.084 A 
ATOM      3  S   UNL d   1      13.396  12.198  -3.812  0.00  0.00    -0.068 SA
ATOM      4  C   UNL d   1      13.075  13.167  -4.681  0.00  0.00     0.013 A 
ATOM      5  C   UNL d   1      13.067  12.343  -4.556  0.00  0.00     0.031 A 
ATOM      6  C   UNL d   1      12.798  13.553  -5.354  0.00  0.00     0.001 C 
ATOM      7  C   UNL d   1      12.782  11.780  -5.085  0.00  0.00     0.007 C 
ENDROOT
BRANCH   1   8
ATOM      8  N   UNL d   1      13.953  13.025  -2.733  0.00  0.00    -0.201 NA
ATOM      9  C   UNL d   1      13.847  12.453  -2.144  0.00  0.00     0.286 C 
ATOM     10  O   UNL d   1      13.405  11.782  -2.283  0.00  0.00    -0.265 OA
BRANCH   9  11
ATOM     11  C   UNL d   1      14.195  12.563  -1.400  0.00  0.00     0.088 A 
ATOM     12  S   UNL d   1      14.978  12.806  -1.249  0.00  0.00    -0.075 SA
ATOM     13  C   UNL d   1      15.086  12.842  -0.424  0.00  0.00     0.064 A 
ATOM     14 BR   UNL d   1      15.786  13.059  -0.019  0.00  0.00    -0.042 Br
ATOM     15  C   UNL d   1      14.370  12.621  -0.079  0.00  0.00     0.014 A 
ATOM     16  C   UNL d   1      13.828  12.451  -0.673  0.00  0.00     0.012 A 
ENDBRANCH   9  11
ENDBRANCH   1   8
BRANCH   2  17
ATOM     17  C   UNL d   1      13.524  14.329  -3.897  0.00  0.00     0.299 C 
ATOM     18  O   UNL d   1      12.868  14.831  -3.780  0.00  0.00    -0.264 OA
ATOM     19  N   UNL d   1      14.291  14.651  -3.894  0.00  0.00    -0.102 N 
ENDBRANCH   2  17
TORSDOF 3
ENDMDL
MODEL 2
REMARK VINA RESULT:      27.9      1.974      4.029
REMARK  3 active torsions:
REMARK  status: ('A' for Active; 'I' for Inactive)
REMARK    1  A    between atoms: N_5  and  C_1 
REMARK    2  A    between atoms: C_10  and  C_2 
REMARK       I    between atoms: C_8  and  N_5 
REMARK    3  A    between atoms: C_7  and  C_8 
ROOT
ATOM      1  C   UNL d   1      14.502  13.384  -1.924  0.00  0.00     0.119 A 
ATOM      2  C   UNL d   1      14.811  13.120  -1.195  0.00  0.00     0.084 A 
ATOM      3  S   UNL d   1      14.559  14.203  -1.939  0.00  0.00    -0.068 SA
ATOM      4  C   UNL d   1      15.056  13.782  -0.766  0.00  0.00     0.013 A 
ATOM      5  C   UNL d   1      14.899  14.457  -1.229  0.00  0.00     0.031 A 
ATOM      6  C   UNL d   1      15.395  13.783  -0.016  0.00  0.00     0.001 C 
ATOM      7  C   UNL d   1      15.058  15.235  -1.012  0.00  0.00     0.007 C 
ENDROOT
BRANCH   1   8
ATOM      8  N   UNL d   1      14.196  12.904  -2.520  0.00  0.00    -0.201 NA
ATOM      9  C   UNL d   1      13.731  13.240  -3.116  0.00  0.00     0.286 C 
ATOM     10  O   UNL d   1      13.570  14.040  -3.125  0.00  0.00    -0.265 OA
BRANCH   9  11
ATOM     11  C   UNL d   1      13.423  12.758  -3.716  0.00  0.00     0.088 A 
ATOM     12  S   UNL d   1      13.530  12.855  -4.537  0.00  0.00    -0.075 SA
ATOM     13  C   UNL d   1      13.122  12.243  -4.928  0.00  0.00     0.064 A 
ATOM     14 BR   UNL d   1      13.077  12.121  -5.755  0.00  0.00    -0.042 Br
ATOM     15  C   UNL d   1      12.770  11.779  -4.344  0.00  0.00     0.014 A 
ATOM     16  C   UNL d   1      12.952  12.092  -3.607  0.00  0.00     0.012 A 
ENDBRANCH   9  11
ENDBRANCH   1   8
BRANCH   2  17
ATOM     17  C   UNL d   1      14.861  12.334  -0.948  0.00  0.00     0.299 C 
ATOM     18  O   UNL d   1      15.427  11.826  -1.291  0.00  0.00    -0.264 OA
ATOM     19  N   UNL d   1      14.352  12.041  -0.359  0.00  0.00    -0.102 N 
ENDBRANCH   2  17
TORSDOF 3
ENDMDL
