MODEL 1
REMARK VINA RESULT:      -6.9      0.000      0.000
REMARK  6 active torsions:
REMARK  status: ('A' for Active; 'I' for Inactive)
REMARK    1  A    between atoms: S_2  and  C_1 
REMARK    2  A    between atoms: C_9  and  S_2 
REMARK    3  A    between atoms: N_10  and  C_6 
REMARK    4  A    between atoms: C_13  and  N_10 
REMARK    5  A    between atoms: N_12  and  C_14 
REMARK    6  A    between atoms: C_14  and  C_13 
ROOT
ATOM      1  C   UNL d   1      51.818  34.060  53.224  0.00  0.00     0.187 A 
ATOM      2  N   UNL d   1      51.034  34.030  53.468  0.00  0.00    -0.208 NA
ATOM      3  C   UNL d   1      51.834  34.307  52.437  0.00  0.00     0.118 A 
ATOM      4  S   UNL d   1      51.055  34.428  52.199  0.00  0.00    -0.035 SA
ATOM      5  C   UNL d   1      50.563  34.258  52.831  0.00  0.00     0.196 A 
ATOM      6 CL   UNL d   1      52.506  34.413  51.972  0.00  0.00    -0.073 Cl
ENDROOT
BRANCH   1   7
ATOM      7  S   UNL d   1      52.475  33.878  53.682  0.00  0.00     0.228 S 
ATOM      8  O   UNL d   1      52.696  34.662  53.776  0.00  0.00    -0.216 OA
ATOM      9  O   UNL d   1      52.260  33.093  53.592  0.00  0.00    -0.216 OA
BRANCH   7  10
ATOM     10  C   UNL d   1      53.118  33.611  54.136  0.00  0.00     0.089 A 
ATOM     11  C   UNL d   1      53.496  34.127  54.650  0.00  0.00     0.011 A 
ATOM     12  C   UNL d   1      54.141  33.863  55.106  0.00  0.00     0.001 A 
ATOM     13  C   UNL d   1      54.399  33.077  55.040  0.00  0.00     0.000 A 
ATOM     14  C   UNL d   1      54.013  32.555  54.517  0.00  0.00     0.001 A 
ATOM     15  C   UNL d   1      53.373  32.819  54.064  0.00  0.00     0.011 A 
ENDBRANCH   7  10
ENDBRANCH   1   7
BRANCH   5  16
ATOM     16  N   UNL d   1      49.743  34.307  52.829  0.00  0.00    -0.218 NA
BRANCH  16  17
ATOM     17  C   UNL d   1      49.389  35.044  52.876  0.00  0.00     0.120 C 
BRANCH  17  18
ATOM     18  C   UNL d   1      48.569  35.102  52.884  0.00  0.00     0.101 C 
BRANCH  18  19
ATOM     19  N   UNL d   1      48.242  35.856  52.977  0.00  0.00    -0.299 N 
ATOM     20  C   UNL d   1      47.916  36.232  52.326  0.00  0.00     0.100 C 
ATOM     21  C   UNL d   1      48.244  36.219  53.711  0.00  0.00     0.100 C 
ENDBRANCH  18  19
ENDBRANCH  17  18
ENDBRANCH  16  17
ENDBRANCH   5  16
TORSDOF 6
ENDMDL
MODEL 2
REMARK VINA RESULT:      -6.8      1.374      1.863
REMARK  6 active torsions:
REMARK  status: ('A' for Active; 'I' for Inactive)
REMARK    1  A    between atoms: S_2  and  C_1 
REMARK    2  A    between atoms: C_9  and  S_2 
REMARK    3  A    between atoms: N_10  and  C_6 
REMARK    4  A    between atoms: C_13  and  N_10 
REMARK    5  A    between atoms: N_12  and  C_14 
REMARK    6  A    between atoms: C_14  and  C_13 
ROOT
ATOM      1  C   UNL d   1      51.884  33.392  53.094  0.00  0.00     0.187 A 
ATOM      2  N   UNL d   1      51.064  33.416  53.088  0.00  0.00    -0.208 NA
ATOM      3  C   UNL d   1      52.165  34.155  52.951  0.00  0.00     0.118 A 
ATOM      4  S   UNL d   1      51.512  34.647  52.856  0.00  0.00    -0.035 SA
ATOM      5  C   UNL d   1      50.835  34.194  52.940  0.00  0.00     0.196 A 
ATOM      6 CL   UNL d   1      52.956  34.384  52.909  0.00  0.00    -0.073 Cl
ENDROOT
BRANCH   1   7
ATOM      7  S   UNL d   1      52.349  32.727  53.221  0.00  0.00     0.228 S 
ATOM      8  O   UNL d   1      52.471  32.896  54.015  0.00  0.00    -0.216 OA
ATOM      9  O   UNL d   1      52.230  32.552  52.430  0.00  0.00    -0.216 OA
BRANCH   7  10
ATOM     10  C   UNL d   1      52.807  32.034  53.267  0.00  0.00     0.089 A 
ATOM     11  C   UNL d   1      52.551  31.351  52.891  0.00  0.00     0.011 A 
ATOM     12  C   UNL d   1      53.007  30.656  52.934  0.00  0.00     0.001 A 
ATOM     13  C   UNL d   1      53.720  30.656  53.359  0.00  0.00     0.000 A 
ATOM     14  C   UNL d   1      53.977  31.352  53.740  0.00  0.00     0.001 A 
ATOM     15  C   UNL d   1      53.523  32.041  53.696  0.00  0.00     0.011 A 
ENDBRANCH   7  10
ENDBRANCH   1   7
BRANCH   5  16
ATOM     16  N   UNL d   1      50.063  34.469  52.886  0.00  0.00    -0.218 NA
BRANCH  16  17
ATOM     17  C   UNL d   1      49.707  34.515  52.150  0.00  0.00     0.120 C 
BRANCH  17  18
ATOM     18  C   UNL d   1      48.890  34.580  52.095  0.00  0.00     0.101 C 
BRANCH  18  19
ATOM     19  N   UNL d   1      48.576  34.833  51.373  0.00  0.00    -0.299 N 
ATOM     20  C   UNL d   1      48.018  35.434  51.369  0.00  0.00     0.100 C 
ATOM     21  C   UNL d   1      48.819  34.486  50.672  0.00  0.00     0.100 C 
ENDBRANCH  18  19
ENDBRANCH  17  18
ENDBRANCH  16  17
ENDBRANCH   5  16
TORSDOF 6
ENDMDL
MODEL 3
REMARK VINA RESULT:      -6.8      1.981      4.714
REMARK  6 active torsions:
REMARK  status: ('A' for Active; 'I' for Inactive)
REMARK    1  A    between atoms: S_2  and  C_1 
REMARK    2  A    between atoms: C_9  and  S_2 
REMARK    3  A    between atoms: N_10  and  C_6 
REMARK    4  A    between atoms: C_13  and  N_10 
REMARK    5  A    between atoms: N_12  and  C_14 
REMARK    6  A    between atoms: C_14  and  C_13 
ROOT
ATOM      1  C   UNL d   1      52.275  33.547  53.181  0.00  0.00     0.187 A 
ATOM      2  N   UNL d   1      52.510  32.766  53.087  0.00  0.00    -0.208 NA
ATOM      3  C   UNL d   1      52.850  33.936  53.626  0.00  0.00     0.118 A 
ATOM      4  S   UNL d   1      53.439  33.390  53.805  0.00  0.00    -0.035 SA
ATOM      5  C   UNL d   1      53.231  32.670  53.474  0.00  0.00     0.196 A 
ATOM      6 CL   UNL d   1      52.838  34.730  53.852  0.00  0.00    -0.073 Cl
ENDROOT
BRANCH   1   7
ATOM      7  S   UNL d   1      51.588  33.885  52.884  0.00  0.00     0.228 S 
ATOM      8  O   UNL d   1      51.989  34.376  52.363  0.00  0.00    -0.216 OA
ATOM      9  O   UNL d   1      51.182  33.399  53.403  0.00  0.00    -0.216 OA
BRANCH   7  10
ATOM     10  C   UNL d   1      50.849  34.177  52.639  0.00  0.00     0.089 A 
ATOM     11  C   UNL d   1      50.330  34.489  53.193  0.00  0.00     0.011 A 
ATOM     12  C   UNL d   1      49.589  34.782  52.951  0.00  0.00     0.001 A 
ATOM     13  C   UNL d   1      49.378  34.759  52.148  0.00  0.00     0.000 A 
ATOM     14  C   UNL d   1      49.908  34.442  51.588  0.00  0.00     0.001 A 
ATOM     15  C   UNL d   1      50.644  34.151  51.830  0.00  0.00     0.011 A 
ENDBRANCH   7  10
ENDBRANCH   1   7
BRANCH   5  16
ATOM     16  N   UNL d   1      53.667  31.976  53.521  0.00  0.00    -0.218 NA
BRANCH  16  17
ATOM     17  C   UNL d   1      53.272  31.259  53.555  0.00  0.00     0.120 C 
BRANCH  17  18
ATOM     18  C   UNL d   1      53.699  30.558  53.567  0.00  0.00     0.101 C 
BRANCH  18  19
ATOM     19  N   UNL d   1      53.277  29.856  53.682  0.00  0.00    -0.299 N 
ATOM     20  C   UNL d   1      53.410  29.417  54.360  0.00  0.00     0.100 C 
ATOM     21  C   UNL d   1      52.733  29.606  53.123  0.00  0.00     0.100 C 
ENDBRANCH  18  19
ENDBRANCH  17  18
ENDBRANCH  16  17
ENDBRANCH   5  16
TORSDOF 6
ENDMDL
