MODEL 1
REMARK VINA RESULT:      -7.0      0.000      0.000
REMARK  5 active torsions:
REMARK  status: ('A' for Active; 'I' for Inactive)
REMARK    1  A    between atoms: C_4  and  S_1 
REMARK    2  A    between atoms: N_5  and  S_1 
REMARK    3  A    between atoms: C_2  and  C_9 
REMARK       I    between atoms: N_3  and  C_2 
REMARK    4  A    between atoms: C_14  and  N_5 
REMARK    5  A    between atoms: C_15  and  C_14 
ROOT
ATOM      1  C   UNL d   1     -49.616  12.942  22.990  0.00  0.00     0.057 A 
ATOM      2  C   UNL d   1     -49.122  12.915  22.325  0.00  0.00     0.005 A 
ATOM      3  C   UNL d   1     -49.403  12.536  23.674  0.00  0.00     0.005 A 
ATOM      4  C   UNL d   1     -48.214  12.080  23.038  0.00  0.00     0.020 A 
ATOM      5  C   UNL d   1     -48.425  12.488  22.346  0.00  0.00     0.002 A 
ATOM      6  C   UNL d   1     -48.699  12.104  23.697  0.00  0.00     0.002 A 
ENDROOT
BRANCH   4   7
ATOM      7  C   UNL d   1     -47.506  11.645  23.060  0.00  0.00     0.112 C 
BRANCH   7   8
ATOM      8  N   UNL d   1     -46.825  11.982  23.389  0.00  0.00    -0.157 NA
BRANCH   8   9
ATOM      9  S   UNL d   1     -46.112  11.553  23.395  0.00  0.00     0.285 S 
ATOM     10  O   UNL d   1     -45.692  12.254  23.240  0.00  0.00    -0.198 OA
ATOM     11  O   UNL d   1     -46.533  10.854  23.549  0.00  0.00    -0.198 OA
BRANCH   9  12
ATOM     12  C   UNL d   1     -45.399  11.126  23.400  0.00  0.00     0.106 A 
ATOM     13  C   UNL d   1     -44.716  11.472  23.107  0.00  0.00     0.024 A 
ATOM     14  C   UNL d   1     -44.001  11.056  23.107  0.00  0.00     0.059 A 
ATOM     15 CL   UNL d   1     -43.314  11.401  22.813  0.00  0.00    -0.082 Cl
ATOM     16  C   UNL d   1     -43.983  10.290  23.407  0.00  0.00     0.011 A 
ATOM     17  C   UNL d   1     -44.666   9.952  23.697  0.00  0.00     0.002 A 
ATOM     18  C   UNL d   1     -45.376  10.367  23.696  0.00  0.00     0.013 A 
ENDBRANCH   9  12
ENDBRANCH   8   9
ENDBRANCH   7   8
ENDBRANCH   4   7
BRANCH   1  19
ATOM     19  C   UNL d   1     -50.326  13.376  22.972  0.00  0.00     0.265 C 
ATOM     20  N   UNL d   1     -50.324  14.183  23.170  0.00  0.00    -0.272 N 
ATOM     21  C   UNL d   1     -49.666  14.623  23.392  0.00  0.00     0.083 A 
ATOM     22  C   UNL d   1     -50.982  14.682  23.177  0.00  0.00     0.083 A 
ATOM     23  C   UNL d   1     -49.915  15.396  23.537  0.00  0.00     0.021 A 
ATOM     24  C   UNL d   1     -50.721  15.434  23.406  0.00  0.00     0.021 A 
ATOM     25  O   UNL d   1     -51.040  13.003  22.756  0.00  0.00    -0.267 OA
ENDBRANCH   1  19
TORSDOF 5
ENDMDL
MODEL 2
REMARK VINA RESULT:      -5.9      2.424      5.856
REMARK  5 active torsions:
REMARK  status: ('A' for Active; 'I' for Inactive)
REMARK    1  A    between atoms: C_4  and  S_1 
REMARK    2  A    between atoms: N_5  and  S_1 
REMARK    3  A    between atoms: C_2  and  C_9 
REMARK       I    between atoms: N_3  and  C_2 
REMARK    4  A    between atoms: C_14  and  N_5 
REMARK    5  A    between atoms: C_15  and  C_14 
ROOT
ATOM      1  C   UNL d   1     -45.420  12.421  22.651  0.00  0.00     0.057 A 
ATOM      2  C   UNL d   1     -45.721  12.683  23.377  0.00  0.00     0.005 A 
ATOM      3  C   UNL d   1     -45.882  12.476  21.972  0.00  0.00     0.005 A 
ATOM      4  C   UNL d   1     -46.939  13.050  22.734  0.00  0.00     0.020 A 
ATOM      5  C   UNL d   1     -46.475  12.996  23.422  0.00  0.00     0.002 A 
ATOM      6  C   UNL d   1     -46.644  12.792  22.015  0.00  0.00     0.002 A 
ENDROOT
BRANCH   4   7
ATOM      7  C   UNL d   1     -47.706  13.368  22.778  0.00  0.00     0.112 C 
BRANCH   7   8
ATOM      8  N   UNL d   1     -47.809  14.174  22.938  0.00  0.00    -0.157 NA
BRANCH   8   9
ATOM      9  S   UNL d   1     -48.572  14.505  22.917  0.00  0.00     0.285 S 
ATOM     10  O   UNL d   1     -48.856  13.876  23.380  0.00  0.00    -0.198 OA
ATOM     11  O   UNL d   1     -48.287  15.133  22.454  0.00  0.00    -0.198 OA
BRANCH   9  12
ATOM     12  C   UNL d   1     -49.335  14.835  22.897  0.00  0.00     0.106 A 
ATOM     13  C   UNL d   1     -49.817  14.705  22.247  0.00  0.00     0.024 A 
ATOM     14  C   UNL d   1     -50.578  15.028  22.216  0.00  0.00     0.059 A 
ATOM     15 CL   UNL d   1     -51.063  14.899  21.565  0.00  0.00    -0.082 Cl
ATOM     16  C   UNL d   1     -50.845  15.483  22.847  0.00  0.00     0.011 A 
ATOM     17  C   UNL d   1     -50.360  15.609  23.491  0.00  0.00     0.002 A 
ATOM     18  C   UNL d   1     -49.604  15.286  23.520  0.00  0.00     0.013 A 
ENDBRANCH   9  12
ENDBRANCH   8   9
ENDBRANCH   7   8
ENDBRANCH   4   7
BRANCH   1  19
ATOM     19  C   UNL d   1     -44.652  12.102  22.602  0.00  0.00     0.265 C 
ATOM     20  N   UNL d   1     -44.478  11.381  22.977  0.00  0.00    -0.272 N 
ATOM     21  C   UNL d   1     -45.005  10.924  23.412  0.00  0.00     0.083 A 
ATOM     22  C   UNL d   1     -43.746  10.999  22.976  0.00  0.00     0.083 A 
ATOM     23  C   UNL d   1     -44.601  10.258  23.682  0.00  0.00     0.021 A 
ATOM     24  C   UNL d   1     -43.829  10.302  23.416  0.00  0.00     0.021 A 
ATOM     25  O   UNL d   1     -44.057  12.505  22.178  0.00  0.00    -0.267 OA
ENDBRANCH   1  19
TORSDOF 5
ENDMDL
MODEL 3
REMARK VINA RESULT:      -4.9      8.839     10.606
REMARK  5 active torsions:
REMARK  status: ('A' for Active; 'I' for Inactive)
REMARK    1  A    between atoms: C_4  and  S_1 
REMARK    2  A    between atoms: N_5  and  S_1 
REMARK    3  A    between atoms: C_2  and  C_9 
REMARK       I    between atoms: N_3  and  C_2 
REMARK    4  A    between atoms: C_14  and  N_5 
REMARK    5  A    between atoms: C_15  and  C_14 
ROOT
ATOM      1  C   UNL d   1     -40.442  15.291  19.796  0.00  0.00     0.057 A 
ATOM      2  C   UNL d   1     -40.261  14.516  19.565  0.00  0.00     0.005 A 
ATOM      3  C   UNL d   1     -40.380  15.905  19.251  0.00  0.00     0.005 A 
ATOM      4  C   UNL d   1     -39.958  14.983  18.252  0.00  0.00     0.020 A 
ATOM      5  C   UNL d   1     -40.020  14.359  18.799  0.00  0.00     0.002 A 
ATOM      6  C   UNL d   1     -40.137  15.750  18.477  0.00  0.00     0.002 A 
ENDROOT
BRANCH   4   7
ATOM      7  C   UNL d   1     -39.714  14.825  17.474  0.00  0.00     0.112 C 
BRANCH   7   8
ATOM      8  N   UNL d   1     -38.912  14.702  17.311  0.00  0.00    -0.157 NA
BRANCH   8   9
ATOM      9  S   UNL d   1     -38.672  14.504  16.539  0.00  0.00     0.285 S 
ATOM     10  O   UNL d   1     -39.154  15.110  16.236  0.00  0.00    -0.198 OA
ATOM     11  O   UNL d   1     -38.190  13.899  16.843  0.00  0.00    -0.198 OA
BRANCH   9  12
ATOM     12  C   UNL d   1     -38.433  14.308  15.768  0.00  0.00     0.106 A 
ATOM     13  C   UNL d   1     -38.306  14.902  15.217  0.00  0.00     0.024 A 
ATOM     14  C   UNL d   1     -38.069  14.719  14.447  0.00  0.00     0.059 A 
ATOM     15 CL   UNL d   1     -37.941  15.314  13.893  0.00  0.00    -0.082 Cl
ATOM     16  C   UNL d   1     -37.960  13.930  14.238  0.00  0.00     0.011 A 
ATOM     17  C   UNL d   1     -38.088  13.344  14.791  0.00  0.00     0.002 A 
ATOM     18  C   UNL d   1     -38.324  13.528  15.557  0.00  0.00     0.013 A 
ENDBRANCH   9  12
ENDBRANCH   8   9
ENDBRANCH   7   8
ENDBRANCH   4   7
BRANCH   1  19
ATOM     19  C   UNL d   1     -40.688  15.453  20.575  0.00  0.00     0.265 C 
ATOM     20  N   UNL d   1     -40.123  15.603  21.165  0.00  0.00    -0.272 N 
ATOM     21  C   UNL d   1     -39.307  15.610  21.061  0.00  0.00     0.083 A 
ATOM     22  C   UNL d   1     -40.283  15.772  21.958  0.00  0.00     0.083 A 
ATOM     23  C   UNL d   1     -38.960  15.783  21.789  0.00  0.00     0.021 A 
ATOM     24  C   UNL d   1     -39.556  15.882  22.339  0.00  0.00     0.021 A 
ATOM     25  O   UNL d   1     -41.501  15.466  20.764  0.00  0.00    -0.267 OA
ENDBRANCH   1  19
TORSDOF 5
ENDMDL
MODEL 4
REMARK VINA RESULT:      -4.0      9.471     10.998
REMARK  5 active torsions:
REMARK  status: ('A' for Active; 'I' for Inactive)
REMARK    1  A    between atoms: C_4  and  S_1 
REMARK    2  A    between atoms: N_5  and  S_1 
REMARK    3  A    between atoms: C_2  and  C_9 
REMARK       I    between atoms: N_3  and  C_2 
REMARK    4  A    between atoms: C_14  and  N_5 
REMARK    5  A    between atoms: C_15  and  C_14 
ROOT
ATOM      1  C   UNL d   1     -38.601  15.263  21.308  0.00  0.00     0.057 A 
ATOM      2  C   UNL d   1     -37.991  14.920  20.866  0.00  0.00     0.005 A 
ATOM      3  C   UNL d   1     -39.186  15.701  20.927  0.00  0.00     0.005 A 
ATOM      4  C   UNL d   1     -38.557  15.456  19.673  0.00  0.00     0.020 A 
ATOM      5  C   UNL d   1     -37.965  15.014  20.055  0.00  0.00     0.002 A 
ATOM      6  C   UNL d   1     -39.162  15.797  20.107  0.00  0.00     0.002 A 
ENDROOT
BRANCH   4   7
ATOM      7  C   UNL d   1     -38.532  15.553  18.848  0.00  0.00     0.112 C 
BRANCH   7   8
ATOM      8  N   UNL d   1     -38.713  14.915  18.353  0.00  0.00    -0.157 NA
BRANCH   8   9
ATOM      9  S   UNL d   1     -38.605  14.985  17.531  0.00  0.00     0.285 S 
ATOM     10  O   UNL d   1     -39.160  14.378  17.408  0.00  0.00    -0.198 OA
ATOM     11  O   UNL d   1     -38.051  15.591  17.655  0.00  0.00    -0.198 OA
BRANCH   9  12
ATOM     12  C   UNL d   1     -38.498  15.053  16.710  0.00  0.00     0.106 A 
ATOM     13  C   UNL d   1     -38.289  14.394  16.271  0.00  0.00     0.024 A 
ATOM     14  C   UNL d   1     -38.179  14.450  15.453  0.00  0.00     0.059 A 
ATOM     15 CL   UNL d   1     -37.969  13.789  15.010  0.00  0.00    -0.082 Cl
ATOM     16  C   UNL d   1     -38.283  15.178  15.084  0.00  0.00     0.011 A 
ATOM     17  C   UNL d   1     -38.491  15.831  15.527  0.00  0.00     0.002 A 
ATOM     18  C   UNL d   1     -38.600  15.773  16.340  0.00  0.00     0.013 A 
ENDBRANCH   9  12
ENDBRANCH   8   9
ENDBRANCH   7   8
ENDBRANCH   4   7
BRANCH   1  19
ATOM     19  C   UNL d   1     -38.630  15.169  22.135  0.00  0.00     0.265 C 
ATOM     20  N   UNL d   1     -38.824  14.430  22.462  0.00  0.00    -0.272 N 
ATOM     21  C   UNL d   1     -38.999  13.747  22.040  0.00  0.00     0.083 A 
ATOM     22  C   UNL d   1     -38.873  14.255  23.268  0.00  0.00     0.083 A 
ATOM     23  C   UNL d   1     -39.158  13.147  22.582  0.00  0.00     0.021 A 
ATOM     24  C   UNL d   1     -39.081  13.457  23.336  0.00  0.00     0.021 A 
ATOM     25  O   UNL d   1     -38.465  15.816  22.636  0.00  0.00    -0.267 OA
ENDBRANCH   1  19
TORSDOF 5
ENDMDL
