MODEL 1
REMARK VINA RESULT:      21.4      0.000      0.000
REMARK  1 active torsions:
REMARK  status: ('A' for Active; 'I' for Inactive)
REMARK    1  A    between atoms: C_7  and  N_2 
ROOT
ATOM      1  C   UNL d   1      15.100  12.873  -2.131  0.00  0.00     0.304 A 
ATOM      2  N   UNL d   1      14.318  12.593  -2.271  0.00  0.00    -0.272 N 
ATOM      3  C   UNL d   1      15.276  12.771  -1.314  0.00  0.00     0.253 A 
ATOM      4  C   UNL d   1      14.014  12.326  -1.571  0.00  0.00     0.070 A 
ATOM      5  C   UNL d   1      14.592  12.434  -0.992  0.00  0.00     0.060 A 
ATOM      6  O   UNL d   1      15.627  13.205  -2.720  0.00  0.00    -0.263 OA
ATOM      7  O   UNL d   1      15.948  12.949  -0.896  0.00  0.00    -0.281 OA
ATOM      8  C   UNL d   1      13.345  12.020  -1.375  0.00  0.00     0.018 A 
ATOM      9  C   UNL d   1      14.463  12.228  -0.258  0.00  0.00     0.005 A 
ATOM     10  C   UNL d   1      13.146  11.780  -0.601  0.00  0.00     0.002 A 
ATOM     11  C   UNL d   1      13.725  11.887  -0.023  0.00  0.00     0.000 A 
ENDROOT
BRANCH   2  12
ATOM     12  C   UNL d   1      13.897  12.573  -2.967  0.00  0.00     0.067 A 
ATOM     13  C   UNL d   1      13.679  13.260  -3.348  0.00  0.00     0.018 A 
ATOM     14  C   UNL d   1      13.251  13.228  -4.055  0.00  0.00     0.002 A 
ATOM     15  C   UNL d   1      13.048  12.506  -4.369  0.00  0.00     0.000 A 
ATOM     16  C   UNL d   1      13.268  11.803  -3.985  0.00  0.00     0.002 A 
ATOM     17  C   UNL d   1      13.693  11.837  -3.283  0.00  0.00     0.018 A 
ENDBRANCH   2  12
TORSDOF 1
ENDMDL
MODEL 2
REMARK VINA RESULT:      22.9      1.016      3.104
REMARK  1 active torsions:
REMARK  status: ('A' for Active; 'I' for Inactive)
REMARK    1  A    between atoms: C_7  and  N_2 
ROOT
ATOM      1  C   UNL d   1      13.937  13.885  -2.948  0.00  0.00     0.304 A 
ATOM      2  N   UNL d   1      13.845  13.062  -2.796  0.00  0.00    -0.272 N 
ATOM      3  C   UNL d   1      13.626  14.050  -3.713  0.00  0.00     0.253 A 
ATOM      4  C   UNL d   1      13.491  12.722  -3.440  0.00  0.00     0.070 A 
ATOM      5  C   UNL d   1      13.359  13.319  -3.994  0.00  0.00     0.060 A 
ATOM      6  O   UNL d   1      14.287  14.458  -2.415  0.00  0.00    -0.263 OA
ATOM      7  O   UNL d   1      13.580  14.749  -4.121  0.00  0.00    -0.281 OA
ATOM      8  C   UNL d   1      13.280  12.009  -3.603  0.00  0.00     0.018 A 
ATOM      9  C   UNL d   1      13.024  13.162  -4.673  0.00  0.00     0.005 A 
ATOM     10  C   UNL d   1      12.915  11.779  -4.318  0.00  0.00     0.002 A 
ATOM     11  C   UNL d   1      12.783  12.376  -4.872  0.00  0.00     0.000 A 
ENDROOT
BRANCH   2  12
ATOM     12  C   UNL d   1      14.057  12.635  -2.138  0.00  0.00     0.067 A 
ATOM     13  C   UNL d   1      13.503  12.217  -1.709  0.00  0.00     0.018 A 
ATOM     14  C   UNL d   1      13.729  11.785  -1.040  0.00  0.00     0.002 A 
ATOM     15  C   UNL d   1      14.509  11.780  -0.812  0.00  0.00     0.000 A 
ATOM     16  C   UNL d   1      15.077  12.203  -1.244  0.00  0.00     0.002 A 
ATOM     17  C   UNL d   1      14.852  12.631  -1.908  0.00  0.00     0.018 A 
ENDBRANCH   2  12
TORSDOF 1
ENDMDL
