MODEL 1
REMARK VINA RESULT:      14.9      0.000      0.000
REMARK  2 active torsions:
REMARK  status: ('A' for Active; 'I' for Inactive)
REMARK    1  A    between atoms: S_8  and  C_4 
REMARK    2  A    between atoms: C_12  and  S_8 
ROOT
ATOM      1  C   UNL d   1     -51.626  25.115  33.307  0.00  0.00     0.141 A 
ATOM      2  O   UNL d   1     -51.892  25.896  33.307  0.00  0.00    -0.303 OA
ATOM      3  C   UNL d   1     -50.798  25.125  33.308  0.00  0.00     0.110 A 
ATOM      4  C   UNL d   1     -52.030  24.402  33.307  0.00  0.00     0.137 A 
ATOM      5  C   UNL d   1     -50.555  25.910  33.308  0.00  0.00     0.043 A 
ATOM      6  C   UNL d   1     -51.226  26.391  33.308  0.00  0.00     0.102 A 
ATOM      7  N   UNL d   1     -51.608  23.686  33.307  0.00  0.00    -0.215 NA
ATOM      8  N   UNL d   1     -50.385  24.413  33.308  0.00  0.00    -0.222 NA
ATOM      9  C   UNL d   1     -50.789  23.698  33.307  0.00  0.00     0.200 A 
ATOM     10  C   UNL d   1     -49.800  26.251  33.308  0.00  0.00     0.004 A 
ATOM     11  C   UNL d   1     -51.149  27.215  33.308  0.00  0.00     0.025 A 
ATOM     12  C   UNL d   1     -49.723  27.075  33.309  0.00  0.00     0.000 A 
ATOM     13  C   UNL d   1     -50.394  27.551  33.308  0.00  0.00     0.002 A 
ENDROOT
BRANCH   4  14
ATOM     14  S   UNL d   1     -52.860  24.384  33.307  0.00  0.00    -0.066 SA
BRANCH  14  15
ATOM     15  C   UNL d   1     -53.255  23.794  33.728  0.00  0.00     0.031 C 
ATOM     16  C   UNL d   1     -53.664  23.202  33.326  0.00  0.00     0.007 C 
ATOM     17  C   UNL d   1     -53.240  23.800  34.549  0.00  0.00     0.007 C 
ENDBRANCH  14  15
ENDBRANCH   4  14
TORSDOF 2
ENDMDL
