MODEL 1
REMARK VINA RESULT:      18.7      0.000      0.000
REMARK  5 active torsions:
REMARK  status: ('A' for Active; 'I' for Inactive)
REMARK    1  A    between atoms: C_2  and  C_1 
REMARK    2  A    between atoms: C_3  and  C_1 
REMARK    3  A    between atoms: C_4  and  C_2 
REMARK    4  A    between atoms: O_9  and  C_6 
REMARK    5  A    between atoms: O_10  and  C_7 
ROOT
ATOM      1  C   UNL d   1      14.163  12.292  -2.454  0.00  0.00     0.236 C 
ATOM      2  O   UNL d   1      14.681  11.802  -2.856  0.00  0.00    -0.283 OA
ENDROOT
BRANCH   1   3
ATOM      3  C   UNL d   1      13.727  12.877  -2.841  0.00  0.00     0.236 C 
ATOM      4  O   UNL d   1      13.583  13.595  -2.485  0.00  0.00    -0.283 OA
BRANCH   3   5
ATOM      5  C   UNL d   1      13.429  12.728  -3.610  0.00  0.00     0.065 A 
ATOM      6  C   UNL d   1      13.199  13.325  -4.097  0.00  0.00     0.097 A 
ATOM      7  C   UNL d   1      12.905  13.164  -4.857  0.00  0.00     0.024 A 
ATOM      8  C   UNL d   1      12.853  12.382  -5.103  0.00  0.00     0.002 A 
ATOM      9  C   UNL d   1      13.083  11.780  -4.616  0.00  0.00     0.000 A 
ATOM     10  C   UNL d   1      13.377  11.946  -3.856  0.00  0.00     0.005 A 
BRANCH   6  11
ATOM     11  O   UNL d   1      13.253  14.119  -3.843  0.00  0.00    -0.328 OA
ATOM     12  C   UNL d   1      12.857  14.655  -4.155  0.00  0.00     0.181 C 
ENDBRANCH   6  11
ENDBRANCH   3   5
ENDBRANCH   1   3
BRANCH   1  13
ATOM     13  C   UNL d   1      14.071  12.202  -1.636  0.00  0.00     0.065 A 
ATOM     14  C   UNL d   1      14.671  12.448  -1.129  0.00  0.00     0.097 A 
ATOM     15  C   UNL d   1      14.571  12.354  -0.316  0.00  0.00     0.024 A 
ATOM     16  C   UNL d   1      13.888  12.022  -0.016  0.00  0.00     0.002 A 
ATOM     17  C   UNL d   1      13.300  11.780  -0.508  0.00  0.00     0.000 A 
ATOM     18  C   UNL d   1      13.373  11.862  -1.329  0.00  0.00     0.005 A 
BRANCH  14  19
ATOM     19  O   UNL d   1      15.393  12.798  -1.432  0.00  0.00    -0.328 OA
ATOM     20  C   UNL d   1      16.127  12.687  -1.068  0.00  0.00     0.181 C 
ENDBRANCH  14  19
ENDBRANCH   1  13
TORSDOF 5
ENDMDL
MODEL 2
REMARK VINA RESULT:      20.4      0.771      1.325
REMARK  5 active torsions:
REMARK  status: ('A' for Active; 'I' for Inactive)
REMARK    1  A    between atoms: C_2  and  C_1 
REMARK    2  A    between atoms: C_3  and  C_1 
REMARK    3  A    between atoms: C_4  and  C_2 
REMARK    4  A    between atoms: O_9  and  C_6 
REMARK    5  A    between atoms: O_10  and  C_7 
ROOT
ATOM      1  C   UNL d   1      13.800  12.534  -2.251  0.00  0.00     0.236 C 
ATOM      2  O   UNL d   1      13.470  11.786  -2.283  0.00  0.00    -0.283 OA
ENDROOT
BRANCH   1   3
ATOM      3  C   UNL d   1      13.651  13.102  -2.831  0.00  0.00     0.236 C 
ATOM      4  O   UNL d   1      13.790  13.892  -2.689  0.00  0.00    -0.283 OA
BRANCH   3   5
ATOM      5  C   UNL d   1      13.353  12.862  -3.577  0.00  0.00     0.065 A 
ATOM      6  C   UNL d   1      13.234  13.387  -4.173  0.00  0.00     0.097 A 
ATOM      7  C   UNL d   1      12.938  13.135  -4.909  0.00  0.00     0.024 A 
ATOM      8  C   UNL d   1      12.769  12.339  -5.014  0.00  0.00     0.002 A 
ATOM      9  C   UNL d   1      12.887  11.808  -4.416  0.00  0.00     0.000 A 
ATOM     10  C   UNL d   1      13.184  12.065  -3.683  0.00  0.00     0.005 A 
BRANCH   6  11
ATOM     11  O   UNL d   1      13.408  14.196  -4.063  0.00  0.00    -0.328 OA
ATOM     12  C   UNL d   1      13.044  14.725  -4.422  0.00  0.00     0.181 C 
ENDBRANCH   6  11
ENDBRANCH   3   5
ENDBRANCH   1   3
BRANCH   1  13
ATOM     13  C   UNL d   1      14.299  12.730  -1.620  0.00  0.00     0.065 A 
ATOM     14  C   UNL d   1      14.143  12.432  -0.869  0.00  0.00     0.097 A 
ATOM     15  C   UNL d   1      14.645  12.633  -0.246  0.00  0.00     0.024 A 
ATOM     16  C   UNL d   1      15.288  13.120  -0.370  0.00  0.00     0.002 A 
ATOM     17  C   UNL d   1      15.444  13.413  -1.102  0.00  0.00     0.000 A 
ATOM     18  C   UNL d   1      14.957  13.228  -1.746  0.00  0.00     0.005 A 
BRANCH  14  19
ATOM     19  O   UNL d   1      13.470  11.919  -0.725  0.00  0.00    -0.328 OA
ATOM     20  C   UNL d   1      13.024  11.955  -0.030  0.00  0.00     0.181 C 
ENDBRANCH  14  19
ENDBRANCH   1  13
TORSDOF 5
ENDMDL
