MODEL 1
REMARK VINA RESULT:      99.2      0.000      0.000
REMARK  7 active torsions:
REMARK  status: ('A' for Active; 'I' for Inactive)
REMARK    1  A    between atoms: C_25  and  N_5 
REMARK    2  A    between atoms: C_11  and  C_6 
REMARK       I    between atoms: N_19  and  C_11 
REMARK    3  A    between atoms: N_15  and  C_28 
REMARK    4  A    between atoms: C_27  and  N_19 
REMARK    5  A    between atoms: C_26  and  C_25 
REMARK    6  A    between atoms: C_28  and  C_26 
REMARK    7  A    between atoms: C_29  and  C_27 
ROOT
ATOM      1  C   UNL d   1     -50.919  26.673  35.673  0.00  0.00     0.155 A 
ATOM      2  C   UNL d   1     -50.387  26.989  36.219  0.00  0.00     0.091 A 
ATOM      3  N   UNL d   1     -51.602  26.297  35.939  0.00  0.00    -0.210 NA
ATOM      4  N   UNL d   1     -51.221  26.553  37.286  0.00  0.00    -0.258 N 
ATOM      5  N   UNL d   1     -50.769  26.732  34.865  0.00  0.00    -0.274 N 
ATOM      6  C   UNL d   1     -49.544  27.430  35.147  0.00  0.00     0.094 A 
ATOM      7  C   UNL d   1     -50.540  26.929  37.030  0.00  0.00     0.269 A 
ATOM      8  C   UNL d   1     -50.082  27.110  34.595  0.00  0.00     0.175 A 
ATOM      9  C   UNL d   1     -51.750  26.239  36.737  0.00  0.00     0.152 A 
ATOM     10  C   UNL d   1     -49.697  27.369  35.958  0.00  0.00     0.016 A 
ATOM     11  C   UNL d   1     -51.382  26.488  38.094  0.00  0.00     0.084 A 
ATOM     12  C   UNL d   1     -52.440  25.859  36.996  0.00  0.00     0.038 A 
ATOM     13  N   UNL d   1     -49.932  27.169  33.787  0.00  0.00    -0.128 N 
ATOM     14  C   UNL d   1     -52.064  26.112  38.351  0.00  0.00     0.018 A 
ATOM     15  C   UNL d   1     -52.593  25.798  37.802  0.00  0.00     0.005 A 
ATOM     16  O   UNL d   1     -50.008  27.245  37.576  0.00  0.00    -0.266 OA
ATOM     17  C   UNL d   1     -52.223  26.048  39.149  0.00  0.00     0.002 C 
ENDROOT
BRANCH   6  18
ATOM     18  C   UNL d   1     -48.866  27.803  34.888  0.00  0.00     0.282 C 
ATOM     19  N   UNL d   1     -48.555  28.446  35.317  0.00  0.00    -0.206 NA
ATOM     20  O   UNL d   1     -48.481  27.552  34.203  0.00  0.00    -0.265 OA
BRANCH  19  21
ATOM     21  C   UNL d   1     -47.873  28.823  35.058  0.00  0.00     0.102 C 
BRANCH  21  22
ATOM     22  C   UNL d   1     -47.734  29.618  35.259  0.00  0.00     0.019 A 
ATOM     23  C   UNL d   1     -48.096  30.215  34.821  0.00  0.00     0.002 A 
ATOM     24  C   UNL d   1     -47.964  31.011  35.012  0.00  0.00     0.000 A 
ATOM     25  C   UNL d   1     -47.467  31.203  35.648  0.00  0.00     0.000 A 
ATOM     26  C   UNL d   1     -47.105  30.591  36.086  0.00  0.00     0.000 A 
ATOM     27  C   UNL d   1     -47.240  29.803  35.889  0.00  0.00     0.002 A 
ENDBRANCH  21  22
ENDBRANCH  19  21
ENDBRANCH   6  18
BRANCH   5  28
ATOM     28  C   UNL d   1     -51.304  26.414  34.323  0.00  0.00     0.085 C 
BRANCH  28  29
ATOM     29  C   UNL d   1     -51.087  25.766  33.862  0.00  0.00     0.038 C 
BRANCH  29  30
ATOM     30  C   UNL d   1     -51.629  25.430  33.333  0.00  0.00     0.083 C 
BRANCH  30  31
ATOM     31  N   UNL d   1     -51.748  24.615  33.324  0.00  0.00    -0.285 N 
ATOM     32  C   UNL d   1     -52.474  24.238  33.312  0.00  0.00     0.183 A 
ATOM     33  N   UNL d   1     -52.321  23.409  33.306  0.00  0.00    -0.222 NA
ATOM     34  C   UNL d   1     -51.519  23.301  33.315  0.00  0.00     0.120 A 
ATOM     35  C   UNL d   1     -51.158  24.044  33.326  0.00  0.00     0.102 A 
ENDBRANCH  30  31
ENDBRANCH  29  30
ENDBRANCH  28  29
ENDBRANCH   5  28
TORSDOF 7
ENDMDL
