MODEL 1
REMARK VINA RESULT:      -2.9      0.000      0.000
REMARK  5 active torsions:
REMARK  status: ('A' for Active; 'I' for Inactive)
REMARK    1  A    between atoms: N_2  and  C_1 
REMARK    2  A    between atoms: N_3  and  C_1 
REMARK       I    between atoms: C_4  and  N_3 
REMARK    3  A    between atoms: C_11  and  C_4 
REMARK    4  A    between atoms: O_7  and  C_11 
REMARK    5  A    between atoms: C_8  and  O_7 
ROOT
ATOM      1  N   UNL d   1      56.631  -0.736  32.236  0.00  0.00    -0.178 NA
ATOM      2  C   UNL d   1      57.122  -0.791  31.567  0.00  0.00     0.304 C 
ATOM      3  O   UNL d   1      57.387  -1.525  31.309  0.00  0.00    -0.263 OA
ENDROOT
BRANCH   2   4
ATOM      4  C   UNL d   1      57.346  -0.107  31.160  0.00  0.00     0.158 C 
ATOM      5  C   UNL d   1      56.817   0.251  30.645  0.00  0.00     0.032 C 
BRANCH   4   6
ATOM      6  O   UNL d   1      58.097   0.214  31.270  0.00  0.00    -0.301 OA
BRANCH   6   7
ATOM      7  C   UNL d   1      58.600   0.329  30.634  0.00  0.00     0.111 A 
ATOM      8  C   UNL d   1      59.385   0.560  30.746  0.00  0.00     0.081 A 
ATOM      9  C   UNL d   1      59.885   0.674  30.100  0.00  0.00     0.025 A 
ATOM     10 CL   UNL d   1      59.673   0.678  31.510  0.00  0.00    -0.080 Cl
ATOM     11  C   UNL d   1      59.604   0.558  29.340  0.00  0.00     0.059 A 
ATOM     12  C   UNL d   1      58.814   0.325  29.220  0.00  0.00     0.013 A 
ATOM     13 CL   UNL d   1      60.110   0.673  28.678  0.00  0.00    -0.082 Cl
ATOM     14  C   UNL d   1      58.316   0.212  29.864  0.00  0.00     0.026 A 
ENDBRANCH   6   7
ENDBRANCH   4   6
ENDBRANCH   2   4
BRANCH   1  15
ATOM     15  C   UNL d   1      56.365  -0.003  32.494  0.00  0.00     0.209 C 
ATOM     16  S   UNL d   1      56.089   0.553  31.945  0.00  0.00    -0.038 SA
BRANCH  15  17
ATOM     17  N   UNL d   1      56.372   0.187  33.298  0.00  0.00    -0.282 N 
ATOM     18  C   UNL d   1      55.723   0.335  33.769  0.00  0.00     0.066 A 
ATOM     19  C   UNL d   1      55.987   0.500  34.531  0.00  0.00     0.018 A 
ATOM     20  C   UNL d   1      54.912   0.341  33.596  0.00  0.00     0.018 A 
ATOM     21  C   UNL d   1      55.444   0.672  35.128  0.00  0.00     0.002 A 
ATOM     22  C   UNL d   1      56.800   0.454  34.533  0.00  0.00     0.021 A 
ATOM     23  C   UNL d   1      54.628   0.680  34.965  0.00  0.00     0.000 A 
ATOM     24  C   UNL d   1      54.363   0.515  34.202  0.00  0.00     0.002 A 
ATOM     25  C   UNL d   1      57.048   0.260  33.770  0.00  0.00     0.082 A 
ENDBRANCH  15  17
ENDBRANCH   1  15
TORSDOF 5
ENDMDL
MODEL 2
REMARK VINA RESULT:      -0.4      2.239      5.210
REMARK  5 active torsions:
REMARK  status: ('A' for Active; 'I' for Inactive)
REMARK    1  A    between atoms: N_2  and  C_1 
REMARK    2  A    between atoms: N_3  and  C_1 
REMARK       I    between atoms: C_4  and  N_3 
REMARK    3  A    between atoms: C_11  and  C_4 
REMARK    4  A    between atoms: O_7  and  C_11 
REMARK    5  A    between atoms: C_8  and  O_7 
ROOT
ATOM      1  N   UNL d   1      58.360   0.232  29.550  0.00  0.00    -0.178 NA
ATOM      2  C   UNL d   1      57.642   0.391  29.938  0.00  0.00     0.304 C 
ATOM      3  O   UNL d   1      56.999   0.677  29.515  0.00  0.00    -0.263 OA
ENDROOT
BRANCH   2   4
ATOM      4  C   UNL d   1      57.573   0.261  30.752  0.00  0.00     0.158 C 
ATOM      5  C   UNL d   1      58.145   0.557  31.261  0.00  0.00     0.032 C 
BRANCH   4   6
ATOM      6  O   UNL d   1      56.933  -0.163  31.050  0.00  0.00    -0.301 OA
BRANCH   6   7
ATOM      7  C   UNL d   1      56.734  -0.116  31.844  0.00  0.00     0.111 A 
ATOM      8  C   UNL d   1      56.481  -0.782  32.262  0.00  0.00     0.081 A 
ATOM      9  C   UNL d   1      56.283  -0.726  33.060  0.00  0.00     0.025 A 
ATOM     10 CL   UNL d   1      56.427  -1.511  31.878  0.00  0.00    -0.080 Cl
ATOM     11  C   UNL d   1      56.335  -0.006  33.445  0.00  0.00     0.059 A 
ATOM     12  C   UNL d   1      56.589   0.669  33.029  0.00  0.00     0.013 A 
ATOM     13 CL   UNL d   1      56.133   0.056  34.260  0.00  0.00    -0.082 Cl
ATOM     14  C   UNL d   1      56.787   0.613  32.234  0.00  0.00     0.026 A 
ENDBRANCH   6   7
ENDBRANCH   4   6
ENDBRANCH   2   4
BRANCH   1  15
ATOM     15  C   UNL d   1      59.003  -0.055  29.973  0.00  0.00     0.209 C 
ATOM     16  S   UNL d   1      58.969  -0.095  30.801  0.00  0.00    -0.038 SA
BRANCH  15  17
ATOM     17  N   UNL d   1      59.686  -0.305  29.582  0.00  0.00    -0.282 N 
ATOM     18  C   UNL d   1      59.812  -1.033  29.235  0.00  0.00     0.066 A 
ATOM     19  C   UNL d   1      60.569  -1.039  28.910  0.00  0.00     0.018 A 
ATOM     20  C   UNL d   1      59.324  -1.700  29.174  0.00  0.00     0.018 A 
ATOM     21  C   UNL d   1      60.845  -1.712  28.521  0.00  0.00     0.002 A 
ATOM     22  C   UNL d   1      60.912  -0.315  29.055  0.00  0.00     0.021 A 
ATOM     23  C   UNL d   1      60.362  -2.387  28.455  0.00  0.00     0.000 A 
ATOM     24  C   UNL d   1      59.605  -2.381  28.780  0.00  0.00     0.002 A 
ATOM     25  C   UNL d   1      60.371   0.148  29.472  0.00  0.00     0.082 A 
ENDBRANCH  15  17
ENDBRANCH   1  15
TORSDOF 5
ENDMDL
