MODEL 1
REMARK VINA RESULT:      54.6      0.000      0.000
REMARK  7 active torsions:
REMARK  status: ('A' for Active; 'I' for Inactive)
REMARK    1  A    between atoms: C_13  and  N_1 
REMARK    2  A    between atoms: C_2  and  N_6 
REMARK    3  A    between atoms: C_9  and  C_5 
REMARK       I    between atoms: N_6  and  C_9 
REMARK    4  A    between atoms: S_14  and  C_7 
REMARK    5  A    between atoms: C_21  and  S_14 
REMARK    6  A    between atoms: C_15  and  C_21 
REMARK    7  A    between atoms: O_25  and  C_15 
ROOT
ATOM      1  N   UNL d   1     -49.131  27.977  34.580  0.00  0.00    -0.181 NA
ATOM      2  C   UNL d   1     -49.247  27.662  33.877  0.00  0.00     0.283 C 
ATOM      3  O   UNL d   1     -48.714  27.756  33.317  0.00  0.00    -0.265 OA
ENDROOT
BRANCH   2   4
ATOM      4  C   UNL d   1     -49.891  27.254  33.737  0.00  0.00     0.080 A 
ATOM      5  C   UNL d   1     -49.955  26.482  33.727  0.00  0.00     0.088 A 
ATOM      6  N   UNL d   1     -50.695  26.304  33.565  0.00  0.00    -0.273 N 
ATOM      7  C   UNL d   1     -51.085  26.964  33.475  0.00  0.00     0.265 A 
ATOM      8  C   UNL d   1     -50.590  27.559  33.581  0.00  0.00     0.067 A 
ATOM      9  O   UNL d   1     -51.846  27.029  33.306  0.00  0.00    -0.267 OA
BRANCH   6  10
ATOM     10  C   UNL d   1     -51.009  25.528  33.500  0.00  0.00     0.067 A 
ATOM     11  C   UNL d   1     -50.497  24.872  33.548  0.00  0.00     0.020 A 
ATOM     12  C   UNL d   1     -50.820  24.103  33.482  0.00  0.00     0.031 A 
ATOM     13  C   UNL d   1     -51.632  23.991  33.371  0.00  0.00     0.140 A 
ATOM     14  C   UNL d   1     -52.141  24.655  33.324  0.00  0.00     0.031 A 
ATOM     15  F   UNL d   1     -51.954  23.215  33.306  0.00  0.00    -0.204 F 
ATOM     16  C   UNL d   1     -51.833  25.416  33.387  0.00  0.00     0.020 A 
ENDBRANCH   6  10
ENDBRANCH   2   4
BRANCH   1  17
ATOM     17  C   UNL d   1     -48.487  28.386  34.725  0.00  0.00     0.219 A 
ATOM     18  S   UNL d   1     -48.423  29.161  34.719  0.00  0.00    -0.019 SA
ATOM     19  C   UNL d   1     -47.695  29.344  34.889  0.00  0.00     0.165 A 
ATOM     20  N   UNL d   1     -47.291  28.688  35.004  0.00  0.00    -0.133 NA
ATOM     21  N   UNL d   1     -47.790  28.085  34.900  0.00  0.00    -0.120 NA
BRANCH  19  22
ATOM     22  S   UNL d   1     -47.307  31.013  34.938  0.00  0.00    -0.053 SA
BRANCH  22  23
ATOM     23  C   UNL d   1     -47.916  31.584  34.936  0.00  0.00     0.106 C 
BRANCH  23  24
ATOM     24  C   UNL d   1     -47.937  32.179  34.336  0.00  0.00     0.303 C 
ATOM     25  O   UNL d   1     -48.403  32.865  34.436  0.00  0.00    -0.259 OA
BRANCH  24  26
ATOM     26  O   UNL d   1     -47.477  32.065  33.637  0.00  0.00    -0.295 OA
ATOM     27  C   UNL d   1     -46.708  32.386  33.609  0.00  0.00     0.185 C 
ENDBRANCH  24  26
ENDBRANCH  23  24
ENDBRANCH  22  23
ENDBRANCH  19  22
ENDBRANCH   1  17
TORSDOF 7
ENDMDL
MODEL 2
REMARK VINA RESULT:      56.4      2.684      6.506
REMARK  7 active torsions:
REMARK  status: ('A' for Active; 'I' for Inactive)
REMARK    1  A    between atoms: C_13  and  N_1 
REMARK    2  A    between atoms: C_2  and  N_6 
REMARK    3  A    between atoms: C_9  and  C_5 
REMARK       I    between atoms: N_6  and  C_9 
REMARK    4  A    between atoms: S_14  and  C_7 
REMARK    5  A    between atoms: C_21  and  S_14 
REMARK    6  A    between atoms: C_15  and  C_21 
REMARK    7  A    between atoms: O_25  and  C_15 
ROOT
ATOM      1  N   UNL d   1     -48.763  28.301  34.148  0.00  0.00    -0.181 NA
ATOM      2  C   UNL d   1     -48.518  28.460  34.871  0.00  0.00     0.283 C 
ATOM      3  O   UNL d   1     -48.576  27.920  35.428  0.00  0.00    -0.265 OA
ENDROOT
BRANCH   2   4
ATOM      4  C   UNL d   1     -48.216  29.155  35.032  0.00  0.00     0.080 A 
ATOM      5  C   UNL d   1     -48.260  29.791  34.591  0.00  0.00     0.088 A 
ATOM      6  N   UNL d   1     -47.884  30.365  34.957  0.00  0.00    -0.273 N 
ATOM      7  C   UNL d   1     -47.609  30.084  35.622  0.00  0.00     0.265 A 
ATOM      8  C   UNL d   1     -47.812  29.332  35.674  0.00  0.00     0.067 A 
ATOM      9  O   UNL d   1     -47.197  30.483  36.154  0.00  0.00    -0.267 OA
BRANCH   6  10
ATOM     10  C   UNL d   1     -47.796  31.151  34.675  0.00  0.00     0.067 A 
ATOM     11  C   UNL d   1     -47.106  31.362  34.257  0.00  0.00     0.020 A 
ATOM     12  C   UNL d   1     -47.027  32.148  33.980  0.00  0.00     0.031 A 
ATOM     13  C   UNL d   1     -47.621  32.708  34.117  0.00  0.00     0.140 A 
ATOM     14  C   UNL d   1     -48.312  32.488  34.538  0.00  0.00     0.031 A 
ATOM     15  F   UNL d   1     -47.539  33.499  33.836  0.00  0.00    -0.204 F 
ATOM     16  C   UNL d   1     -48.399  31.718  34.814  0.00  0.00     0.020 A 
ENDBRANCH   6  10
ENDBRANCH   2   4
BRANCH   1  17
ATOM     17  C   UNL d   1     -49.066  27.606  33.982  0.00  0.00     0.219 A 
ATOM     18  S   UNL d   1     -49.823  27.441  33.903  0.00  0.00    -0.019 SA
ATOM     19  C   UNL d   1     -49.889  26.691  33.740  0.00  0.00     0.165 A 
ATOM     20  N   UNL d   1     -49.178  26.375  33.714  0.00  0.00    -0.133 NA
ATOM     21  N   UNL d   1     -48.660  26.951  33.867  0.00  0.00    -0.120 NA
BRANCH  19  22
ATOM     22  S   UNL d   1     -51.478  26.086  33.518  0.00  0.00    -0.053 SA
BRANCH  22  23
ATOM     23  C   UNL d   1     -51.608  25.264  33.458  0.00  0.00     0.106 C 
BRANCH  23  24
ATOM     24  C   UNL d   1     -52.396  24.957  33.473  0.00  0.00     0.303 C 
ATOM     25  O   UNL d   1     -53.047  25.454  33.310  0.00  0.00    -0.259 OA
BRANCH  24  26
ATOM     26  O   UNL d   1     -52.508  24.141  33.655  0.00  0.00    -0.295 OA
ATOM     27  C   UNL d   1     -51.992  23.582  33.313  0.00  0.00     0.185 C 
ENDBRANCH  24  26
ENDBRANCH  23  24
ENDBRANCH  22  23
ENDBRANCH  19  22
ENDBRANCH   1  17
TORSDOF 7
ENDMDL
