MODEL 1
REMARK VINA RESULT:      -8.0      0.000      0.000
REMARK  5 active torsions:
REMARK  status: ('A' for Active; 'I' for Inactive)
REMARK    1  A    between atoms: C_11  and  C_1 
REMARK    2  A    between atoms: C_2  and  N_5 
REMARK    3  A    between atoms: N_3  and  C_7 
REMARK       I    between atoms: N_5  and  C_6 
REMARK    4  A    between atoms: C_6  and  C_9 
REMARK    5  A    between atoms: C_16  and  C_8 
ROOT
ATOM      1  N   UNL d   1     -47.316  13.100  23.294  0.00  0.00    -0.183 NA
ATOM      2  C   UNL d   1     -48.046  13.152  22.805  0.00  0.00     0.281 C 
ATOM      3  O   UNL d   1     -48.374  12.452  22.482  0.00  0.00    -0.265 OA
ENDROOT
BRANCH   2   4
ATOM      4  C   UNL d   1     -48.404  13.941  22.675  0.00  0.00     0.065 A 
ATOM      5  C   UNL d   1     -49.228  13.964  22.633  0.00  0.00     0.091 A 
ATOM      6  C   UNL d   1     -49.587  14.709  22.509  0.00  0.00     0.133 A 
ATOM      7  C   UNL d   1     -49.132  15.393  22.432  0.00  0.00     0.024 A 
ATOM      8  C   UNL d   1     -48.298  15.363  22.476  0.00  0.00     0.002 A 
ATOM      9  C   UNL d   1     -47.949  14.625  22.598  0.00  0.00     0.005 A 
BRANCH   5  10
ATOM     10  C   UNL d   1     -49.676  13.291  22.709  0.00  0.00     0.213 C 
ATOM     11  O   UNL d   1     -49.950  13.037  23.456  0.00  0.00    -0.644 OA
ATOM     12  O   UNL d   1     -49.815  12.922  22.027  0.00  0.00    -0.644 OA
ENDBRANCH   5  10
BRANCH   6  13
ATOM     13  N   UNL d   1     -50.398  14.773  22.462  0.00  0.00    -0.114 N 
ATOM     14  O   UNL d   1     -50.824  14.807  21.756  0.00  0.00    -0.532 OA
ATOM     15  O   UNL d   1     -50.893  14.814  23.107  0.00  0.00    -0.532 OA
ENDBRANCH   6  13
ENDBRANCH   2   4
BRANCH   1  16
ATOM     16  C   UNL d   1     -46.971  12.362  23.423  0.00  0.00     0.197 A 
ATOM     17  N   UNL d   1     -46.196  12.270  23.284  0.00  0.00    -0.221 NA
ATOM     18  C   UNL d   1     -46.008  11.503  23.455  0.00  0.00     0.090 A 
ATOM     19  C   UNL d   1     -46.623  11.156  23.680  0.00  0.00     0.058 A 
ATOM     20  S   UNL d   1     -47.296  11.625  23.694  0.00  0.00    -0.046 SA
BRANCH  18  21
ATOM     21  C   UNL d   1     -45.285  11.114  23.408  0.00  0.00     0.018 A 
ATOM     22  C   UNL d   1     -44.637  11.502  23.067  0.00  0.00     0.002 A 
ATOM     23  C   UNL d   1     -43.897  11.116  23.015  0.00  0.00     0.000 A 
ATOM     24  C   UNL d   1     -43.820  10.339  23.309  0.00  0.00     0.000 A 
ATOM     25  C   UNL d   1     -44.461   9.960  23.644  0.00  0.00     0.000 A 
ATOM     26  C   UNL d   1     -45.202  10.347  23.697  0.00  0.00     0.002 A 
ENDBRANCH  18  21
ENDBRANCH   1  16
TORSDOF 5
ENDMDL
MODEL 2
REMARK VINA RESULT:      -7.5      0.997      1.564
REMARK  5 active torsions:
REMARK  status: ('A' for Active; 'I' for Inactive)
REMARK    1  A    between atoms: C_11  and  C_1 
REMARK    2  A    between atoms: C_2  and  N_5 
REMARK    3  A    between atoms: N_3  and  C_7 
REMARK       I    between atoms: N_5  and  C_6 
REMARK    4  A    between atoms: C_6  and  C_9 
REMARK    5  A    between atoms: C_16  and  C_8 
ROOT
ATOM      1  N   UNL d   1     -47.724  12.549  23.446  0.00  0.00    -0.183 NA
ATOM      2  C   UNL d   1     -48.296  12.599  22.779  0.00  0.00     0.281 C 
ATOM      3  O   UNL d   1     -48.012  12.574  21.992  0.00  0.00    -0.265 OA
ENDROOT
BRANCH   2   4
ATOM      4  C   UNL d   1     -49.148  12.674  22.968  0.00  0.00     0.065 A 
ATOM      5  C   UNL d   1     -49.554  13.284  22.587  0.00  0.00     0.091 A 
ATOM      6  C   UNL d   1     -50.368  13.370  22.755  0.00  0.00     0.133 A 
ATOM      7  C   UNL d   1     -50.749  12.864  23.283  0.00  0.00     0.024 A 
ATOM      8  C   UNL d   1     -50.333  12.248  23.666  0.00  0.00     0.002 A 
ATOM      9  C   UNL d   1     -49.530  12.168  23.496  0.00  0.00     0.005 A 
BRANCH   5  10
ATOM     10  C   UNL d   1     -49.178  13.782  22.067  0.00  0.00     0.213 C 
ATOM     11  O   UNL d   1     -49.114  13.591  21.255  0.00  0.00    -0.644 OA
ATOM     12  O   UNL d   1     -48.894  14.436  22.401  0.00  0.00    -0.644 OA
ENDBRANCH   5  10
BRANCH   6  13
ATOM     13  N   UNL d   1     -50.803  13.960  22.398  0.00  0.00    -0.114 N 
ATOM     14  O   UNL d   1     -51.059  14.647  22.777  0.00  0.00    -0.532 OA
ATOM     15  O   UNL d   1     -51.041  13.947  21.620  0.00  0.00    -0.532 OA
ENDBRANCH   6  13
ENDBRANCH   2   4
BRANCH   1  16
ATOM     16  C   UNL d   1     -46.919  12.479  23.280  0.00  0.00     0.197 A 
ATOM     17  N   UNL d   1     -46.550  11.796  23.442  0.00  0.00    -0.221 NA
ATOM     18  C   UNL d   1     -45.776  11.880  23.227  0.00  0.00     0.090 A 
ATOM     19  C   UNL d   1     -45.682  12.564  22.954  0.00  0.00     0.058 A 
ATOM     20  S   UNL d   1     -46.360  13.026  22.947  0.00  0.00    -0.046 SA
BRANCH  18  21
ATOM     21  C   UNL d   1     -45.154  11.345  23.274  0.00  0.00     0.018 A 
ATOM     22  C   UNL d   1     -44.425  11.540  22.934  0.00  0.00     0.002 A 
ATOM     23  C   UNL d   1     -43.785  11.003  22.977  0.00  0.00     0.000 A 
ATOM     24  C   UNL d   1     -43.891  10.272  23.364  0.00  0.00     0.000 A 
ATOM     25  C   UNL d   1     -44.612  10.083  23.697  0.00  0.00     0.000 A 
ATOM     26  C   UNL d   1     -45.252  10.620  23.655  0.00  0.00     0.002 A 
ENDBRANCH  18  21
ENDBRANCH   1  16
TORSDOF 5
ENDMDL
MODEL 3
REMARK VINA RESULT:      -7.3      8.234      9.647
REMARK  5 active torsions:
REMARK  status: ('A' for Active; 'I' for Inactive)
REMARK    1  A    between atoms: C_11  and  C_1 
REMARK    2  A    between atoms: C_2  and  N_5 
REMARK    3  A    between atoms: N_3  and  C_7 
REMARK       I    between atoms: N_5  and  C_6 
REMARK    4  A    between atoms: C_6  and  C_9 
REMARK    5  A    between atoms: C_16  and  C_8 
ROOT
ATOM      1  N   UNL d   1     -40.128  15.049  19.440  0.00  0.00    -0.183 NA
ATOM      2  C   UNL d   1     -40.210  14.491  18.765  0.00  0.00     0.281 C 
ATOM      3  O   UNL d   1     -40.348  13.680  18.918  0.00  0.00    -0.265 OA
ENDROOT
BRANCH   2   4
ATOM      4  C   UNL d   1     -40.143  14.811  17.952  0.00  0.00     0.065 A 
ATOM      5  C   UNL d   1     -39.544  14.490  17.483  0.00  0.00     0.091 A 
ATOM      6  C   UNL d   1     -39.465  14.782  16.704  0.00  0.00     0.133 A 
ATOM      7  C   UNL d   1     -39.968  15.370  16.418  0.00  0.00     0.024 A 
ATOM      8  C   UNL d   1     -40.573  15.691  16.897  0.00  0.00     0.002 A 
ATOM      9  C   UNL d   1     -40.646  15.398  17.665  0.00  0.00     0.005 A 
BRANCH   5  10
ATOM     10  C   UNL d   1     -39.049  13.911  17.765  0.00  0.00     0.213 C 
ATOM     11  O   UNL d   1     -38.309  14.103  18.105  0.00  0.00    -0.644 OA
ATOM     12  O   UNL d   1     -39.333  13.181  17.685  0.00  0.00    -0.644 OA
ENDBRANCH   5  10
BRANCH   6  13
ATOM     13  N   UNL d   1     -38.886  14.491  16.210  0.00  0.00    -0.114 N 
ATOM     14  O   UNL d   1     -38.152  14.848  16.087  0.00  0.00    -0.532 OA
ATOM     15  O   UNL d   1     -38.958  13.808  15.773  0.00  0.00    -0.532 OA
ENDBRANCH   6  13
ENDBRANCH   2   4
BRANCH   1  16
ATOM     16  C   UNL d   1     -40.190  14.760  20.210  0.00  0.00     0.197 A 
ATOM     17  N   UNL d   1     -39.548  14.762  20.675  0.00  0.00    -0.221 NA
ATOM     18  C   UNL d   1     -39.763  14.452  21.389  0.00  0.00     0.090 A 
ATOM     19  C   UNL d   1     -40.483  14.276  21.360  0.00  0.00     0.058 A 
ATOM     20  S   UNL d   1     -40.847  14.436  20.642  0.00  0.00    -0.046 SA
BRANCH  18  21
ATOM     21  C   UNL d   1     -39.316  14.328  22.067  0.00  0.00     0.018 A 
ATOM     22  C   UNL d   1     -39.121  13.554  22.288  0.00  0.00     0.002 A 
ATOM     23  C   UNL d   1     -38.666  13.416  22.976  0.00  0.00     0.000 A 
ATOM     24  C   UNL d   1     -38.412  14.065  23.435  0.00  0.00     0.000 A 
ATOM     25  C   UNL d   1     -38.606  14.827  23.214  0.00  0.00     0.000 A 
ATOM     26  C   UNL d   1     -39.061  14.964  22.525  0.00  0.00     0.002 A 
ENDBRANCH  18  21
ENDBRANCH   1  16
TORSDOF 5
ENDMDL
MODEL 4
REMARK VINA RESULT:      -5.9      8.654     10.332
REMARK  5 active torsions:
REMARK  status: ('A' for Active; 'I' for Inactive)
REMARK    1  A    between atoms: C_11  and  C_1 
REMARK    2  A    between atoms: C_2  and  N_5 
REMARK    3  A    between atoms: N_3  and  C_7 
REMARK       I    between atoms: N_5  and  C_6 
REMARK    4  A    between atoms: C_6  and  C_9 
REMARK    5  A    between atoms: C_16  and  C_8 
ROOT
ATOM      1  N   UNL d   1     -39.793  15.139  18.717  0.00  0.00    -0.183 NA
ATOM      2  C   UNL d   1     -39.375  15.336  19.465  0.00  0.00     0.281 C 
ATOM      3  O   UNL d   1     -38.585  15.612  19.433  0.00  0.00    -0.265 OA
ENDROOT
BRANCH   2   4
ATOM      4  C   UNL d   1     -39.805  15.235  20.221  0.00  0.00     0.065 A 
ATOM      5  C   UNL d   1     -39.371  14.920  20.848  0.00  0.00     0.091 A 
ATOM      6  C   UNL d   1     -39.765  14.816  21.578  0.00  0.00     0.133 A 
ATOM      7  C   UNL d   1     -40.560  15.022  21.664  0.00  0.00     0.024 A 
ATOM      8  C   UNL d   1     -40.995  15.340  21.026  0.00  0.00     0.002 A 
ATOM      9  C   UNL d   1     -40.600  15.440  20.308  0.00  0.00     0.005 A 
BRANCH   5  10
ATOM     10  C   UNL d   1     -38.589  14.718  20.763  0.00  0.00     0.213 C 
ATOM     11  O   UNL d   1     -37.982  15.280  20.882  0.00  0.00    -0.644 OA
ATOM     12  O   UNL d   1     -38.474  13.964  20.564  0.00  0.00    -0.644 OA
ENDBRANCH   5  10
BRANCH   6  13
ATOM     13  N   UNL d   1     -39.371  14.508  22.220  0.00  0.00    -0.114 N 
ATOM     14  O   UNL d   1     -38.949  14.957  22.770  0.00  0.00    -0.532 OA
ATOM     15  O   UNL d   1     -39.341  13.715  22.404  0.00  0.00    -0.532 OA
ENDBRANCH   6  13
ENDBRANCH   2   4
BRANCH   1  16
ATOM     16  C   UNL d   1     -39.398  15.231  17.999  0.00  0.00     0.197 A 
ATOM     17  N   UNL d   1     -39.226  14.587  17.569  0.00  0.00    -0.221 NA
ATOM     18  C   UNL d   1     -38.843  14.836  16.902  0.00  0.00     0.090 A 
ATOM     19  C   UNL d   1     -38.787  15.575  16.926  0.00  0.00     0.058 A 
ATOM     20  S   UNL d   1     -39.115  15.922  17.593  0.00  0.00    -0.046 SA
BRANCH  18  21
ATOM     21  C   UNL d   1     -38.544  14.400  16.272  0.00  0.00     0.018 A 
ATOM     22  C   UNL d   1     -38.318  13.614  16.395  0.00  0.00     0.002 A 
ATOM     23  C   UNL d   1     -38.012  13.162  15.761  0.00  0.00     0.000 A 
ATOM     24  C   UNL d   1     -37.940  13.511  15.007  0.00  0.00     0.000 A 
ATOM     25  C   UNL d   1     -38.165  14.288  14.890  0.00  0.00     0.000 A 
ATOM     26  C   UNL d   1     -38.470  14.740  15.525  0.00  0.00     0.002 A 
ENDBRANCH  18  21
ENDBRANCH   1  16
TORSDOF 5
ENDMDL
MODEL 5
REMARK VINA RESULT:      -5.8      9.073     10.607
REMARK  5 active torsions:
REMARK  status: ('A' for Active; 'I' for Inactive)
REMARK    1  A    between atoms: C_11  and  C_1 
REMARK    2  A    between atoms: C_2  and  N_5 
REMARK    3  A    between atoms: N_3  and  C_7 
REMARK       I    between atoms: N_5  and  C_6 
REMARK    4  A    between atoms: C_6  and  C_9 
REMARK    5  A    between atoms: C_16  and  C_8 
ROOT
ATOM      1  N   UNL d   1     -38.382  15.126  18.023  0.00  0.00    -0.183 NA
ATOM      2  C   UNL d   1     -39.109  15.507  18.341  0.00  0.00     0.281 C 
ATOM      3  O   UNL d   1     -39.622  15.911  17.817  0.00  0.00    -0.265 OA
ENDROOT
BRANCH   2   4
ATOM      4  C   UNL d   1     -39.267  15.448  19.200  0.00  0.00     0.065 A 
ATOM      5  C   UNL d   1     -40.037  15.239  19.415  0.00  0.00     0.091 A 
ATOM      6  C   UNL d   1     -40.206  15.178  20.231  0.00  0.00     0.133 A 
ATOM      7  C   UNL d   1     -39.625  15.322  20.798  0.00  0.00     0.024 A 
ATOM      8  C   UNL d   1     -38.848  15.533  20.575  0.00  0.00     0.002 A 
ATOM      9  C   UNL d   1     -38.686  15.592  19.768  0.00  0.00     0.005 A 
BRANCH   5  10
ATOM     10  C   UNL d   1     -40.609  15.097  18.857  0.00  0.00     0.213 C 
ATOM     11  O   UNL d   1     -40.709  14.336  18.524  0.00  0.00    -0.644 OA
ATOM     12  O   UNL d   1     -41.039  15.730  18.673  0.00  0.00    -0.644 OA
ENDBRANCH   5  10
BRANCH   6  13
ATOM     13  N   UNL d   1     -40.954  14.973  20.483  0.00  0.00    -0.114 N 
ATOM     14  O   UNL d   1     -41.560  15.512  20.635  0.00  0.00    -0.532 OA
ATOM     15  O   UNL d   1     -41.199  14.209  20.618  0.00  0.00    -0.532 OA
ENDBRANCH   6  13
ENDBRANCH   2   4
BRANCH   1  16
ATOM     16  C   UNL d   1     -38.223  15.175  17.216  0.00  0.00     0.197 A 
ATOM     17  N   UNL d   1     -38.256  14.516  16.775  0.00  0.00    -0.221 NA
ATOM     18  C   UNL d   1     -38.078  14.723  16.015  0.00  0.00     0.090 A 
ATOM     19  C   UNL d   1     -37.946  15.453  15.995  0.00  0.00     0.058 A 
ATOM     20  S   UNL d   1     -38.014  15.833  16.719  0.00  0.00    -0.046 SA
BRANCH  18  21
ATOM     21  C   UNL d   1     -38.033  14.258  15.338  0.00  0.00     0.018 A 
ATOM     22  C   UNL d   1     -38.036  14.623  14.595  0.00  0.00     0.002 A 
ATOM     23  C   UNL d   1     -37.991  14.159  13.901  0.00  0.00     0.000 A 
ATOM     24  C   UNL d   1     -37.944  13.329  13.966  0.00  0.00     0.000 A 
ATOM     25  C   UNL d   1     -37.941  12.973  14.701  0.00  0.00     0.000 A 
ATOM     26  C   UNL d   1     -37.986  13.437  15.396  0.00  0.00     0.002 A 
ENDBRANCH  18  21
ENDBRANCH   1  16
TORSDOF 5
ENDMDL
MODEL 6
REMARK VINA RESULT:      -5.6      9.084     10.309
REMARK  5 active torsions:
REMARK  status: ('A' for Active; 'I' for Inactive)
REMARK    1  A    between atoms: C_11  and  C_1 
REMARK    2  A    between atoms: C_2  and  N_5 
REMARK    3  A    between atoms: N_3  and  C_7 
REMARK       I    between atoms: N_5  and  C_6 
REMARK    4  A    between atoms: C_6  and  C_9 
REMARK    5  A    between atoms: C_16  and  C_8 
ROOT
ATOM      1  N   UNL d   1     -38.801  14.112  19.659  0.00  0.00    -0.183 NA
ATOM      2  C   UNL d   1     -38.501  14.585  20.337  0.00  0.00     0.281 C 
ATOM      3  O   UNL d   1     -38.346  15.401  20.231  0.00  0.00    -0.265 OA
ENDROOT
BRANCH   2   4
ATOM      4  C   UNL d   1     -38.375  14.180  21.103  0.00  0.00     0.065 A 
ATOM      5  C   UNL d   1     -38.517  14.629  21.781  0.00  0.00     0.091 A 
ATOM      6  C   UNL d   1     -38.402  14.258  22.521  0.00  0.00     0.133 A 
ATOM      7  C   UNL d   1     -38.156  13.472  22.569  0.00  0.00     0.024 A 
ATOM      8  C   UNL d   1     -38.014  13.022  21.879  0.00  0.00     0.002 A 
ATOM      9  C   UNL d   1     -38.129  13.394  21.151  0.00  0.00     0.005 A 
BRANCH   5  10
ATOM     10  C   UNL d   1     -38.759  15.403  21.733  0.00  0.00     0.213 C 
ATOM     11  O   UNL d   1     -39.571  15.601  21.721  0.00  0.00    -0.644 OA
ATOM     12  O   UNL d   1     -38.167  15.921  21.701  0.00  0.00    -0.644 OA
ENDBRANCH   5  10
BRANCH   6  13
ATOM     13  N   UNL d   1     -38.531  14.669  23.213  0.00  0.00    -0.114 N 
ATOM     14  O   UNL d   1     -37.945  15.064  23.640  0.00  0.00    -0.532 OA
ATOM     15  O   UNL d   1     -39.257  14.742  23.573  0.00  0.00    -0.532 OA
ENDBRANCH   6  13
ENDBRANCH   2   4
BRANCH   1  16
ATOM     16  C   UNL d   1     -38.923  14.484  18.933  0.00  0.00     0.197 A 
ATOM     17  N   UNL d   1     -39.663  14.669  18.714  0.00  0.00    -0.221 NA
ATOM     18  C   UNL d   1     -39.620  15.022  17.989  0.00  0.00     0.090 A 
ATOM     19  C   UNL d   1     -38.908  15.050  17.783  0.00  0.00     0.058 A 
ATOM     20  S   UNL d   1     -38.383  14.728  18.324  0.00  0.00    -0.046 SA
BRANCH  18  21
ATOM     21  C   UNL d   1     -40.220  15.320  17.511  0.00  0.00     0.018 A 
ATOM     22  C   UNL d   1     -40.982  15.405  17.823  0.00  0.00     0.002 A 
ATOM     23  C   UNL d   1     -41.599  15.707  17.346  0.00  0.00     0.000 A 
ATOM     24  C   UNL d   1     -41.438  15.921  16.557  0.00  0.00     0.000 A 
ATOM     25  C   UNL d   1     -40.684  15.836  16.253  0.00  0.00     0.000 A 
ATOM     26  C   UNL d   1     -40.067  15.534  16.730  0.00  0.00     0.002 A 
ENDBRANCH  18  21
ENDBRANCH   1  16
TORSDOF 5
ENDMDL
