MODEL 1
REMARK VINA RESULT:     104.6      0.000      0.000
REMARK  9 active torsions:
REMARK  status: ('A' for Active; 'I' for Inactive)
REMARK    1  A    between atoms: N_8  and  C_1 
REMARK    2  A    between atoms: S_2  and  C_13 
REMARK    3  A    between atoms: N_7  and  S_2 
REMARK    4  A    between atoms: C_12  and  C_3 
REMARK       I    between atoms: C_10  and  N_8 
REMARK       I    between atoms: C_11  and  N_9 
REMARK    5  A    between atoms: C_21  and  C_10 
REMARK    6  A    between atoms: O_33  and  C_11 
REMARK    7  A    between atoms: C_34  and  N_14 
REMARK    8  A    between atoms: C_35  and  O_33 
REMARK    9  A    between atoms: C_36  and  C_34 
ROOT
ATOM      1  C   UNL d   1      14.258  18.897  -5.379  0.00  0.00     0.104 A 
ATOM      2  C   UNL d   1      14.040  17.266  -5.263  0.00  0.00     0.056 A 
ATOM      3  C   UNL d   1      14.182  18.434  -6.063  0.00  0.00     0.013 A 
ATOM      4  C   UNL d   1      14.224  18.538  -4.631  0.00  0.00     0.013 A 
ATOM      5  C   UNL d   1      14.073  17.622  -6.009  0.00  0.00     0.005 A 
ATOM      6  C   UNL d   1      14.114  17.716  -4.578  0.00  0.00     0.005 A 
ENDROOT
BRANCH   2   7
ATOM      7  C   UNL d   1      13.930  16.447  -5.202  0.00  0.00     0.258 C 
ATOM      8  N   UNL d   1      13.775  16.105  -4.459  0.00  0.00    -0.316 N 
ATOM      9  H   UNL d   1      13.823  16.720  -4.283  0.00  0.00     0.169 HD
ATOM     10  O   UNL d   1      13.973  15.966  -5.873  0.00  0.00    -0.267 OA
BRANCH   8  11
ATOM     11  C   UNL d   1      13.665  15.287  -4.398  0.00  0.00     0.094 A 
ATOM     12  C   UNL d   1      13.888  14.814  -3.761  0.00  0.00     0.082 A 
ATOM     13  C   UNL d   1      13.680  14.032  -3.921  0.00  0.00     0.016 A 
ATOM     14  C   UNL d   1      13.767  13.333  -3.489  0.00  0.00     0.020 A 
ATOM     15  C   UNL d   1      13.322  14.009  -4.663  0.00  0.00     0.049 A 
ATOM     16  C   UNL d   1      13.497  12.620  -3.801  0.00  0.00     0.080 A 
ATOM     17  N   UNL d   1      13.141  12.593  -4.540  0.00  0.00    -0.302 N 
ATOM     18  C   UNL d   1      13.051  13.289  -4.976  0.00  0.00     0.087 A 
ATOM     19  S   UNL d   1      13.309  14.782  -4.966  0.00  0.00    -0.068 SA
BRANCH  12  20
ATOM     20  C   UNL d   1      14.259  15.070  -3.074  0.00  0.00     0.299 C 
ATOM     21  O   UNL d   1      14.948  14.716  -2.826  0.00  0.00    -0.264 OA
ATOM     22  N   UNL d   1      13.930  15.682  -2.641  0.00  0.00    -0.102 N 
ENDBRANCH  12  20
BRANCH  17  23
ATOM     23  C   UNL d   1      12.873  11.879  -4.847  0.00  0.00     0.080 C 
BRANCH  23  24
ATOM     24  C   UNL d   1      12.771  11.782  -5.661  0.00  0.00     0.019 C 
ATOM     25  C   UNL d   1      13.423  11.779  -6.157  0.00  0.00     0.002 C 
ENDBRANCH  23  24
ENDBRANCH  17  23
ENDBRANCH   8  11
ENDBRANCH   2   7
BRANCH   1  26
ATOM     26  S   UNL d   1      14.368  19.717  -5.436  0.00  0.00     0.271 S 
ATOM     27  O   UNL d   1      13.576  19.769  -5.686  0.00  0.00    -0.200 OA
ATOM     28  O   UNL d   1      15.152  19.663  -5.188  0.00  0.00    -0.200 OA
BRANCH  26  29
ATOM     29  N   UNL d   1      14.474  20.532  -5.494  0.00  0.00    -0.226 N 
ATOM     30  C   UNL d   1      15.024  20.845  -6.016  0.00  0.00     0.111 A 
ATOM     31  C   UNL d   1      15.120  21.667  -6.063  0.00  0.00     0.105 A 
ATOM     32  N   UNL d   1      14.667  22.171  -5.589  0.00  0.00    -0.248 N 
ATOM     33  C   UNL d   1      14.118  21.852  -5.067  0.00  0.00     0.105 A 
ATOM     34  C   UNL d   1      14.765  22.982  -5.638  0.00  0.00     0.378 C 
ATOM     35  C   UNL d   1      14.025  21.038  -5.023  0.00  0.00     0.111 A 
ATOM     36  O   UNL d   1      15.315  23.295  -6.161  0.00  0.00    -0.237 OA
BRANCH  34  37
ATOM     37  O   UNL d   1      14.315  23.474  -5.167  0.00  0.00    -0.257 OA
BRANCH  37  38
ATOM     38  C   UNL d   1      14.159  24.239  -5.408  0.00  0.00     0.128 C 
ATOM     39  C   UNL d   1      13.470  24.625  -5.151  0.00  0.00     0.029 C 
ENDBRANCH  37  38
ENDBRANCH  34  37
ENDBRANCH  26  29
ENDBRANCH   1  26
TORSDOF 9
ENDMDL
