MODEL 1
REMARK VINA RESULT:      34.4      0.000      0.000
REMARK  2 active torsions:
REMARK  status: ('A' for Active; 'I' for Inactive)
REMARK    1  A    between atoms: N_3  and  C_1 
REMARK    2  A    between atoms: C_13  and  N_6 
ROOT
ATOM      1  C   UNL d   1      57.954  49.610  50.656  0.00  0.00     0.143 A 
ATOM      2  C   UNL d   1      58.743  49.601  50.385  0.00  0.00     0.297 A 
ATOM      3  C   UNL d   1      57.962  49.646  51.465  0.00  0.00     0.102 A 
ATOM      4  N   UNL d   1      58.754  49.659  51.716  0.00  0.00    -0.238 N 
ATOM      5  N   UNL d   1      59.231  49.632  51.049  0.00  0.00    -0.209 N 
ATOM      6  O   UNL d   1      58.995  49.567  49.606  0.00  0.00    -0.264 OA
ATOM      7  C   UNL d   1      59.004  49.695  52.508  0.00  0.00     0.120 C 
ATOM      8  C   UNL d   1      57.296  49.665  51.960  0.00  0.00     0.022 C 
ENDROOT
BRANCH   1   9
ATOM      9  N   UNL d   1      57.285  49.586  50.165  0.00  0.00    -0.254 N 
ATOM     10  C   UNL d   1      57.302  49.613  49.336  0.00  0.00     0.153 A 
ATOM     11  S   UNL d   1      56.519  49.575  49.072  0.00  0.00    -0.053 SA
ATOM     12  S   UNL d   1      57.975  49.667  48.872  0.00  0.00    -0.052 SA
ATOM     13  C   UNL d   1      56.034  49.526  49.737  0.00  0.00     0.099 A 
ATOM     14  C   UNL d   1      56.508  49.533  50.405  0.00  0.00     0.273 A 
ATOM     15  O   UNL d   1      56.237  49.492  51.189  0.00  0.00    -0.266 OA
ENDBRANCH   1   9
BRANCH   5  16
ATOM     16  C   UNL d   1      60.055  49.633  51.021  0.00  0.00     0.085 A 
ATOM     17  C   UNL d   1      60.450  49.636  50.296  0.00  0.00     0.019 A 
ATOM     18  C   UNL d   1      61.272  49.637  50.281  0.00  0.00     0.002 A 
ATOM     19  C   UNL d   1      61.703  49.637  50.972  0.00  0.00     0.000 A 
ATOM     20  C   UNL d   1      61.319  49.634  51.692  0.00  0.00     0.002 A 
ATOM     21  C   UNL d   1      60.490  49.632  51.722  0.00  0.00     0.019 A 
ENDBRANCH   5  16
TORSDOF 2
ENDMDL
