MODEL 1
REMARK VINA RESULT:      53.2      0.000      0.000
REMARK  4 active torsions:
REMARK  status: ('A' for Active; 'I' for Inactive)
REMARK    1  A    between atoms: S_4  and  C_1 
REMARK    2  A    between atoms: N_7  and  C_3 
REMARK    3  A    between atoms: C_11  and  S_4 
REMARK    4  A    between atoms: C_8  and  C_6 
ROOT
ATOM      1  C   UNL d   1      46.001 -18.025  42.609  0.00  0.00     0.210 A 
ATOM      2  N   UNL d   1      46.128 -17.808  41.827  0.00  0.00    -0.205 NA
ATOM      3  C   UNL d   1      46.027 -18.849  42.654  0.00  0.00     0.199 A 
ATOM      4  O   UNL d   1      46.169 -19.135  41.896  0.00  0.00    -0.268 OA
ATOM      5  C   UNL d   1      46.232 -18.496  41.387  0.00  0.00     0.208 A 
ENDROOT
BRANCH   1   6
ATOM      6  S   UNL d   1      45.878 -17.452  43.188  0.00  0.00     0.230 S 
ATOM      7  O   UNL d   1      45.206 -16.981  43.172  0.00  0.00    -0.215 OA
ATOM      8  O   UNL d   1      46.437 -17.351  43.793  0.00  0.00    -0.215 OA
BRANCH   6   9
ATOM      9  C   UNL d   1      45.762 -16.882  43.771  0.00  0.00     0.090 A 
ATOM     10  C   UNL d   1      45.087 -16.414  43.753  0.00  0.00     0.011 A 
ATOM     11  C   UNL d   1      44.962 -15.838  44.335  0.00  0.00     0.001 A 
ATOM     12  C   UNL d   1      45.521 -15.736  44.936  0.00  0.00     0.000 A 
ATOM     13  C   UNL d   1      46.202 -16.208  44.954  0.00  0.00     0.001 A 
ATOM     14  C   UNL d   1      46.321 -16.781  44.371  0.00  0.00     0.011 A 
ENDBRANCH   6   9
ENDBRANCH   1   6
BRANCH   3  15
ATOM     15  N   UNL d   1      45.927 -19.304  43.335  0.00  0.00    -0.283 N 
ATOM     16  C   UNL d   1      45.262 -19.529  43.484  0.00  0.00     0.082 A 
ATOM     17  C   UNL d   1      44.909 -19.999  44.110  0.00  0.00     0.019 A 
ATOM     18  C   UNL d   1      45.180 -20.329  44.709  0.00  0.00     0.002 A 
ATOM     19  C   UNL d   1      45.983 -20.330  44.955  0.00  0.00     0.002 A 
ATOM     20  C   UNL d   1      46.647 -19.927  44.527  0.00  0.00     0.019 A 
ATOM     21  C   UNL d   1      46.614 -19.459  43.786  0.00  0.00     0.082 A 
ENDBRANCH   3  15
BRANCH   5  22
ATOM     22  C   UNL d   1      46.357 -18.280  40.609  0.00  0.00     0.141 A 
ATOM     23  O   UNL d   1      46.384 -17.644  40.093  0.00  0.00    -0.302 OA
ATOM     24  C   UNL d   1      46.562 -17.927  39.341  0.00  0.00     0.123 A 
ATOM     25  C   UNL d   1      46.645 -18.747  39.398  0.00  0.00     0.029 A 
ATOM     26  C   UNL d   1      46.519 -18.964  40.179  0.00  0.00     0.030 A 
ENDBRANCH   5  22
TORSDOF 4
ENDMDL
