MODEL 1
REMARK VINA RESULT:      -0.4      0.000      0.000
REMARK  1 active torsions:
REMARK  status: ('A' for Active; 'I' for Inactive)
REMARK    1  A    between atoms: C_2  and  CA_3 
ROOT
ATOM      1  N   UNL d   1      44.781 -13.859  43.894  0.00  0.00    -0.237 NA
ATOM      2  CA  UNL d   1      45.424 -13.408  44.115  0.00  0.00     0.145 A 
ATOM      3  C   UNL d   1      46.001 -13.727  44.624  0.00  0.00     0.026 A 
ATOM      4  C   UNL d   1      44.702 -14.627  44.172  0.00  0.00     0.106 A 
ATOM      5  C   UNL d   1      45.280 -14.945  44.680  0.00  0.00     0.054 A 
ATOM      6  C   UNL d   1      45.920 -14.487  44.897  0.00  0.00     0.010 A 
ATOM      7 BR   UNL d   1      45.193 -15.715  44.955  0.00  0.00    -0.048 Br
ENDROOT
BRANCH   2   8
ATOM      8  C   UNL d   1      45.506 -12.636  43.837  0.00  0.00     0.229 C 
ATOM      9  O   UNL d   1      45.162 -12.406  43.123  0.00  0.00    -0.643 OA
ATOM     10  OXT UNL d   1      45.933 -12.082  44.269  0.00  0.00    -0.643 OA
ENDBRANCH   2   8
TORSDOF 1
ENDMDL
MODEL 2
REMARK VINA RESULT:      -0.2      7.511      7.831
REMARK  1 active torsions:
REMARK  status: ('A' for Active; 'I' for Inactive)
REMARK    1  A    between atoms: C_2  and  CA_3 
ROOT
ATOM      1  N   UNL d   1      44.626 -14.700  37.085  0.00  0.00    -0.237 NA
ATOM      2  CA  UNL d   1      45.255 -15.094  36.749  0.00  0.00     0.145 A 
ATOM      3  C   UNL d   1      45.135 -15.829  36.375  0.00  0.00     0.026 A 
ATOM      4  C   UNL d   1      43.874 -15.026  37.058  0.00  0.00     0.106 A 
ATOM      5  C   UNL d   1      43.754 -15.761  36.685  0.00  0.00     0.054 A 
ATOM      6  C   UNL d   1      44.389 -16.150  36.349  0.00  0.00     0.010 A 
ATOM      7 BR   UNL d   1      42.998 -16.081  36.661  0.00  0.00    -0.048 Br
ENDROOT
BRANCH   2   8
ATOM      8  C   UNL d   1      46.013 -14.769  36.775  0.00  0.00     0.229 C 
ATOM      9  O   UNL d   1      46.148 -14.045  37.147  0.00  0.00    -0.643 OA
ATOM     10  OXT UNL d   1      46.647 -15.162  36.429  0.00  0.00    -0.643 OA
ENDBRANCH   2   8
TORSDOF 1
ENDMDL
MODEL 3
REMARK VINA RESULT:      -0.1      7.478      7.797
REMARK  1 active torsions:
REMARK  status: ('A' for Active; 'I' for Inactive)
REMARK    1  A    between atoms: C_2  and  CA_3 
ROOT
ATOM      1  N   UNL d   1      45.082 -15.789  36.332  0.00  0.00    -0.237 NA
ATOM      2  CA  UNL d   1      45.270 -15.115  36.752  0.00  0.00     0.145 A 
ATOM      3  C   UNL d   1      44.680 -14.713  37.180  0.00  0.00     0.026 A 
ATOM      4  C   UNL d   1      44.312 -16.071  36.331  0.00  0.00     0.106 A 
ATOM      5  C   UNL d   1      43.722 -15.669  36.760  0.00  0.00     0.054 A 
ATOM      6  C   UNL d   1      43.918 -14.995  37.178  0.00  0.00     0.010 A 
ATOM      7 BR   UNL d   1      42.953 -15.959  36.754  0.00  0.00    -0.048 Br
ENDROOT
BRANCH   2   8
ATOM      8  C   UNL d   1      46.043 -14.828  36.754  0.00  0.00     0.229 C 
ATOM      9  O   UNL d   1      46.644 -15.233  36.360  0.00  0.00    -0.643 OA
ATOM     10  OXT UNL d   1      46.227 -14.132  37.151  0.00  0.00    -0.643 OA
ENDBRANCH   2   8
TORSDOF 1
ENDMDL
MODEL 4
REMARK VINA RESULT:       0.2      7.548      7.955
REMARK  1 active torsions:
REMARK  status: ('A' for Active; 'I' for Inactive)
REMARK    1  A    between atoms: C_2  and  CA_3 
ROOT
ATOM      1  N   UNL d   1      44.503 -14.719  37.066  0.00  0.00    -0.237 NA
ATOM      2  CA  UNL d   1      44.476 -15.454  36.714  0.00  0.00     0.145 A 
ATOM      3  C   UNL d   1      45.181 -15.828  36.476  0.00  0.00     0.026 A 
ATOM      4  C   UNL d   1      45.224 -14.346  37.185  0.00  0.00     0.106 A 
ATOM      5  C   UNL d   1      45.929 -14.720  36.947  0.00  0.00     0.054 A 
ATOM      6  C   UNL d   1      45.894 -15.457  36.596  0.00  0.00     0.010 A 
ATOM      7 BR   UNL d   1      46.647 -14.340  37.070  0.00  0.00    -0.048 Br
ENDROOT
BRANCH   2   8
ATOM      8  C   UNL d   1      43.753 -15.832  36.593  0.00  0.00     0.229 C 
ATOM      9  O   UNL d   1      43.043 -15.436  36.733  0.00  0.00    -0.643 OA
ATOM     10  OXT UNL d   1      43.729 -16.610  36.330  0.00  0.00    -0.643 OA
ENDBRANCH   2   8
TORSDOF 1
ENDMDL
MODEL 5
REMARK VINA RESULT:       0.7      2.072      2.427
REMARK  1 active torsions:
REMARK  status: ('A' for Active; 'I' for Inactive)
REMARK    1  A    between atoms: C_2  and  CA_3 
ROOT
ATOM      1  N   UNL d   1      44.918 -14.153  43.874  0.00  0.00    -0.237 NA
ATOM      2  CA  UNL d   1      45.336 -14.396  44.531  0.00  0.00     0.145 A 
ATOM      3  C   UNL d   1      45.839 -13.862  44.925  0.00  0.00     0.026 A 
ATOM      4  C   UNL d   1      44.991 -13.384  43.601  0.00  0.00     0.106 A 
ATOM      5  C   UNL d   1      45.494 -12.850  43.995  0.00  0.00     0.054 A 
ATOM      6  C   UNL d   1      45.910 -13.100  44.652  0.00  0.00     0.010 A 
ATOM      7 BR   UNL d   1      45.562 -12.080  43.715  0.00  0.00    -0.048 Br
ENDROOT
BRANCH   2   8
ATOM      8  C   UNL d   1      45.264 -15.170  44.808  0.00  0.00     0.229 C 
ATOM      9  O   UNL d   1      44.522 -15.498  44.953  0.00  0.00    -0.643 OA
ATOM     10  OXT UNL d   1      45.934 -15.626  44.944  0.00  0.00    -0.643 OA
ENDBRANCH   2   8
TORSDOF 1
ENDMDL
