MODEL 1
REMARK VINA RESULT:      -4.6      0.000      0.000
REMARK  5 active torsions:
REMARK  status: ('A' for Active; 'I' for Inactive)
REMARK    1  A    between atoms: C_3  and  C_1 
REMARK       I    between atoms: N_5  and  C_1 
REMARK    2  A    between atoms: C_2  and  C_4 
REMARK    3  A    between atoms: C_4  and  C_3 
REMARK    4  A    between atoms: C_7  and  N_5 
REMARK    5  A    between atoms: O_14  and  C_13 
ROOT
ATOM      1  C   UNL d   1      57.706  -0.027  30.757  0.00  0.00     0.279 C 
ATOM      2  N   UNL d   1      58.164   0.614  30.520  0.00  0.00    -0.208 NA
ATOM      3  O   UNL d   1      57.742  -0.737  30.345  0.00  0.00    -0.265 OA
ENDROOT
BRANCH   1   4
ATOM      4  C   UNL d   1      57.211   0.038  31.408  0.00  0.00     0.065 C 
BRANCH   4   5
ATOM      5  C   UNL d   1      56.851  -0.638  31.726  0.00  0.00     0.030 C 
BRANCH   5   6
ATOM      6  C   UNL d   1      56.306  -0.559  32.340  0.00  0.00     0.100 A 
ATOM      7  O   UNL d   1      55.904   0.112  32.643  0.00  0.00    -0.305 OA
ATOM      8  C   UNL d   1      55.422  -0.152  33.268  0.00  0.00     0.123 A 
ATOM      9  C   UNL d   1      55.524  -0.969  33.350  0.00  0.00     0.029 A 
ATOM     10  C   UNL d   1      56.073  -1.223  32.775  0.00  0.00     0.027 A 
ENDBRANCH   5   6
ENDBRANCH   4   5
ENDBRANCH   1   4
BRANCH   2  11
ATOM     11  C   UNL d   1      58.660   0.543  29.865  0.00  0.00     0.087 A 
ATOM     12  C   UNL d   1      59.453   0.395  29.974  0.00  0.00     0.043 A 
ATOM     13  C   UNL d   1      59.950   0.323  29.323  0.00  0.00     0.096 A 
ATOM     14  C   UNL d   1      59.649   0.401  28.559  0.00  0.00     0.024 A 
ATOM     15  C   UNL d   1      58.838   0.552  28.455  0.00  0.00     0.004 A 
ATOM     16  C   UNL d   1      58.346   0.622  29.111  0.00  0.00     0.019 A 
BRANCH  13  17
ATOM     17  O   UNL d   1      60.756   0.173  29.431  0.00  0.00    -0.328 OA
ATOM     18  C   UNL d   1      61.078  -0.548  29.201  0.00  0.00     0.181 C 
ENDBRANCH  13  17
ENDBRANCH   2  11
TORSDOF 5
ENDMDL
MODEL 2
REMARK VINA RESULT:      -3.1      0.995      4.613
REMARK  5 active torsions:
REMARK  status: ('A' for Active; 'I' for Inactive)
REMARK    1  A    between atoms: C_3  and  C_1 
REMARK       I    between atoms: N_5  and  C_1 
REMARK    2  A    between atoms: C_2  and  C_4 
REMARK    3  A    between atoms: C_4  and  C_3 
REMARK    4  A    between atoms: C_7  and  N_5 
REMARK    5  A    between atoms: O_14  and  C_13 
ROOT
ATOM      1  C   UNL d   1      57.736   0.308  30.583  0.00  0.00     0.279 C 
ATOM      2  N   UNL d   1      57.807  -0.026  31.331  0.00  0.00    -0.208 NA
ATOM      3  O   UNL d   1      57.025   0.647  30.348  0.00  0.00    -0.265 OA
ENDROOT
BRANCH   1   4
ATOM      4  C   UNL d   1      58.374   0.305  30.067  0.00  0.00     0.065 C 
BRANCH   4   5
ATOM      5  C   UNL d   1      58.724  -0.412  29.844  0.00  0.00     0.030 C 
BRANCH   5   6
ATOM      6  C   UNL d   1      59.350  -0.410  29.306  0.00  0.00     0.100 A 
ATOM      7  O   UNL d   1      59.784   0.219  28.961  0.00  0.00    -0.305 OA
ATOM      8  C   UNL d   1      60.351  -0.122  28.458  0.00  0.00     0.123 A 
ATOM      9  C   UNL d   1      60.271  -0.944  28.490  0.00  0.00     0.029 A 
ATOM     10  C   UNL d   1      59.649  -1.125  29.017  0.00  0.00     0.027 A 
ENDBRANCH   5   6
ENDBRANCH   4   5
ENDBRANCH   1   4
BRANCH   2  11
ATOM     11  C   UNL d   1      57.163  -0.020  31.846  0.00  0.00     0.087 A 
ATOM     12  C   UNL d   1      56.728  -0.700  31.955  0.00  0.00     0.043 A 
ATOM     13  C   UNL d   1      56.085  -0.696  32.468  0.00  0.00     0.096 A 
ATOM     14  C   UNL d   1      55.879  -0.008  32.872  0.00  0.00     0.024 A 
ATOM     15  C   UNL d   1      56.328   0.682  32.756  0.00  0.00     0.004 A 
ATOM     16  C   UNL d   1      56.970   0.672  32.241  0.00  0.00     0.019 A 
BRANCH  13  17
ATOM     17  O   UNL d   1      55.641  -1.385  32.581  0.00  0.00    -0.328 OA
ATOM     18  C   UNL d   1      55.599  -1.734  33.324  0.00  0.00     0.181 C 
ENDBRANCH  13  17
ENDBRANCH   2  11
TORSDOF 5
ENDMDL
MODEL 3
REMARK VINA RESULT:      -2.4      1.001      4.826
REMARK  5 active torsions:
REMARK  status: ('A' for Active; 'I' for Inactive)
REMARK    1  A    between atoms: C_3  and  C_1 
REMARK       I    between atoms: N_5  and  C_1 
REMARK    2  A    between atoms: C_2  and  C_4 
REMARK    3  A    between atoms: C_4  and  C_3 
REMARK    4  A    between atoms: C_7  and  N_5 
REMARK    5  A    between atoms: O_14  and  C_13 
ROOT
ATOM      1  C   UNL d   1      57.325   0.006  31.364  0.00  0.00     0.279 C 
ATOM      2  N   UNL d   1      57.349  -0.320  32.119  0.00  0.00    -0.208 NA
ATOM      3  O   UNL d   1      56.604   0.208  31.024  0.00  0.00    -0.265 OA
ENDROOT
BRANCH   1   4
ATOM      4  C   UNL d   1      58.020   0.131  30.946  0.00  0.00     0.065 C 
BRANCH   4   5
ATOM      5  C   UNL d   1      58.038   0.011  30.126  0.00  0.00     0.030 C 
BRANCH   5   6
ATOM      6  C   UNL d   1      58.759   0.043  29.726  0.00  0.00     0.100 A 
ATOM      7  O   UNL d   1      59.450   0.499  29.862  0.00  0.00    -0.305 OA
ATOM      8  C   UNL d   1      60.000   0.292  29.273  0.00  0.00     0.123 A 
ATOM      9  C   UNL d   1      59.658  -0.279  28.784  0.00  0.00     0.029 A 
ATOM     10  C   UNL d   1      58.887  -0.435  29.064  0.00  0.00     0.027 A 
ENDBRANCH   5   6
ENDBRANCH   4   5
ENDBRANCH   1   4
BRANCH   2  11
ATOM     11  C   UNL d   1      56.647  -0.444  32.534  0.00  0.00     0.087 A 
ATOM     12  C   UNL d   1      56.331   0.159  32.981  0.00  0.00     0.043 A 
ATOM     13  C   UNL d   1      55.633   0.039  33.396  0.00  0.00     0.096 A 
ATOM     14  C   UNL d   1      55.249  -0.691  33.363  0.00  0.00     0.024 A 
ATOM     15  C   UNL d   1      55.577  -1.302  32.905  0.00  0.00     0.004 A 
ATOM     16  C   UNL d   1      56.277  -1.175  32.492  0.00  0.00     0.019 A 
BRANCH  13  17
ATOM     17  O   UNL d   1      55.309   0.650  33.850  0.00  0.00    -0.328 OA
ATOM     18  C   UNL d   1      55.447   0.682  34.660  0.00  0.00     0.181 C 
ENDBRANCH  13  17
ENDBRANCH   2  11
TORSDOF 5
ENDMDL
