MODEL 1
REMARK VINA RESULT:      -0.2      0.000      0.000
REMARK  8 active torsions:
REMARK  status: ('A' for Active; 'I' for Inactive)
REMARK    1  A    between atoms: S_3  and  C_1 
REMARK    2  A    between atoms: C_7  and  C_2 
REMARK    3  A    between atoms: N_9  and  S_3 
REMARK    4  A    between atoms: C_8  and  C_6 
REMARK    5  A    between atoms: O_21  and  C_7 
REMARK    6  A    between atoms: O_22  and  C_8 
REMARK    7  A    between atoms: C_14  and  N_9 
REMARK    8  A    between atoms: C_10  and  C_14 
ROOT
ATOM      1  C   UNL d   1     -41.807-122.618 -50.669  0.00  0.00     0.140 A 
ATOM      2  C   UNL d   1     -42.544-122.673 -50.316  0.00  0.00     0.082 A 
ATOM      3  C   UNL d   1     -42.435-122.782 -49.502  0.00  0.00     0.018 A 
ATOM      4  S   UNL d   1     -41.251-122.695 -50.070  0.00  0.00    -0.069 SA
ATOM      5  C   UNL d   1     -41.649-122.793 -49.369  0.00  0.00     0.093 A 
ATOM      6  C   UNL d   1     -42.999-122.865 -48.927  0.00  0.00     0.001 C 
ENDROOT
BRANCH   1   7
ATOM      7  S   UNL d   1     -41.762-122.509 -51.471  0.00  0.00     0.291 S 
ATOM      8  O   UNL d   1     -41.765-121.678 -51.358  0.00  0.00    -0.198 OA
ATOM      9  O   UNL d   1     -41.758-123.302 -51.597  0.00  0.00    -0.198 OA
BRANCH   7  10
ATOM     10  N   UNL d   1     -41.715-122.384 -52.285  0.00  0.00    -0.156 NA
BRANCH  10  11
ATOM     11  C   UNL d   1     -41.152-122.781 -52.744  0.00  0.00     0.119 C 
BRANCH  11  12
ATOM     12  C   UNL d   1     -41.276-122.879 -53.553  0.00  0.00     0.049 A 
ATOM     13  S   UNL d   1     -41.503-122.306 -54.109  0.00  0.00    -0.085 SA
ATOM     14  C   UNL d   1     -41.557-122.658 -54.843  0.00  0.00     0.035 A 
ATOM     15  C   UNL d   1     -41.365-123.456 -54.758  0.00  0.00     0.007 A 
ATOM     16  C   UNL d   1     -41.192-123.588 -53.958  0.00  0.00     0.009 A 
ENDBRANCH  11  12
ENDBRANCH  10  11
ENDBRANCH   7  10
ENDBRANCH   1   7
BRANCH   2  17
ATOM     17  C   UNL d   1     -43.285-122.628 -50.691  0.00  0.00     0.297 C 
ATOM     18  O   UNL d   1     -43.632-123.307 -50.998  0.00  0.00    -0.259 OA
BRANCH  17  19
ATOM     19  O   UNL d   1     -43.667-121.895 -50.752  0.00  0.00    -0.296 OA
ATOM     20  C   UNL d   1     -44.460-121.860 -50.944  0.00  0.00     0.185 C 
ENDBRANCH  17  19
ENDBRANCH   2  17
BRANCH   5  21
ATOM     21  C   UNL d   1     -41.295-122.894 -48.604  0.00  0.00     0.302 C 
ATOM     22  O   UNL d   1     -41.123-122.229 -48.170  0.00  0.00    -0.259 OA
BRANCH  21  23
ATOM     23  O   UNL d   1     -41.132-123.654 -48.313  0.00  0.00    -0.295 OA
ATOM     24  C   UNL d   1     -41.184-123.817 -47.506  0.00  0.00     0.185 C 
ENDBRANCH  21  23
ENDBRANCH   5  21
TORSDOF 8
ENDMDL
MODEL 2
REMARK VINA RESULT:       2.0      1.521      4.438
REMARK  8 active torsions:
REMARK  status: ('A' for Active; 'I' for Inactive)
REMARK    1  A    between atoms: S_3  and  C_1 
REMARK    2  A    between atoms: C_7  and  C_2 
REMARK    3  A    between atoms: N_9  and  S_3 
REMARK    4  A    between atoms: C_8  and  C_6 
REMARK    5  A    between atoms: O_21  and  C_7 
REMARK    6  A    between atoms: O_22  and  C_8 
REMARK    7  A    between atoms: C_14  and  N_9 
REMARK    8  A    between atoms: C_10  and  C_14 
ROOT
ATOM      1  C   UNL d   1     -41.816-122.741 -52.009  0.00  0.00     0.140 A 
ATOM      2  C   UNL d   1     -41.576-121.994 -52.240  0.00  0.00     0.082 A 
ATOM      3  C   UNL d   1     -41.480-121.994 -53.063  0.00  0.00     0.018 A 
ATOM      4  S   UNL d   1     -41.867-123.195 -52.690  0.00  0.00    -0.069 SA
ATOM      5  C   UNL d   1     -41.659-122.727 -53.320  0.00  0.00     0.093 A 
ATOM      6  C   UNL d   1     -41.249-121.383 -53.541  0.00  0.00     0.001 C 
ENDROOT
BRANCH   1   7
ATOM      7  S   UNL d   1     -41.950-122.886 -51.222  0.00  0.00     0.291 S 
ATOM      8  O   UNL d   1     -42.691-122.497 -51.276  0.00  0.00    -0.198 OA
ATOM      9  O   UNL d   1     -41.243-123.262 -51.153  0.00  0.00    -0.198 OA
BRANCH   7  10
ATOM     10  N   UNL d   1     -42.097-123.028 -50.423  0.00  0.00    -0.156 NA
BRANCH  10  11
ATOM     11  C   UNL d   1     -41.663-123.595 -50.005  0.00  0.00     0.119 C 
BRANCH  11  12
ATOM     12  C   UNL d   1     -41.758-123.665 -49.188  0.00  0.00     0.049 A 
ATOM     13  S   UNL d   1     -41.171-123.782 -48.613  0.00  0.00    -0.085 SA
ATOM     14  C   UNL d   1     -41.525-123.817 -47.879  0.00  0.00     0.035 A 
ATOM     15  C   UNL d   1     -42.338-123.723 -47.983  0.00  0.00     0.007 A 
ATOM     16  C   UNL d   1     -42.477-123.629 -48.796  0.00  0.00     0.009 A 
ENDBRANCH  11  12
ENDBRANCH  10  11
ENDBRANCH   7  10
ENDBRANCH   1   7
BRANCH   2  17
ATOM     17  C   UNL d   1     -41.444-121.334 -51.750  0.00  0.00     0.297 C 
ATOM     18  O   UNL d   1     -41.124-121.436 -51.000  0.00  0.00    -0.259 OA
BRANCH  17  19
ATOM     19  O   UNL d   1     -41.639-120.577 -52.026  0.00  0.00    -0.296 OA
ATOM     20  C   UNL d   1     -41.143-119.946 -51.875  0.00  0.00     0.185 C 
ENDBRANCH  17  19
ENDBRANCH   2  17
BRANCH   5  21
ATOM     21  C   UNL d   1     -41.633-122.968 -54.134  0.00  0.00     0.302 C 
ATOM     22  O   UNL d   1     -41.141-122.564 -54.638  0.00  0.00    -0.259 OA
BRANCH  21  23
ATOM     23  O   UNL d   1     -42.101-123.599 -54.401  0.00  0.00    -0.295 OA
ATOM     24  C   UNL d   1     -42.449-123.580 -55.148  0.00  0.00     0.185 C 
ENDBRANCH  21  23
ENDBRANCH   5  21
TORSDOF 8
ENDMDL
