MODEL 1
REMARK VINA RESULT:      21.0      0.000      0.000
REMARK  3 active torsions:
REMARK  status: ('A' for Active; 'I' for Inactive)
REMARK    1  A    between atoms: N_5  and  C_1 
REMARK       I    between atoms: C_2  and  N_3 
REMARK    2  A    between atoms: C_4  and  C_2 
REMARK    3  A    between atoms: N_3  and  N_5 
ROOT
ATOM      1  C   UNL d   1     -55.255 -99.746 -44.500  0.00  0.00     0.060 A 
ATOM      2  C   UNL d   1     -55.373-100.500 -44.803  0.00  0.00     0.012 A 
ATOM      3  C   UNL d   1     -55.164-101.168 -44.365  0.00  0.00     0.035 A 
ATOM      4 BR   UNL d   1     -55.288-101.923 -44.683  0.00  0.00    -0.049 Br
ATOM      5  C   UNL d   1     -54.920 -99.653 -43.741  0.00  0.00     0.005 A 
ATOM      6  C   UNL d   1     -54.712-100.316 -43.307  0.00  0.00     0.001 A 
ATOM      7  C   UNL d   1     -54.837-101.077 -43.625  0.00  0.00     0.007 A 
ENDROOT
BRANCH   1   8
ATOM      8  C   UNL d   1     -55.471 -99.084 -44.951  0.00  0.00     0.297 C 
ATOM      9  N   UNL d   1     -56.210 -98.767 -44.864  0.00  0.00    -0.103 NA
ATOM     10  O   UNL d   1     -54.923 -98.755 -45.487  0.00  0.00    -0.264 OA
BRANCH   9  11
ATOM     11  N   UNL d   1     -56.732 -99.097 -44.340  0.00  0.00    -0.112 NA
BRANCH  11  12
ATOM     12  C   UNL d   1     -57.525 -98.877 -44.357  0.00  0.00     0.260 C 
ATOM     13  S   UNL d   1     -57.944 -98.779 -43.646  0.00  0.00    -0.034 SA
ATOM     14  N   UNL d   1     -57.905 -98.755 -45.077  0.00  0.00    -0.113 N 
ENDBRANCH  11  12
ENDBRANCH   9  11
ENDBRANCH   1   8
TORSDOF 3
ENDMDL
MODEL 2
REMARK VINA RESULT:      21.6      2.250      3.203
REMARK  3 active torsions:
REMARK  status: ('A' for Active; 'I' for Inactive)
REMARK    1  A    between atoms: N_5  and  C_1 
REMARK       I    between atoms: C_2  and  N_3 
REMARK    2  A    between atoms: C_4  and  C_2 
REMARK    3  A    between atoms: N_3  and  N_5 
ROOT
ATOM      1  C   UNL d   1     -57.636 -98.755 -44.539  0.00  0.00     0.060 A 
ATOM      2  C   UNL d   1     -58.455 -98.755 -44.603  0.00  0.00     0.012 A 
ATOM      3  C   UNL d   1     -58.931 -98.755 -43.929  0.00  0.00     0.035 A 
ATOM      4 BR   UNL d   1     -59.756 -98.755 -44.008  0.00  0.00    -0.049 Br
ATOM      5  C   UNL d   1     -57.280 -98.756 -43.784  0.00  0.00     0.005 A 
ATOM      6  C   UNL d   1     -57.754 -98.756 -43.115  0.00  0.00     0.001 A 
ATOM      7  C   UNL d   1     -58.584 -98.756 -43.193  0.00  0.00     0.007 A 
ENDROOT
BRANCH   1   8
ATOM      8  C   UNL d   1     -57.171 -98.755 -45.226  0.00  0.00     0.297 C 
ATOM      9  N   UNL d   1     -56.365 -98.755 -45.160  0.00  0.00    -0.103 NA
ATOM     10  O   UNL d   1     -57.541 -98.755 -45.974  0.00  0.00    -0.264 OA
BRANCH   9  11
ATOM     11  N   UNL d   1     -56.020 -98.755 -44.427  0.00  0.00    -0.112 NA
BRANCH  11  12
ATOM     12  C   UNL d   1     -55.201 -98.814 -44.359  0.00  0.00     0.260 C 
ATOM     13  S   UNL d   1     -54.851 -98.881 -43.608  0.00  0.00    -0.034 SA
ATOM     14  N   UNL d   1     -54.728 -98.806 -45.033  0.00  0.00    -0.113 N 
ENDBRANCH  11  12
ENDBRANCH   9  11
ENDBRANCH   1   8
TORSDOF 3
ENDMDL
MODEL 3
REMARK VINA RESULT:      23.4      0.846      1.037
REMARK  3 active torsions:
REMARK  status: ('A' for Active; 'I' for Inactive)
REMARK    1  A    between atoms: N_5  and  C_1 
REMARK       I    between atoms: C_2  and  N_3 
REMARK    2  A    between atoms: C_4  and  C_2 
REMARK    3  A    between atoms: N_3  and  N_5 
ROOT
ATOM      1  C   UNL d   1     -55.913 -99.264 -44.764  0.00  0.00     0.060 A 
ATOM      2  C   UNL d   1     -55.832-100.077 -44.687  0.00  0.00     0.012 A 
ATOM      3  C   UNL d   1     -55.232-100.400 -44.221  0.00  0.00     0.035 A 
ATOM      4 BR   UNL d   1     -55.161-101.223 -44.152  0.00  0.00    -0.049 Br
ATOM      5  C   UNL d   1     -55.382 -98.756 -44.366  0.00  0.00     0.005 A 
ATOM      6  C   UNL d   1     -54.787 -99.077 -43.904  0.00  0.00     0.001 A 
ATOM      7  C   UNL d   1     -54.715 -99.904 -43.834  0.00  0.00     0.007 A 
ENDROOT
BRANCH   1   8
ATOM      8  C   UNL d   1     -56.521 -98.955 -45.236  0.00  0.00     0.297 C 
ATOM      9  N   UNL d   1     -57.227 -98.757 -44.895  0.00  0.00    -0.103 NA
ATOM     10  O   UNL d   1     -56.395 -98.852 -46.054  0.00  0.00    -0.264 OA
BRANCH   9  11
ATOM     11  N   UNL d   1     -57.335 -98.862 -44.099  0.00  0.00    -0.112 NA
BRANCH  11  12
ATOM     12  C   UNL d   1     -58.091 -98.811 -43.776  0.00  0.00     0.260 C 
ATOM     13  S   UNL d   1     -58.189 -98.784 -42.952  0.00  0.00    -0.034 SA
ATOM     14  N   UNL d   1     -58.750 -98.785 -44.269  0.00  0.00    -0.113 N 
ENDBRANCH  11  12
ENDBRANCH   9  11
ENDBRANCH   1   8
TORSDOF 3
ENDMDL
