MODEL 1
REMARK VINA RESULT:      -2.8      0.000      0.000
REMARK  3 active torsions:
REMARK  status: ('A' for Active; 'I' for Inactive)
REMARK    1  A    between atoms: S_4  and  C_1 
REMARK    2  A    between atoms: C_8  and  S_4 
REMARK    3  A    between atoms: C_9  and  C_8 
ROOT
ATOM      1  C   UNL d   1      31.640  16.289 -23.815  0.00  0.00     0.114 A 
ATOM      2  C   UNL d   1      32.045  17.002 -23.900  0.00  0.00     0.042 A 
ATOM      3  N   UNL d   1      32.028  15.635 -23.503  0.00  0.00    -0.217 NA
ATOM      4  N   UNL d   1      33.224  16.407 -23.360  0.00  0.00    -0.224 NA
ATOM      5  C   UNL d   1      32.823  15.694 -23.274  0.00  0.00     0.200 A 
ATOM      6  C   UNL d   1      32.836  17.061 -23.673  0.00  0.00     0.085 A 
ATOM      7  C   UNL d   1      31.657  17.657 -24.213  0.00  0.00     0.004 A 
ATOM      8  C   UNL d   1      33.238  17.779 -23.760  0.00  0.00     0.019 A 
ATOM      9  C   UNL d   1      32.055  18.382 -24.304  0.00  0.00     0.000 A 
ATOM     10  C   UNL d   1      32.849  18.433 -24.073  0.00  0.00     0.002 A 
ENDROOT
BRANCH   1  11
ATOM     11  S   UNL d   1      30.841  16.230 -24.045  0.00  0.00    -0.067 SA
BRANCH  11  12
ATOM     12  C   UNL d   1      30.301  15.845 -23.564  0.00  0.00     0.037 C 
BRANCH  12  13
ATOM     13  C   UNL d   1      29.524  15.737 -23.821  0.00  0.00     0.006 A 
ATOM     14  C   UNL d   1      28.925  15.561 -23.264  0.00  0.00     0.001 A 
ATOM     15  C   UNL d   1      29.114  15.497 -22.463  0.00  0.00     0.000 C 
ATOM     16  C   UNL d   1      28.146  15.453 -23.530  0.00  0.00     0.000 A 
ATOM     17  C   UNL d   1      27.967  15.519 -24.323  0.00  0.00     0.000 A 
ATOM     18  C   UNL d   1      28.560  15.692 -24.866  0.00  0.00     0.000 A 
ATOM     19  C   UNL d   1      29.344  15.803 -24.622  0.00  0.00     0.001 A 
ENDBRANCH  12  13
ENDBRANCH  11  12
ENDBRANCH   1  11
TORSDOF 3
ENDMDL
MODEL 2
REMARK VINA RESULT:      -2.6      3.714      5.342
REMARK  3 active torsions:
REMARK  status: ('A' for Active; 'I' for Inactive)
REMARK    1  A    between atoms: S_4  and  C_1 
REMARK    2  A    between atoms: C_8  and  S_4 
REMARK    3  A    between atoms: C_9  and  C_8 
ROOT
ATOM      1  C   UNL d   1      33.059  20.670 -21.668  0.00  0.00     0.114 A 
ATOM      2  C   UNL d   1      32.878  21.458 -21.505  0.00  0.00     0.042 A 
ATOM      3  N   UNL d   1      33.241  20.159 -21.050  0.00  0.00    -0.217 NA
ATOM      4  N   UNL d   1      33.059  21.221 -20.110  0.00  0.00    -0.224 NA
ATOM      5  C   UNL d   1      33.241  20.435 -20.269  0.00  0.00     0.200 A 
ATOM      6  C   UNL d   1      32.878  21.733 -20.728  0.00  0.00     0.085 A 
ATOM      7  C   UNL d   1      32.696  21.970 -22.123  0.00  0.00     0.004 A 
ATOM      8  C   UNL d   1      32.695  22.524 -20.570  0.00  0.00     0.019 A 
ATOM      9  C   UNL d   1      32.512  22.767 -21.972  0.00  0.00     0.000 A 
ATOM     10  C   UNL d   1      32.514  23.036 -21.188  0.00  0.00     0.002 A 
ENDROOT
BRANCH   1  11
ATOM     11  S   UNL d   1      33.059  20.393 -22.454  0.00  0.00    -0.067 SA
BRANCH  11  12
ATOM     12  C   UNL d   1      33.061  19.588 -22.606  0.00  0.00     0.037 C 
BRANCH  12  13
ATOM     13  C   UNL d   1      33.072  19.317 -23.386  0.00  0.00     0.006 A 
ATOM     14  C   UNL d   1      32.923  18.509 -23.545  0.00  0.00     0.001 A 
ATOM     15  C   UNL d   1      32.765  17.990 -22.923  0.00  0.00     0.000 C 
ATOM     16  C   UNL d   1      32.936  18.243 -24.332  0.00  0.00     0.000 A 
ATOM     17  C   UNL d   1      33.093  18.763 -24.941  0.00  0.00     0.000 A 
ATOM     18  C   UNL d   1      33.239  19.556 -24.779  0.00  0.00     0.000 A 
ATOM     19  C   UNL d   1      33.231  19.842 -24.001  0.00  0.00     0.001 A 
ENDBRANCH  12  13
ENDBRANCH  11  12
ENDBRANCH   1  11
TORSDOF 3
ENDMDL
MODEL 3
REMARK VINA RESULT:      -2.5      3.185      5.424
REMARK  3 active torsions:
REMARK  status: ('A' for Active; 'I' for Inactive)
REMARK    1  A    between atoms: S_4  and  C_1 
REMARK    2  A    between atoms: C_8  and  S_4 
REMARK    3  A    between atoms: C_9  and  C_8 
ROOT
ATOM      1  C   UNL d   1      33.188  19.409 -23.462  0.00  0.00     0.114 A 
ATOM      2  C   UNL d   1      33.084  18.596 -23.552  0.00  0.00     0.042 A 
ATOM      3  N   UNL d   1      33.239  19.889 -24.128  0.00  0.00    -0.217 NA
ATOM      4  N   UNL d   1      33.083  18.744 -24.971  0.00  0.00    -0.224 NA
ATOM      5  C   UNL d   1      33.186  19.555 -24.885  0.00  0.00     0.200 A 
ATOM      6  C   UNL d   1      33.032  18.264 -24.305  0.00  0.00     0.085 A 
ATOM      7  C   UNL d   1      33.034  18.116 -22.885  0.00  0.00     0.004 A 
ATOM      8  C   UNL d   1      32.928  17.448 -24.389  0.00  0.00     0.019 A 
ATOM      9  C   UNL d   1      32.929  17.294 -22.963  0.00  0.00     0.000 A 
ATOM     10  C   UNL d   1      32.877  16.968 -23.723  0.00  0.00     0.002 A 
ENDROOT
BRANCH   1  11
ATOM     11  S   UNL d   1      33.241  19.744 -22.701  0.00  0.00    -0.067 SA
BRANCH  11  12
ATOM     12  C   UNL d   1      33.187  20.556 -22.603  0.00  0.00     0.037 C 
BRANCH  12  13
ATOM     13  C   UNL d   1      33.200  20.881 -21.844  0.00  0.00     0.006 A 
ATOM     14  C   UNL d   1      33.198  21.713 -21.751  0.00  0.00     0.001 A 
ATOM     15  C   UNL d   1      33.183  22.201 -22.416  0.00  0.00     0.000 C 
ATOM     16  C   UNL d   1      33.212  22.033 -20.985  0.00  0.00     0.000 A 
ATOM     17  C   UNL d   1      33.227  21.543 -20.332  0.00  0.00     0.000 A 
ATOM     18  C   UNL d   1      33.229  20.726 -20.430  0.00  0.00     0.000 A 
ATOM     19  C   UNL d   1      33.216  20.386 -21.185  0.00  0.00     0.001 A 
ENDBRANCH  12  13
ENDBRANCH  11  12
ENDBRANCH   1  11
TORSDOF 3
ENDMDL
MODEL 4
REMARK VINA RESULT:      -2.4      2.042      4.497
REMARK  3 active torsions:
REMARK  status: ('A' for Active; 'I' for Inactive)
REMARK    1  A    between atoms: S_4  and  C_1 
REMARK    2  A    between atoms: C_8  and  S_4 
REMARK    3  A    between atoms: C_9  and  C_8 
ROOT
ATOM      1  C   UNL d   1      32.763  17.890 -23.344  0.00  0.00     0.114 A 
ATOM      2  C   UNL d   1      32.193  17.536 -23.823  0.00  0.00     0.042 A 
ATOM      3  N   UNL d   1      33.240  17.421 -22.865  0.00  0.00    -0.217 NA
ATOM      4  N   UNL d   1      32.578  16.247 -23.345  0.00  0.00    -0.224 NA
ATOM      5  C   UNL d   1      33.148  16.597 -22.866  0.00  0.00     0.200 A 
ATOM      6  C   UNL d   1      32.101  16.716 -23.824  0.00  0.00     0.085 A 
ATOM      7  C   UNL d   1      31.716  18.004 -24.302  0.00  0.00     0.004 A 
ATOM      8  C   UNL d   1      31.528  16.366 -24.306  0.00  0.00     0.019 A 
ATOM      9  C   UNL d   1      31.137  17.659 -24.790  0.00  0.00     0.000 A 
ATOM     10  C   UNL d   1      31.050  16.835 -24.785  0.00  0.00     0.002 A 
ENDROOT
BRANCH   1  11
ATOM     11  S   UNL d   1      32.856  18.718 -23.343  0.00  0.00    -0.067 SA
BRANCH  11  12
ATOM     12  C   UNL d   1      33.014  19.114 -22.644  0.00  0.00     0.037 C 
BRANCH  12  13
ATOM     13  C   UNL d   1      33.089  19.937 -22.645  0.00  0.00     0.006 A 
ATOM     14  C   UNL d   1      33.118  20.350 -21.917  0.00  0.00     0.001 A 
ATOM     15  C   UNL d   1      33.072  19.934 -21.206  0.00  0.00     0.000 C 
ATOM     16  C   UNL d   1      33.194  21.177 -21.926  0.00  0.00     0.000 A 
ATOM     17  C   UNL d   1      33.239  21.580 -22.634  0.00  0.00     0.000 A 
ATOM     18  C   UNL d   1      33.209  21.169 -23.345  0.00  0.00     0.000 A 
ATOM     19  C   UNL d   1      33.134  20.344 -23.359  0.00  0.00     0.001 A 
ENDBRANCH  12  13
ENDBRANCH  11  12
ENDBRANCH   1  11
TORSDOF 3
ENDMDL
MODEL 5
REMARK VINA RESULT:      -2.3      1.682      4.058
REMARK  3 active torsions:
REMARK  status: ('A' for Active; 'I' for Inactive)
REMARK    1  A    between atoms: S_4  and  C_1 
REMARK    2  A    between atoms: C_8  and  S_4 
REMARK    3  A    between atoms: C_9  and  C_8 
ROOT
ATOM      1  C   UNL d   1      29.663  16.956 -24.313  0.00  0.00     0.114 A 
ATOM      2  C   UNL d   1      29.041  16.593 -23.911  0.00  0.00     0.042 A 
ATOM      3  N   UNL d   1      29.568  17.719 -24.606  0.00  0.00    -0.217 NA
ATOM      4  N   UNL d   1      28.231  17.753 -24.097  0.00  0.00    -0.224 NA
ATOM      5  C   UNL d   1      28.850  18.119 -24.498  0.00  0.00     0.200 A 
ATOM      6  C   UNL d   1      28.327  16.991 -23.803  0.00  0.00     0.085 A 
ATOM      7  C   UNL d   1      29.136  15.830 -23.618  0.00  0.00     0.004 A 
ATOM      8  C   UNL d   1      27.706  16.621 -23.400  0.00  0.00     0.019 A 
ATOM      9  C   UNL d   1      28.517  15.453 -23.211  0.00  0.00     0.000 A 
ATOM     10  C   UNL d   1      27.801  15.859 -23.107  0.00  0.00     0.002 A 
ENDROOT
BRANCH   1  11
ATOM     11  S   UNL d   1      30.385  16.554 -24.421  0.00  0.00    -0.067 SA
BRANCH  11  12
ATOM     12  C   UNL d   1      31.092  16.968 -24.411  0.00  0.00     0.037 C 
BRANCH  12  13
ATOM     13  C   UNL d   1      31.807  16.562 -24.496  0.00  0.00     0.006 A 
ATOM     14  C   UNL d   1      32.499  16.867 -24.138  0.00  0.00     0.001 A 
ATOM     15  C   UNL d   1      32.464  17.567 -23.704  0.00  0.00     0.000 C 
ATOM     16  C   UNL d   1      33.214  16.454 -24.228  0.00  0.00     0.000 A 
ATOM     17  C   UNL d   1      33.241  15.762 -24.660  0.00  0.00     0.000 A 
ATOM     18  C   UNL d   1      32.557  15.468 -25.009  0.00  0.00     0.000 A 
ATOM     19  C   UNL d   1      31.834  15.864 -24.932  0.00  0.00     0.001 A 
ENDBRANCH  12  13
ENDBRANCH  11  12
ENDBRANCH   1  11
TORSDOF 3
ENDMDL
MODEL 6
REMARK VINA RESULT:      -2.2      4.044      6.281
REMARK  3 active torsions:
REMARK  status: ('A' for Active; 'I' for Inactive)
REMARK    1  A    between atoms: S_4  and  C_1 
REMARK    2  A    between atoms: C_8  and  S_4 
REMARK    3  A    between atoms: C_9  and  C_8 
ROOT
ATOM      1  C   UNL d   1      33.236  20.826 -23.225  0.00  0.00     0.114 A 
ATOM      2  C   UNL d   1      33.231  20.007 -23.318  0.00  0.00     0.042 A 
ATOM      3  N   UNL d   1      33.239  21.311 -23.889  0.00  0.00    -0.217 NA
ATOM      4  N   UNL d   1      33.231  20.158 -24.737  0.00  0.00    -0.224 NA
ATOM      5  C   UNL d   1      33.236  20.976 -24.648  0.00  0.00     0.200 A 
ATOM      6  C   UNL d   1      33.228  19.674 -24.072  0.00  0.00     0.085 A 
ATOM      7  C   UNL d   1      33.228  19.522 -22.653  0.00  0.00     0.004 A 
ATOM      8  C   UNL d   1      33.223  18.851 -24.159  0.00  0.00     0.019 A 
ATOM      9  C   UNL d   1      33.223  18.694 -22.733  0.00  0.00     0.000 A 
ATOM     10  C   UNL d   1      33.220  18.367 -23.495  0.00  0.00     0.002 A 
ENDROOT
BRANCH   1  11
ATOM     11  S   UNL d   1      33.239  21.163 -22.463  0.00  0.00    -0.067 SA
BRANCH  11  12
ATOM     12  C   UNL d   1      33.089  21.962 -22.365  0.00  0.00     0.037 C 
BRANCH  12  13
ATOM     13  C   UNL d   1      32.956  22.267 -21.609  0.00  0.00     0.006 A 
ATOM     14  C   UNL d   1      32.568  23.004 -21.522  0.00  0.00     0.001 A 
ATOM     15  C   UNL d   1      32.323  23.420 -22.191  0.00  0.00     0.000 C 
ATOM     16  C   UNL d   1      32.438  23.303 -20.759  0.00  0.00     0.000 A 
ATOM     17  C   UNL d   1      32.684  22.885 -20.103  0.00  0.00     0.000 A 
ATOM     18  C   UNL d   1      33.065  22.162 -20.194  0.00  0.00     0.000 A 
ATOM     19  C   UNL d   1      33.205  21.845 -20.946  0.00  0.00     0.001 A 
ENDBRANCH  12  13
ENDBRANCH  11  12
ENDBRANCH   1  11
TORSDOF 3
ENDMDL
MODEL 7
REMARK VINA RESULT:      -1.7      2.245      3.433
REMARK  3 active torsions:
REMARK  status: ('A' for Active; 'I' for Inactive)
REMARK    1  A    between atoms: S_4  and  C_1 
REMARK    2  A    between atoms: C_8  and  S_4 
REMARK    3  A    between atoms: C_9  and  C_8 
ROOT
ATOM      1  C   UNL d   1      33.041  18.989 -23.339  0.00  0.00     0.114 A 
ATOM      2  C   UNL d   1      33.108  19.686 -23.774  0.00  0.00     0.042 A 
ATOM      3  N   UNL d   1      33.029  19.022 -22.517  0.00  0.00    -0.217 NA
ATOM      4  N   UNL d   1      33.148  20.446 -22.567  0.00  0.00    -0.224 NA
ATOM      5  C   UNL d   1      33.082  19.753 -22.130  0.00  0.00     0.200 A 
ATOM      6  C   UNL d   1      33.161  20.414 -23.389  0.00  0.00     0.085 A 
ATOM      7  C   UNL d   1      33.121  19.653 -24.596  0.00  0.00     0.004 A 
ATOM      8  C   UNL d   1      33.228  21.110 -23.831  0.00  0.00     0.019 A 
ATOM      9  C   UNL d   1      33.188  20.349 -25.047  0.00  0.00     0.000 A 
ATOM     10  C   UNL d   1      33.241  21.077 -24.652  0.00  0.00     0.002 A 
ENDROOT
BRANCH   1  11
ATOM     11  S   UNL d   1      32.988  18.254 -23.728  0.00  0.00    -0.067 SA
BRANCH  11  12
ATOM     12  C   UNL d   1      32.633  17.616 -23.356  0.00  0.00     0.037 C 
BRANCH  12  13
ATOM     13  C   UNL d   1      32.565  16.894 -23.753  0.00  0.00     0.006 A 
ATOM     14  C   UNL d   1      31.810  16.549 -23.854  0.00  0.00     0.001 A 
ATOM     15  C   UNL d   1      31.140  16.930 -23.559  0.00  0.00     0.000 C 
ATOM     16  C   UNL d   1      31.749  15.823 -24.254  0.00  0.00     0.000 A 
ATOM     17  C   UNL d   1      32.416  15.453 -24.543  0.00  0.00     0.000 A 
ATOM     18  C   UNL d   1      33.156  15.798 -24.439  0.00  0.00     0.000 A 
ATOM     19  C   UNL d   1      33.239  16.521 -24.044  0.00  0.00     0.001 A 
ENDBRANCH  12  13
ENDBRANCH  11  12
ENDBRANCH   1  11
TORSDOF 3
ENDMDL
