MODEL 1
REMARK VINA RESULT:      -5.4      0.000      0.000
REMARK  5 active torsions:
REMARK  status: ('A' for Active; 'I' for Inactive)
REMARK    1  A    between atoms: C_14  and  N_3 
REMARK    2  A    between atoms: C_13  and  N_7 
REMARK    3  A    between atoms: C_10  and  C_13 
REMARK       I    between atoms: N_11  and  C_10 
REMARK    4  A    between atoms: C_21  and  N_12 
REMARK    5  A    between atoms: C_22  and  C_14 
ROOT
ATOM      1  C   UNL d   1     -43.518  13.282  21.478  0.00  0.00     0.191 A 
ATOM      2  C   UNL d   1     -43.570  12.539  21.851  0.00  0.00     0.196 A 
ATOM      3  N   UNL d   1     -42.749  13.353  21.175  0.00  0.00    -0.191 N 
ATOM      4  N   UNL d   1     -44.168  13.775  21.468  0.00  0.00    -0.204 NA
ATOM      5  N   UNL d   1     -42.831  12.170  21.770  0.00  0.00    -0.122 NA
ATOM      6  N   UNL d   1     -42.343  12.669  21.361  0.00  0.00    -0.058 NA
ATOM      7  N   UNL d   1     -44.928  12.807  22.197  0.00  0.00    -0.249 N 
ATOM      8  C   UNL d   1     -44.269  12.312  22.205  0.00  0.00     0.289 A 
ATOM      9  C   UNL d   1     -44.876  13.550  21.824  0.00  0.00     0.187 A 
ATOM     10  O   UNL d   1     -44.321  11.570  22.578  0.00  0.00    -0.265 OA
ENDROOT
BRANCH   7  11
ATOM     11  C   UNL d   1     -45.643  12.583  22.554  0.00  0.00     0.146 C 
BRANCH  11  12
ATOM     12  C   UNL d   1     -46.152  13.156  22.877  0.00  0.00     0.283 C 
ATOM     13  N   UNL d   1     -46.953  12.993  22.944  0.00  0.00    -0.268 N 
ATOM     14  C   UNL d   1     -47.235  12.261  22.689  0.00  0.00     0.102 A 
ATOM     15  C   UNL d   1     -47.449  13.555  23.260  0.00  0.00     0.102 A 
ATOM     16  C   UNL d   1     -48.044  12.101  22.759  0.00  0.00     0.100 A 
ATOM     17  N   UNL d   1     -48.556  12.667  23.079  0.00  0.00    -0.301 N 
ATOM     18  C   UNL d   1     -48.258  13.394  23.330  0.00  0.00     0.100 A 
ATOM     19  O   UNL d   1     -45.847  13.882  23.126  0.00  0.00    -0.265 OA
BRANCH  17  20
ATOM     20  C   UNL d   1     -49.356  12.504  23.146  0.00  0.00     0.064 A 
ATOM     21  C   UNL d   1     -49.892  12.955  22.733  0.00  0.00     0.018 A 
ATOM     22  C   UNL d   1     -50.701  12.794  22.798  0.00  0.00     0.002 A 
ATOM     23  C   UNL d   1     -50.959  12.177  23.281  0.00  0.00     0.000 A 
ATOM     24  C   UNL d   1     -50.408  11.722  23.698  0.00  0.00     0.002 A 
ATOM     25  C   UNL d   1     -49.600  11.883  23.633  0.00  0.00     0.018 A 
ENDBRANCH  17  20
ENDBRANCH  11  12
ENDBRANCH   7  11
BRANCH   3  26
ATOM     26  C   UNL d   1     -42.441  14.008  20.753  0.00  0.00     0.104 C 
BRANCH  26  27
ATOM     27  C   UNL d   1     -41.618  14.121  20.706  0.00  0.00     0.019 A 
ATOM     28  C   UNL d   1     -41.197  14.395  21.359  0.00  0.00     0.002 A 
ATOM     29  C   UNL d   1     -40.395  14.497  21.293  0.00  0.00     0.000 A 
ATOM     30  C   UNL d   1     -39.996  14.338  20.602  0.00  0.00     0.000 A 
ATOM     31  C   UNL d   1     -40.432  14.056  19.932  0.00  0.00     0.000 A 
ATOM     32  C   UNL d   1     -41.241  13.952  19.997  0.00  0.00     0.002 A 
ENDBRANCH  26  27
ENDBRANCH   3  26
TORSDOF 5
ENDMDL
MODEL 2
REMARK VINA RESULT:      -4.9      0.747      7.069
REMARK  5 active torsions:
REMARK  status: ('A' for Active; 'I' for Inactive)
REMARK    1  A    between atoms: C_14  and  N_3 
REMARK    2  A    between atoms: C_13  and  N_7 
REMARK    3  A    between atoms: C_10  and  C_13 
REMARK       I    between atoms: N_11  and  C_10 
REMARK    4  A    between atoms: C_21  and  N_12 
REMARK    5  A    between atoms: C_22  and  C_14 
ROOT
ATOM      1  C   UNL d   1     -46.809  12.765  22.601  0.00  0.00     0.191 A 
ATOM      2  C   UNL d   1     -46.574  13.550  22.752  0.00  0.00     0.196 A 
ATOM      3  N   UNL d   1     -47.573  12.672  22.909  0.00  0.00    -0.191 N 
ATOM      4  N   UNL d   1     -46.300  12.260  22.211  0.00  0.00    -0.204 NA
ATOM      5  N   UNL d   1     -47.199  13.923  23.151  0.00  0.00    -0.122 NA
ATOM      6  N   UNL d   1     -47.797  13.385  23.240  0.00  0.00    -0.058 NA
ATOM      7  N   UNL d   1     -45.322  13.298  22.116  0.00  0.00    -0.249 N 
ATOM      8  C   UNL d   1     -45.838  13.806  22.509  0.00  0.00     0.289 A 
ATOM      9  C   UNL d   1     -45.557  12.514  21.964  0.00  0.00     0.187 A 
ATOM     10  O   UNL d   1     -45.603  14.590  22.661  0.00  0.00    -0.265 OA
ENDROOT
BRANCH   7  11
ATOM     11  C   UNL d   1     -44.572  13.551  21.866  0.00  0.00     0.146 C 
BRANCH  11  12
ATOM     12  C   UNL d   1     -43.950  13.006  21.777  0.00  0.00     0.283 C 
ATOM     13  N   UNL d   1     -43.222  13.265  21.502  0.00  0.00    -0.268 N 
ATOM     14  C   UNL d   1     -43.124  14.063  21.318  0.00  0.00     0.102 A 
ATOM     15  C   UNL d   1     -42.615  12.730  21.417  0.00  0.00     0.102 A 
ATOM     16  C   UNL d   1     -42.388  14.320  21.041  0.00  0.00     0.100 A 
ATOM     17  N   UNL d   1     -41.765  13.783  20.951  0.00  0.00    -0.301 N 
ATOM     18  C   UNL d   1     -41.878  12.987  21.139  0.00  0.00     0.100 A 
ATOM     19  O   UNL d   1     -44.071  12.212  21.967  0.00  0.00    -0.265 OA
BRANCH  17  20
ATOM     20  C   UNL d   1     -41.037  14.041  20.676  0.00  0.00     0.064 A 
ATOM     21  C   UNL d   1     -40.927  14.147  19.877  0.00  0.00     0.018 A 
ATOM     22  C   UNL d   1     -40.194  14.408  19.595  0.00  0.00     0.002 A 
ATOM     23  C   UNL d   1     -39.580  14.559  20.125  0.00  0.00     0.000 A 
ATOM     24  C   UNL d   1     -39.700  14.449  20.936  0.00  0.00     0.002 A 
ATOM     25  C   UNL d   1     -40.433  14.188  21.218  0.00  0.00     0.018 A 
ENDBRANCH  17  20
ENDBRANCH  11  12
ENDBRANCH   7  11
BRANCH   3  26
ATOM     26  C   UNL d   1     -48.035  11.974  22.887  0.00  0.00     0.104 C 
BRANCH  26  27
ATOM     27  C   UNL d   1     -48.865  12.026  22.910  0.00  0.00     0.019 A 
ATOM     28  C   UNL d   1     -49.290  12.226  22.233  0.00  0.00     0.002 A 
ATOM     29  C   UNL d   1     -50.099  12.271  22.276  0.00  0.00     0.000 A 
ATOM     30  C   UNL d   1     -50.501  12.126  22.968  0.00  0.00     0.000 A 
ATOM     31  C   UNL d   1     -50.062  11.921  23.664  0.00  0.00     0.000 A 
ATOM     32  C   UNL d   1     -49.246  11.875  23.621  0.00  0.00     0.002 A 
ENDBRANCH  26  27
ENDBRANCH   3  26
TORSDOF 5
ENDMDL
MODEL 3
REMARK VINA RESULT:      -4.9      1.193      7.017
REMARK  5 active torsions:
REMARK  status: ('A' for Active; 'I' for Inactive)
REMARK    1  A    between atoms: C_14  and  N_3 
REMARK    2  A    between atoms: C_13  and  N_7 
REMARK    3  A    between atoms: C_10  and  C_13 
REMARK       I    between atoms: N_11  and  C_10 
REMARK    4  A    between atoms: C_21  and  N_12 
REMARK    5  A    between atoms: C_22  and  C_14 
ROOT
ATOM      1  C   UNL d   1     -45.414  12.536  22.638  0.00  0.00     0.191 A 
ATOM      2  C   UNL d   1     -44.885  11.936  22.869  0.00  0.00     0.196 A 
ATOM      3  N   UNL d   1     -46.140  12.383  23.010  0.00  0.00    -0.191 N 
ATOM      4  N   UNL d   1     -45.162  13.125  22.132  0.00  0.00    -0.204 NA
ATOM      5  N   UNL d   1     -45.297  11.426  23.377  0.00  0.00    -0.122 NA
ATOM      6  N   UNL d   1     -46.053  11.704  23.456  0.00  0.00    -0.058 NA
ATOM      7  N   UNL d   1     -43.861  12.534  22.076  0.00  0.00    -0.249 N 
ATOM      8  C   UNL d   1     -44.119  11.942  22.587  0.00  0.00     0.289 A 
ATOM      9  C   UNL d   1     -44.390  13.134  21.845  0.00  0.00     0.187 A 
ATOM     10  O   UNL d   1     -43.590  11.341  22.817  0.00  0.00    -0.265 OA
ENDROOT
BRANCH   7  11
ATOM     11  C   UNL d   1     -43.083  12.546  21.784  0.00  0.00     0.146 C 
BRANCH  11  12
ATOM     12  C   UNL d   1     -42.915  12.884  21.043  0.00  0.00     0.283 C 
ATOM     13  N   UNL d   1     -42.237  13.334  20.949  0.00  0.00    -0.268 N 
ATOM     14  C   UNL d   1     -41.735  13.443  21.595  0.00  0.00     0.102 A 
ATOM     15  C   UNL d   1     -42.073  13.664  20.224  0.00  0.00     0.102 A 
ATOM     16  C   UNL d   1     -41.051  13.898  21.496  0.00  0.00     0.100 A 
ATOM     17  N   UNL d   1     -40.878  14.236  20.761  0.00  0.00    -0.301 N 
ATOM     18  C   UNL d   1     -41.389  14.119  20.124  0.00  0.00     0.100 A 
ATOM     19  O   UNL d   1     -43.431  12.762  20.411  0.00  0.00    -0.265 OA
BRANCH  17  20
ATOM     20  C   UNL d   1     -40.199  14.687  20.667  0.00  0.00     0.064 A 
ATOM     21  C   UNL d   1     -40.199  15.463  20.907  0.00  0.00     0.018 A 
ATOM     22  C   UNL d   1     -39.516  15.922  20.814  0.00  0.00     0.002 A 
ATOM     23  C   UNL d   1     -38.841  15.588  20.478  0.00  0.00     0.000 A 
ATOM     24  C   UNL d   1     -38.849  14.797  20.236  0.00  0.00     0.002 A 
ATOM     25  C   UNL d   1     -39.531  14.339  20.329  0.00  0.00     0.018 A 
ENDBRANCH  17  20
ENDBRANCH  11  12
ENDBRANCH   7  11
BRANCH   3  26
ATOM     26  C   UNL d   1     -46.838  12.840  22.942  0.00  0.00     0.104 C 
BRANCH  26  27
ATOM     27  C   UNL d   1     -47.581  12.467  22.969  0.00  0.00     0.019 A 
ATOM     28  C   UNL d   1     -47.917  12.259  23.692  0.00  0.00     0.002 A 
ATOM     29  C   UNL d   1     -48.643  11.896  23.698  0.00  0.00     0.000 A 
ATOM     30  C   UNL d   1     -49.047  11.732  23.011  0.00  0.00     0.000 A 
ATOM     31  C   UNL d   1     -48.699  11.946  22.268  0.00  0.00     0.000 A 
ATOM     32  C   UNL d   1     -47.967  12.312  22.261  0.00  0.00     0.002 A 
ENDBRANCH  26  27
ENDBRANCH   3  26
TORSDOF 5
ENDMDL
MODEL 4
REMARK VINA RESULT:      -4.0      1.491      7.228
REMARK  5 active torsions:
REMARK  status: ('A' for Active; 'I' for Inactive)
REMARK    1  A    between atoms: C_14  and  N_3 
REMARK    2  A    between atoms: C_13  and  N_7 
REMARK    3  A    between atoms: C_10  and  C_13 
REMARK       I    between atoms: N_11  and  C_10 
REMARK    4  A    between atoms: C_21  and  N_12 
REMARK    5  A    between atoms: C_22  and  C_14 
ROOT
ATOM      1  C   UNL d   1     -44.723  12.926  22.217  0.00  0.00     0.191 A 
ATOM      2  C   UNL d   1     -44.156  12.316  22.252  0.00  0.00     0.196 A 
ATOM      3  N   UNL d   1     -45.370  12.689  22.678  0.00  0.00    -0.191 N 
ATOM      4  N   UNL d   1     -44.568  13.596  21.778  0.00  0.00    -0.204 NA
ATOM      5  N   UNL d   1     -44.468  11.717  22.734  0.00  0.00    -0.122 NA
ATOM      6  N   UNL d   1     -45.201  11.951  22.986  0.00  0.00    -0.058 NA
ATOM      7  N   UNL d   1     -43.292  13.070  21.402  0.00  0.00    -0.249 N 
ATOM      8  C   UNL d   1     -43.452  12.395  21.847  0.00  0.00     0.289 A 
ATOM      9  C   UNL d   1     -43.859  13.680  21.367  0.00  0.00     0.187 A 
ATOM     10  O   UNL d   1     -42.886  11.785  21.882  0.00  0.00    -0.265 OA
ENDROOT
BRANCH   7  11
ATOM     11  C   UNL d   1     -42.578  13.157  20.988  0.00  0.00     0.146 C 
BRANCH  11  12
ATOM     12  C   UNL d   1     -42.073  13.798  21.147  0.00  0.00     0.283 C 
ATOM     13  N   UNL d   1     -41.552  14.055  20.568  0.00  0.00    -0.268 N 
ATOM     14  C   UNL d   1     -41.541  13.669  19.838  0.00  0.00     0.102 A 
ATOM     15  C   UNL d   1     -41.058  14.682  20.725  0.00  0.00     0.102 A 
ATOM     16  C   UNL d   1     -41.015  13.930  19.257  0.00  0.00     0.100 A 
ATOM     17  N   UNL d   1     -40.509  14.568  19.409  0.00  0.00    -0.301 N 
ATOM     18  C   UNL d   1     -40.531  14.944  20.143  0.00  0.00     0.100 A 
ATOM     19  O   UNL d   1     -42.100  14.169  21.883  0.00  0.00    -0.265 OA
BRANCH  17  20
ATOM     20  C   UNL d   1     -39.988  14.824  18.830  0.00  0.00     0.064 A 
ATOM     21  C   UNL d   1     -39.246  14.493  18.785  0.00  0.00     0.018 A 
ATOM     22  C   UNL d   1     -38.717  14.749  18.202  0.00  0.00     0.002 A 
ATOM     23  C   UNL d   1     -38.945  15.338  17.671  0.00  0.00     0.000 A 
ATOM     24  C   UNL d   1     -39.701  15.670  17.724  0.00  0.00     0.002 A 
ATOM     25  C   UNL d   1     -40.230  15.414  18.306  0.00  0.00     0.018 A 
ENDBRANCH  17  20
ENDBRANCH  11  12
ENDBRANCH   7  11
BRANCH   3  26
ATOM     26  C   UNL d   1     -46.073  13.125  22.807  0.00  0.00     0.104 C 
BRANCH  26  27
ATOM     27  C   UNL d   1     -46.796  12.725  22.909  0.00  0.00     0.019 A 
ATOM     28  C   UNL d   1     -46.962  12.338  23.617  0.00  0.00     0.002 A 
ATOM     29  C   UNL d   1     -47.672  11.954  23.696  0.00  0.00     0.000 A 
ATOM     30  C   UNL d   1     -48.223  11.940  23.097  0.00  0.00     0.000 A 
ATOM     31  C   UNL d   1     -48.050  12.338  22.370  0.00  0.00     0.000 A 
ATOM     32  C   UNL d   1     -47.333  12.726  22.288  0.00  0.00     0.002 A 
ENDBRANCH  26  27
ENDBRANCH   3  26
TORSDOF 5
ENDMDL
MODEL 5
REMARK VINA RESULT:      -3.1      2.137      3.755
REMARK  5 active torsions:
REMARK  status: ('A' for Active; 'I' for Inactive)
REMARK    1  A    between atoms: C_14  and  N_3 
REMARK    2  A    between atoms: C_13  and  N_7 
REMARK    3  A    between atoms: C_10  and  C_13 
REMARK       I    between atoms: N_11  and  C_10 
REMARK    4  A    between atoms: C_21  and  N_12 
REMARK    5  A    between atoms: C_22  and  C_14 
ROOT
ATOM      1  C   UNL d   1     -40.783  14.175  19.563  0.00  0.00     0.191 A 
ATOM      2  C   UNL d   1     -40.834  14.712  20.198  0.00  0.00     0.196 A 
ATOM      3  N   UNL d   1     -40.124  14.394  19.108  0.00  0.00    -0.191 N 
ATOM      4  N   UNL d   1     -41.334  13.577  19.494  0.00  0.00    -0.204 NA
ATOM      5  N   UNL d   1     -40.206  15.249  20.120  0.00  0.00    -0.122 NA
ATOM      6  N   UNL d   1     -39.784  15.048  19.459  0.00  0.00    -0.058 NA
ATOM      7  N   UNL d   1     -41.994  14.032  20.678  0.00  0.00    -0.249 N 
ATOM      8  C   UNL d   1     -41.435  14.635  20.744  0.00  0.00     0.289 A 
ATOM      9  C   UNL d   1     -41.942  13.496  20.043  0.00  0.00     0.187 A 
ATOM     10  O   UNL d   1     -41.487  15.172  21.379  0.00  0.00    -0.265 OA
ENDROOT
BRANCH   7  11
ATOM     11  C   UNL d   1     -42.608  13.947  21.230  0.00  0.00     0.146 C 
BRANCH  11  12
ATOM     12  C   UNL d   1     -42.939  13.200  21.382  0.00  0.00     0.283 C 
ATOM     13  N   UNL d   1     -43.707  13.148  21.665  0.00  0.00    -0.268 N 
ATOM     14  C   UNL d   1     -44.134  13.842  21.792  0.00  0.00     0.102 A 
ATOM     15  C   UNL d   1     -44.029  12.417  21.813  0.00  0.00     0.102 A 
ATOM     16  C   UNL d   1     -44.909  13.786  22.077  0.00  0.00     0.100 A 
ATOM     17  N   UNL d   1     -45.244  13.045  22.230  0.00  0.00    -0.301 N 
ATOM     18  C   UNL d   1     -44.805  12.360  22.098  0.00  0.00     0.100 A 
ATOM     19  O   UNL d   1     -42.493  12.519  21.247  0.00  0.00    -0.265 OA
BRANCH  17  20
ATOM     20  C   UNL d   1     -46.012  12.994  22.513  0.00  0.00     0.064 A 
ATOM     21  C   UNL d   1     -46.615  13.348  22.098  0.00  0.00     0.018 A 
ATOM     22  C   UNL d   1     -47.392  13.298  22.380  0.00  0.00     0.002 A 
ATOM     23  C   UNL d   1     -47.550  12.890  23.079  0.00  0.00     0.000 A 
ATOM     24  C   UNL d   1     -46.931  12.532  23.496  0.00  0.00     0.002 A 
ATOM     25  C   UNL d   1     -46.155  12.582  23.214  0.00  0.00     0.018 A 
ENDBRANCH  17  20
ENDBRANCH  11  12
ENDBRANCH   7  11
BRANCH   3  26
ATOM     26  C   UNL d   1     -39.854  14.013  18.413  0.00  0.00     0.104 C 
BRANCH  26  27
ATOM     27  C   UNL d   1     -39.551  14.465  17.784  0.00  0.00     0.019 A 
ATOM     28  C   UNL d   1     -40.060  14.845  17.259  0.00  0.00     0.002 A 
ATOM     29  C   UNL d   1     -39.745  15.282  16.653  0.00  0.00     0.000 A 
ATOM     30  C   UNL d   1     -38.942  15.355  16.549  0.00  0.00     0.000 A 
ATOM     31  C   UNL d   1     -38.419  14.964  17.089  0.00  0.00     0.000 A 
ATOM     32  C   UNL d   1     -38.736  14.523  17.702  0.00  0.00     0.002 A 
ENDBRANCH  26  27
ENDBRANCH   3  26
TORSDOF 5
ENDMDL
