MODEL 1
REMARK VINA RESULT:      -9.4      0.000      0.000
REMARK  2 active torsions:
REMARK  status: ('A' for Active; 'I' for Inactive)
REMARK       I    between atoms: C_6  and  N_1 
REMARK    1  A    between atoms: C_7  and  C_3 
REMARK    2  A    between atoms: C_8  and  C_4 
ROOT
ATOM      1  N   UNL d   1     -49.375  13.162  22.303  0.00  0.00    -0.195 N 
ATOM      2  N   UNL d   1     -48.785  12.603  22.297  0.00  0.00    -0.163 NA
ATOM      3  C   UNL d   1     -48.321  12.732  22.968  0.00  0.00     0.106 A 
ATOM      4  C   UNL d   1     -49.278  13.636  22.971  0.00  0.00     0.088 A 
ATOM      5  C   UNL d   1     -48.627  13.364  23.376  0.00  0.00     0.040 A 
ATOM      6  C   UNL d   1     -49.994  13.255  21.722  0.00  0.00     0.281 C 
ATOM      7  O   UNL d   1     -50.541  13.832  21.796  0.00  0.00    -0.265 OA
ATOM      8  C   UNL d   1     -50.009  12.731  21.084  0.00  0.00     0.068 C 
ENDROOT
BRANCH   3   9
ATOM      9  C   UNL d   1     -47.658  12.292  23.185  0.00  0.00     0.058 A 
ATOM     10  C   UNL d   1     -47.749  11.531  23.492  0.00  0.00     0.197 A 
ATOM     11  O   UNL d   1     -48.500  11.237  23.570  0.00  0.00    -0.286 OA
ATOM     12  C   UNL d   1     -47.083  11.119  23.698  0.00  0.00     0.042 A 
ATOM     13  C   UNL d   1     -46.358  11.414  23.617  0.00  0.00     0.003 A 
ATOM     14  C   UNL d   1     -46.266  12.175  23.311  0.00  0.00     0.000 A 
ATOM     15  C   UNL d   1     -46.903  12.613  23.096  0.00  0.00     0.005 A 
ENDBRANCH   3   9
BRANCH   4  16
ATOM     16  C   UNL d   1     -49.764  14.273  23.185  0.00  0.00     0.018 A 
ATOM     17  C   UNL d   1     -49.510  15.049  23.120  0.00  0.00     0.002 A 
ATOM     18  C   UNL d   1     -48.745  15.172  22.830  0.00  0.00     0.000 C 
ATOM     19  C   UNL d   1     -49.972  15.670  23.324  0.00  0.00     0.000 A 
ATOM     20  C   UNL d   1     -50.736  15.545  23.613  0.00  0.00     0.000 A 
ATOM     21  C   UNL d   1     -51.031  14.774  23.695  0.00  0.00     0.000 A 
ATOM     22  C   UNL d   1     -50.529  14.154  23.476  0.00  0.00     0.002 A 
ENDBRANCH   4  16
TORSDOF 2
ENDMDL
MODEL 2
REMARK VINA RESULT:      -9.1      0.808      3.647
REMARK  2 active torsions:
REMARK  status: ('A' for Active; 'I' for Inactive)
REMARK       I    between atoms: C_6  and  N_1 
REMARK    1  A    between atoms: C_7  and  C_3 
REMARK    2  A    between atoms: C_8  and  C_4 
ROOT
ATOM      1  N   UNL d   1     -48.600  13.065  22.198  0.00  0.00    -0.195 N 
ATOM      2  N   UNL d   1     -49.170  13.643  22.189  0.00  0.00    -0.163 NA
ATOM      3  C   UNL d   1     -49.212  13.956  22.952  0.00  0.00     0.106 A 
ATOM      4  C   UNL d   1     -48.288  13.018  22.960  0.00  0.00     0.088 A 
ATOM      5  C   UNL d   1     -48.670  13.570  23.419  0.00  0.00     0.040 A 
ATOM      6  C   UNL d   1     -48.355  12.581  21.538  0.00  0.00     0.281 C 
ATOM      7  O   UNL d   1     -47.783  12.030  21.625  0.00  0.00    -0.265 OA
ATOM      8  C   UNL d   1     -48.726  12.701  20.811  0.00  0.00     0.068 C 
ENDROOT
BRANCH   3   9
ATOM      9  C   UNL d   1     -49.719  14.559  23.197  0.00  0.00     0.058 A 
ATOM     10  C   UNL d   1     -50.479  14.378  23.462  0.00  0.00     0.197 A 
ATOM     11  O   UNL d   1     -50.706  13.600  23.472  0.00  0.00    -0.286 OA
ATOM     12  C   UNL d   1     -50.958  14.988  23.697  0.00  0.00     0.042 A 
ATOM     13  C   UNL d   1     -50.726  15.740  23.683  0.00  0.00     0.003 A 
ATOM     14  C   UNL d   1     -49.966  15.922  23.418  0.00  0.00     0.000 A 
ATOM     15  C   UNL d   1     -49.464  15.344  23.177  0.00  0.00     0.005 A 
ENDBRANCH   3   9
BRANCH   4  16
ATOM     16  C   UNL d   1     -47.691  12.497  23.206  0.00  0.00     0.018 A 
ATOM     17  C   UNL d   1     -46.927  12.755  23.348  0.00  0.00     0.002 A 
ATOM     18  C   UNL d   1     -46.773  13.560  23.236  0.00  0.00     0.000 C 
ATOM     19  C   UNL d   1     -46.344  12.260  23.586  0.00  0.00     0.000 A 
ATOM     20  C   UNL d   1     -46.499  11.456  23.698  0.00  0.00     0.000 A 
ATOM     21  C   UNL d   1     -47.262  11.155  23.564  0.00  0.00     0.000 A 
ATOM     22  C   UNL d   1     -47.840  11.692  23.320  0.00  0.00     0.002 A 
ENDBRANCH   4  16
TORSDOF 2
ENDMDL
MODEL 3
REMARK VINA RESULT:      -8.7      1.281      3.854
REMARK  2 active torsions:
REMARK  status: ('A' for Active; 'I' for Inactive)
REMARK       I    between atoms: C_6  and  N_1 
REMARK    1  A    between atoms: C_7  and  C_3 
REMARK    2  A    between atoms: C_8  and  C_4 
ROOT
ATOM      1  N   UNL d   1     -47.912  12.597  22.910  0.00  0.00    -0.195 N 
ATOM      2  N   UNL d   1     -48.718  12.700  22.879  0.00  0.00    -0.163 NA
ATOM      3  C   UNL d   1     -48.859  13.384  22.439  0.00  0.00     0.106 A 
ATOM      4  C   UNL d   1     -47.554  13.211  22.493  0.00  0.00     0.088 A 
ATOM      5  C   UNL d   1     -48.144  13.692  22.206  0.00  0.00     0.040 A 
ATOM      6  C   UNL d   1     -47.496  11.964  23.304  0.00  0.00     0.281 C 
ATOM      7  O   UNL d   1     -46.698  11.928  23.291  0.00  0.00    -0.265 OA
ATOM      8  C   UNL d   1     -47.942  11.391  23.698  0.00  0.00     0.068 C 
ENDROOT
BRANCH   3   9
ATOM      9  C   UNL d   1     -49.601  13.701  22.267  0.00  0.00     0.058 A 
ATOM     10  C   UNL d   1     -49.995  13.477  21.578  0.00  0.00     0.197 A 
ATOM     11  O   UNL d   1     -49.634  12.944  21.086  0.00  0.00    -0.286 OA
ATOM     12  C   UNL d   1     -50.723  13.801  21.430  0.00  0.00     0.042 A 
ATOM     13  C   UNL d   1     -51.064  14.319  21.916  0.00  0.00     0.003 A 
ATOM     14  C   UNL d   1     -50.669  14.543  22.605  0.00  0.00     0.000 A 
ATOM     15  C   UNL d   1     -49.947  14.242  22.784  0.00  0.00     0.005 A 
ENDBRANCH   3   9
BRANCH   4  16
ATOM     16  C   UNL d   1     -46.737  13.312  22.389  0.00  0.00     0.018 A 
ATOM     17  C   UNL d   1     -46.336  13.943  22.723  0.00  0.00     0.002 A 
ATOM     18  C   UNL d   1     -46.780  14.478  23.171  0.00  0.00     0.000 C 
ATOM     19  C   UNL d   1     -45.548  14.049  22.629  0.00  0.00     0.000 A 
ATOM     20  C   UNL d   1     -45.106  13.513  22.182  0.00  0.00     0.000 A 
ATOM     21  C   UNL d   1     -45.475  12.860  21.826  0.00  0.00     0.000 A 
ATOM     22  C   UNL d   1     -46.290  12.779  21.943  0.00  0.00     0.002 A 
ENDBRANCH   4  16
TORSDOF 2
ENDMDL
MODEL 4
REMARK VINA RESULT:      -8.4      1.292      2.190
REMARK  2 active torsions:
REMARK  status: ('A' for Active; 'I' for Inactive)
REMARK       I    between atoms: C_6  and  N_1 
REMARK    1  A    between atoms: C_7  and  C_3 
REMARK    2  A    between atoms: C_8  and  C_4 
ROOT
ATOM      1  N   UNL d   1     -48.524  14.000  22.875  0.00  0.00    -0.195 N 
ATOM      2  N   UNL d   1     -47.720  14.080  22.793  0.00  0.00    -0.163 NA
ATOM      3  C   UNL d   1     -47.411  13.323  22.673  0.00  0.00     0.106 A 
ATOM      4  C   UNL d   1     -48.715  13.201  22.808  0.00  0.00     0.088 A 
ATOM      5  C   UNL d   1     -48.024  12.790  22.683  0.00  0.00     0.040 A 
ATOM      6  C   UNL d   1     -49.086  14.629  23.009  0.00  0.00     0.281 C 
ATOM      7  O   UNL d   1     -49.866  14.472  23.081  0.00  0.00    -0.265 OA
ATOM      8  C   UNL d   1     -48.799  15.401  23.063  0.00  0.00     0.068 C 
ENDROOT
BRANCH   3   9
ATOM      9  C   UNL d   1     -46.614  13.141  22.562  0.00  0.00     0.058 A 
ATOM     10  C   UNL d   1     -46.231  12.630  23.084  0.00  0.00     0.197 A 
ATOM     11  O   UNL d   1     -46.658  12.318  23.698  0.00  0.00    -0.286 OA
ATOM     12  C   UNL d   1     -45.448  12.466  22.954  0.00  0.00     0.042 A 
ATOM     13  C   UNL d   1     -45.043  12.774  22.353  0.00  0.00     0.003 A 
ATOM     14  C   UNL d   1     -45.426  13.286  21.831  0.00  0.00     0.000 A 
ATOM     15  C   UNL d   1     -46.201  13.471  21.929  0.00  0.00     0.005 A 
ENDBRANCH   3   9
BRANCH   4  16
ATOM     16  C   UNL d   1     -49.479  12.881  22.859  0.00  0.00     0.018 A 
ATOM     17  C   UNL d   1     -49.839  12.522  22.218  0.00  0.00     0.002 A 
ATOM     18  C   UNL d   1     -49.408  12.490  21.512  0.00  0.00     0.000 C 
ATOM     19  C   UNL d   1     -50.576  12.211  22.258  0.00  0.00     0.000 A 
ATOM     20  C   UNL d   1     -51.005  12.244  22.964  0.00  0.00     0.000 A 
ATOM     21  C   UNL d   1     -50.675  12.600  23.638  0.00  0.00     0.000 A 
ATOM     22  C   UNL d   1     -49.913  12.911  23.563  0.00  0.00     0.002 A 
ENDBRANCH   4  16
TORSDOF 2
ENDMDL
MODEL 5
REMARK VINA RESULT:      -7.2      9.286     10.958
REMARK  2 active torsions:
REMARK  status: ('A' for Active; 'I' for Inactive)
REMARK       I    between atoms: C_6  and  N_1 
REMARK    1  A    between atoms: C_7  and  C_3 
REMARK    2  A    between atoms: C_8  and  C_4 
ROOT
ATOM      1  N   UNL d   1     -40.232  15.108  17.696  0.00  0.00    -0.195 N 
ATOM      2  N   UNL d   1     -40.560  15.232  18.429  0.00  0.00    -0.163 NA
ATOM      3  C   UNL d   1     -40.034  14.924  18.986  0.00  0.00     0.106 A 
ATOM      4  C   UNL d   1     -39.508  14.726  17.795  0.00  0.00     0.088 A 
ATOM      5  C   UNL d   1     -39.393  14.616  18.592  0.00  0.00     0.040 A 
ATOM      6  C   UNL d   1     -40.570  15.331  16.944  0.00  0.00     0.281 C 
ATOM      7  O   UNL d   1     -40.186  15.175  16.260  0.00  0.00    -0.265 OA
ATOM      8  C   UNL d   1     -41.303  15.712  16.944  0.00  0.00     0.068 C 
ENDROOT
BRANCH   3   9
ATOM      9  C   UNL d   1     -40.142  14.929  19.804  0.00  0.00     0.058 A 
ATOM     10  C   UNL d   1     -39.696  15.436  20.276  0.00  0.00     0.197 A 
ATOM     11  O   UNL d   1     -39.157  15.922  19.915  0.00  0.00    -0.286 OA
ATOM     12  C   UNL d   1     -39.820  15.423  21.077  0.00  0.00     0.042 A 
ATOM     13  C   UNL d   1     -40.347  14.946  21.417  0.00  0.00     0.003 A 
ATOM     14  C   UNL d   1     -40.793  14.439  20.944  0.00  0.00     0.000 A 
ATOM     15  C   UNL d   1     -40.697  14.425  20.148  0.00  0.00     0.005 A 
ENDBRANCH   3   9
BRANCH   4  16
ATOM     16  C   UNL d   1     -38.995  14.498  17.183  0.00  0.00     0.018 A 
ATOM     17  C   UNL d   1     -38.823  13.711  17.038  0.00  0.00     0.002 A 
ATOM     18  C   UNL d   1     -39.182  13.149  17.527  0.00  0.00     0.000 C 
ATOM     19  C   UNL d   1     -38.329  13.482  16.451  0.00  0.00     0.000 A 
ATOM     20  C   UNL d   1     -37.971  14.045  15.963  0.00  0.00     0.000 A 
ATOM     21  C   UNL d   1     -38.120  14.854  16.078  0.00  0.00     0.000 A 
ATOM     22  C   UNL d   1     -38.634  15.057  16.693  0.00  0.00     0.002 A 
ENDBRANCH   4  16
TORSDOF 2
ENDMDL
MODEL 6
REMARK VINA RESULT:      -7.0      8.630     10.370
REMARK  2 active torsions:
REMARK  status: ('A' for Active; 'I' for Inactive)
REMARK       I    between atoms: C_6  and  N_1 
REMARK    1  A    between atoms: C_7  and  C_3 
REMARK    2  A    between atoms: C_8  and  C_4 
ROOT
ATOM      1  N   UNL d   1     -40.301  15.252  20.308  0.00  0.00    -0.195 N 
ATOM      2  N   UNL d   1     -40.573  15.436  19.564  0.00  0.00    -0.163 NA
ATOM      3  C   UNL d   1     -40.046  15.103  19.023  0.00  0.00     0.106 A 
ATOM      4  C   UNL d   1     -39.611  14.808  20.231  0.00  0.00     0.088 A 
ATOM      5  C   UNL d   1     -39.460  14.720  19.436  0.00  0.00     0.040 A 
ATOM      6  C   UNL d   1     -40.661  15.474  21.050  0.00  0.00     0.281 C 
ATOM      7  O   UNL d   1     -40.334  15.255  21.745  0.00  0.00    -0.265 OA
ATOM      8  C   UNL d   1     -41.354  15.922  21.027  0.00  0.00     0.068 C 
ENDROOT
BRANCH   3   9
ATOM      9  C   UNL d   1     -40.105  15.151  18.202  0.00  0.00     0.058 A 
ATOM     10  C   UNL d   1     -40.508  14.566  17.782  0.00  0.00     0.197 A 
ATOM     11  O   UNL d   1     -40.838  13.954  18.198  0.00  0.00    -0.286 OA
ATOM     12  C   UNL d   1     -40.553  14.636  16.976  0.00  0.00     0.042 A 
ATOM     13  C   UNL d   1     -40.229  15.235  16.582  0.00  0.00     0.003 A 
ATOM     14  C   UNL d   1     -39.826  15.820  17.002  0.00  0.00     0.000 A 
ATOM     15  C   UNL d   1     -39.761  15.784  17.801  0.00  0.00     0.005 A 
ENDBRANCH   3   9
BRANCH   4  16
ATOM     16  C   UNL d   1     -39.157  14.508  20.858  0.00  0.00     0.018 A 
ATOM     17  C   UNL d   1     -38.398  14.774  21.005  0.00  0.00     0.002 A 
ATOM     18  C   UNL d   1     -38.098  15.358  20.501  0.00  0.00     0.000 C 
ATOM     19  C   UNL d   1     -37.953  14.491  21.607  0.00  0.00     0.000 A 
ATOM     20  C   UNL d   1     -38.253  13.908  22.110  0.00  0.00     0.000 A 
ATOM     21  C   UNL d   1     -39.020  13.611  21.994  0.00  0.00     0.000 A 
ATOM     22  C   UNL d   1     -39.453  13.925  21.364  0.00  0.00     0.002 A 
ENDBRANCH   4  16
TORSDOF 2
ENDMDL
