MODEL 1
REMARK VINA RESULT:       5.0      0.000      0.000
REMARK  7 active torsions:
REMARK  status: ('A' for Active; 'I' for Inactive)
REMARK    1  A    between atoms: C_13  and  N_1 
REMARK    2  A    between atoms: C_2  and  N_6 
REMARK    3  A    between atoms: C_8  and  C_5 
REMARK       I    between atoms: N_6  and  C_8 
REMARK    4  A    between atoms: S_20  and  C_9 
REMARK    5  A    between atoms: C_14  and  C_19 
REMARK    6  A    between atoms: C_19  and  C_23 
REMARK    7  A    between atoms: C_23  and  S_20 
ROOT
ATOM      1  N   UNL d   1     -41.556-122.646 -52.065  0.00  0.00    -0.181 NA
ATOM      2  C   UNL d   1     -41.413-123.113 -51.470  0.00  0.00     0.283 C 
ATOM      3  O   UNL d   1     -41.124-123.817 -51.594  0.00  0.00    -0.265 OA
ENDROOT
BRANCH   2   4
ATOM      4  C   UNL d   1     -41.557-122.877 -50.755  0.00  0.00     0.080 A 
ATOM      5  C   UNL d   1     -41.961-123.253 -50.223  0.00  0.00     0.088 A 
ATOM      6  N   UNL d   1     -41.972-122.825 -49.585  0.00  0.00    -0.273 N 
ATOM      7  C   UNL d   1     -41.577-122.186 -49.723  0.00  0.00     0.265 A 
ATOM      8  C   UNL d   1     -41.316-122.213 -50.450  0.00  0.00     0.067 A 
ATOM      9  O   UNL d   1     -41.457-121.608 -49.222  0.00  0.00    -0.267 OA
BRANCH   6  10
ATOM     10  C   UNL d   1     -42.350-123.025 -48.872  0.00  0.00     0.067 A 
ATOM     11  C   UNL d   1     -42.147-122.624 -48.179  0.00  0.00     0.020 A 
ATOM     12  C   UNL d   1     -42.528-122.830 -47.475  0.00  0.00     0.031 A 
ATOM     13  C   UNL d   1     -43.097-123.419 -47.460  0.00  0.00     0.140 A 
ATOM     14  C   UNL d   1     -43.295-123.817 -48.161  0.00  0.00     0.031 A 
ATOM     15  F   UNL d   1     -43.479-123.624 -46.748  0.00  0.00    -0.204 F 
ATOM     16  C   UNL d   1     -42.926-123.622 -48.858  0.00  0.00     0.020 A 
ENDBRANCH   6  10
ENDBRANCH   2   4
BRANCH   1  17
ATOM     17  C   UNL d   1     -41.413-122.878 -52.784  0.00  0.00     0.219 A 
ATOM     18  S   UNL d   1     -41.388-122.429 -53.410  0.00  0.00    -0.019 SA
ATOM     19  C   UNL d   1     -41.230-122.870 -54.010  0.00  0.00     0.165 A 
ATOM     20  N   UNL d   1     -41.154-123.599 -53.773  0.00  0.00    -0.133 NA
ATOM     21  N   UNL d   1     -41.269-123.603 -53.001  0.00  0.00    -0.120 NA
BRANCH  19  22
ATOM     22  S   UNL d   1     -41.123-122.099 -55.517  0.00  0.00    -0.059 SA
BRANCH  22  23
ATOM     23  C   UNL d   1     -41.608-121.453 -55.688  0.00  0.00     0.042 C 
BRANCH  23  24
ATOM     24  C   UNL d   1     -42.166-121.508 -56.298  0.00  0.00     0.058 C 
BRANCH  24  25
ATOM     25  C   UNL d   1     -42.892-121.869 -56.145  0.00  0.00     0.204 A 
ATOM     26  O   UNL d   1     -43.279-122.414 -56.638  0.00  0.00    -0.281 OA
ATOM     27  C   UNL d   1     -43.989-122.630 -56.266  0.00  0.00     0.152 A 
ATOM     28  C   UNL d   1     -44.036-122.220 -55.548  0.00  0.00     0.152 A 
ATOM     29  O   UNL d   1     -43.361-121.749 -55.470  0.00  0.00    -0.281 OA
ENDBRANCH  24  25
ENDBRANCH  23  24
ENDBRANCH  22  23
ENDBRANCH  19  22
ENDBRANCH   1  17
TORSDOF 7
ENDMDL
