MODEL 1
REMARK VINA RESULT:      63.7      0.000      0.000
REMARK  7 active torsions:
REMARK  status: ('A' for Active; 'I' for Inactive)
REMARK    1  A    between atoms: N_3  and  C_1 
REMARK       I    between atoms: C_7  and  N_3 
REMARK    2  A    between atoms: C_11  and  N_3 
REMARK    3  A    between atoms: S_5  and  C_10 
REMARK    4  A    between atoms: C_14  and  S_5 
REMARK    5  A    between atoms: C_9  and  C_7 
REMARK    6  A    between atoms: C_10  and  C_9 
REMARK    7  A    between atoms: C_18  and  C_11 
ROOT
ATOM      1  N   UNL d   1      13.871  13.908  -2.870  0.00  0.00    -0.253 N 
ATOM      2  C   UNL d   1      14.393  14.533  -3.068  0.00  0.00     0.267 C 
ATOM      3  O   UNL d   1      15.054  14.671  -2.599  0.00  0.00    -0.267 OA
ENDROOT
BRANCH   1   4
ATOM      4  C   UNL d   1      14.026  13.440  -2.210  0.00  0.00     0.182 A 
ATOM      5  N   UNL d   1      13.484  12.948  -1.817  0.00  0.00    -0.219 NA
ATOM      6  C   UNL d   1      13.877  12.582  -1.184  0.00  0.00     0.117 A 
ATOM      7  C   UNL d   1      13.610  12.051  -0.624  0.00  0.00     0.158 A 
ATOM      8  C   UNL d   1      14.653  12.844  -1.183  0.00  0.00     0.052 A 
ATOM      9  F   UNL d   1      12.836  11.787  -0.622  0.00  0.00    -0.203 F 
ATOM     10  C   UNL d   1      14.130  11.779  -0.056  0.00  0.00     0.031 A 
ATOM     11  C   UNL d   1      14.914  12.037  -0.046  0.00  0.00     0.003 A 
ATOM     12  C   UNL d   1      15.173  12.573  -0.615  0.00  0.00     0.008 A 
ATOM     13  S   UNL d   1      14.753  13.374  -1.813  0.00  0.00    -0.048 SA
ENDBRANCH   1   4
BRANCH   1  14
ATOM     14  C   UNL d   1      13.207  13.763  -3.335  0.00  0.00     0.086 C 
BRANCH  14  15
ATOM     15  C   UNL d   1      13.208  13.138  -3.873  0.00  0.00     0.037 A 
ATOM     16  C   UNL d   1      13.531  13.240  -4.624  0.00  0.00     0.100 A 
ATOM     17  N   UNL d   1      13.532  12.615  -5.162  0.00  0.00    -0.242 NA
ATOM     18  C   UNL d   1      13.211  11.888  -4.951  0.00  0.00     0.099 A 
ATOM     19  C   UNL d   1      12.886  11.783  -4.198  0.00  0.00     0.021 A 
ATOM     20  C   UNL d   1      12.885  12.407  -3.659  0.00  0.00     0.005 A 
ENDBRANCH  14  15
ENDBRANCH   1  14
BRANCH   2  21
ATOM     21  C   UNL d   1      14.237  14.997  -3.725  0.00  0.00     0.073 C 
BRANCH  21  22
ATOM     22  C   UNL d   1      14.813  15.528  -3.997  0.00  0.00     0.104 C 
BRANCH  22  23
ATOM     23  S   UNL d   1      14.620  16.087  -4.575  0.00  0.00     0.211 S 
ATOM     24  O   UNL d   1      14.215  16.545  -4.002  0.00  0.00    -0.217 OA
ATOM     25  O   UNL d   1      15.021  15.632  -5.146  0.00  0.00    -0.217 OA
BRANCH  23  26
ATOM     26  C   UNL d   1      14.424  16.649  -5.154  0.00  0.00     0.088 A 
ATOM     27  C   UNL d   1      14.789  17.389  -5.145  0.00  0.00     0.011 A 
ATOM     28  C   UNL d   1      14.598  17.950  -5.717  0.00  0.00     0.001 A 
ATOM     29  C   UNL d   1      14.042  17.770  -6.298  0.00  0.00     0.000 A 
ATOM     30  C   UNL d   1      13.680  17.039  -6.310  0.00  0.00     0.001 A 
ATOM     31  C   UNL d   1      13.867  16.471  -5.738  0.00  0.00     0.011 A 
ENDBRANCH  23  26
ENDBRANCH  22  23
ENDBRANCH  21  22
ENDBRANCH   2  21
TORSDOF 7
ENDMDL
