MODEL 1
REMARK VINA RESULT:      30.9      0.000      0.000
REMARK  3 active torsions:
REMARK  status: ('A' for Active; 'I' for Inactive)
REMARK    1  A    between atoms: C_3  and  C_1 
REMARK    2  A    between atoms: C_8  and  C_3 
REMARK    3  A    between atoms: C_10  and  C_4 
ROOT
ATOM      1  C   UNL d   1      60.369  49.531  51.040  0.00  0.00     0.092 C 
ATOM      2  C   UNL d   1      60.714  49.602  50.295  0.00  0.00     0.103 C 
ATOM      3  N   UNL d   1      61.042  49.678  49.526  0.00  0.00    -0.191 NA
ENDROOT
BRANCH   1   4
ATOM      4  C   UNL d   1      59.536  49.583  51.111  0.00  0.00     0.120 A 
ATOM      5  N   UNL d   1      58.973  49.546  50.486  0.00  0.00    -0.238 NA
ATOM      6  C   UNL d   1      58.216  49.621  50.816  0.00  0.00     0.088 A 
ATOM      7  C   UNL d   1      58.318  49.703  51.630  0.00  0.00     0.056 A 
ATOM      8  S   UNL d   1      59.121  49.677  51.783  0.00  0.00    -0.065 SA
BRANCH   6   9
ATOM      9  C   UNL d   1      57.494  49.612  50.374  0.00  0.00     0.018 A 
ATOM     10  C   UNL d   1      56.777  49.510  50.780  0.00  0.00     0.002 A 
ATOM     11  C   UNL d   1      56.070  49.500  50.357  0.00  0.00     0.000 A 
ATOM     12  C   UNL d   1      56.064  49.593  49.509  0.00  0.00     0.000 A 
ATOM     13  C   UNL d   1      56.784  49.695  49.116  0.00  0.00     0.000 A 
ATOM     14  C   UNL d   1      57.506  49.704  49.559  0.00  0.00     0.002 A 
ENDBRANCH   6   9
ENDBRANCH   1   4
BRANCH   1  15
ATOM     15  C   UNL d   1      60.855  49.411  51.690  0.00  0.00     0.012 A 
ATOM     16  C   UNL d   1      60.866  49.704  52.470  0.00  0.00     0.001 A 
ATOM     17  C   UNL d   1      61.500  49.371  52.864  0.00  0.00     0.000 A 
ATOM     18  C   UNL d   1      61.882  48.878  52.342  0.00  0.00     0.000 A 
ATOM     19  C   UNL d   1      61.492  48.897  51.621  0.00  0.00     0.001 A 
ENDBRANCH   1  15
TORSDOF 3
ENDMDL
MODEL 2
REMARK VINA RESULT:      33.5      1.017      4.378
REMARK  3 active torsions:
REMARK  status: ('A' for Active; 'I' for Inactive)
REMARK    1  A    between atoms: C_3  and  C_1 
REMARK    2  A    between atoms: C_8  and  C_3 
REMARK    3  A    between atoms: C_10  and  C_4 
ROOT
ATOM      1  C   UNL d   1      57.541  49.353  50.639  0.00  0.00     0.092 C 
ATOM      2  C   UNL d   1      57.193  49.432  51.382  0.00  0.00     0.103 C 
ATOM      3  N   UNL d   1      56.862  49.517  52.149  0.00  0.00    -0.191 NA
ENDROOT
BRANCH   1   4
ATOM      4  C   UNL d   1      58.367  49.463  50.561  0.00  0.00     0.120 A 
ATOM      5  N   UNL d   1      58.940  49.442  51.178  0.00  0.00    -0.238 NA
ATOM      6  C   UNL d   1      59.686  49.581  50.844  0.00  0.00     0.088 A 
ATOM      7  C   UNL d   1      59.568  49.684  50.034  0.00  0.00     0.056 A 
ATOM      8  S   UNL d   1      58.766  49.609  49.889  0.00  0.00    -0.065 SA
BRANCH   6   9
ATOM      9  C   UNL d   1      60.412  49.605  51.278  0.00  0.00     0.018 A 
ATOM     10  C   UNL d   1      61.129  49.620  50.859  0.00  0.00     0.002 A 
ATOM     11  C   UNL d   1      61.840  49.644  51.273  0.00  0.00     0.000 A 
ATOM     12  C   UNL d   1      61.851  49.653  52.127  0.00  0.00     0.000 A 
ATOM     13  C   UNL d   1      61.132  49.637  52.533  0.00  0.00     0.000 A 
ATOM     14  C   UNL d   1      60.405  49.613  52.098  0.00  0.00     0.002 A 
ENDBRANCH   6   9
ENDBRANCH   1   4
BRANCH   1  15
ATOM     15  C   UNL d   1      57.064  49.168  49.998  0.00  0.00     0.012 A 
ATOM     16  C   UNL d   1      57.029  48.528  49.464  0.00  0.00     0.001 A 
ATOM     17  C   UNL d   1      56.421  48.664  48.935  0.00  0.00     0.000 A 
ATOM     18  C   UNL d   1      56.079  49.375  49.132  0.00  0.00     0.000 A 
ATOM     19  C   UNL d   1      56.468  49.689  49.782  0.00  0.00     0.001 A 
ENDBRANCH   1  15
TORSDOF 3
ENDMDL
