MODEL 1
REMARK VINA RESULT:      47.0      0.000      0.000
REMARK  4 active torsions:
REMARK  status: ('A' for Active; 'I' for Inactive)
REMARK       I    between atoms: N_2  and  C_1 
REMARK    1  A    between atoms: C_5  and  C_1 
REMARK    2  A    between atoms: C_8  and  N_2 
REMARK    3  A    between atoms: O_9  and  C_5 
REMARK    4  A    between atoms: C_11  and  O_9 
ROOT
ATOM      1  C   UNL d   1     -51.760  26.125  33.543  0.00  0.00     0.290 C 
ATOM      2  N   UNL d   1     -52.266  25.485  33.421  0.00  0.00    -0.270 N 
ATOM      3  O   UNL d   1     -52.063  26.896  33.551  0.00  0.00    -0.264 OA
ATOM      4  C   UNL d   1     -53.084  25.622  33.306  0.00  0.00     0.102 C 
ENDROOT
BRANCH   1   5
ATOM      5  C   UNL d   1     -50.957  25.997  33.656  0.00  0.00     0.184 C 
BRANCH   5   6
ATOM      6  O   UNL d   1     -50.403  26.505  33.308  0.00  0.00    -0.300 OA
BRANCH   6   7
ATOM      7  C   UNL d   1     -49.910  26.983  33.781  0.00  0.00     0.100 A 
ATOM      8  C   UNL d   1     -50.023  27.024  34.599  0.00  0.00     0.025 A 
ATOM      9  C   UNL d   1     -49.536  27.495  35.061  0.00  0.00     0.013 A 
ATOM     10  C   UNL d   1     -49.648  27.536  35.870  0.00  0.00     0.001 C 
ATOM     11  C   UNL d   1     -48.931  27.928  34.706  0.00  0.00     0.058 A 
ATOM     12  C   UNL d   1     -48.818  27.887  33.891  0.00  0.00     0.013 A 
ATOM     13 CL   UNL d   1     -48.444  28.400  35.168  0.00  0.00    -0.082 Cl
ATOM     14  C   UNL d   1     -49.308  27.413  33.426  0.00  0.00     0.026 A 
ENDBRANCH   6   7
ENDBRANCH   5   6
ENDBRANCH   1   5
BRANCH   2  15
ATOM     15  C   UNL d   1     -51.968  24.727  33.413  0.00  0.00     0.067 A 
ATOM     16  C   UNL d   1     -52.492  24.085  33.506  0.00  0.00     0.018 A 
ATOM     17  C   UNL d   1     -52.193  23.322  33.498  0.00  0.00     0.002 A 
ATOM     18  C   UNL d   1     -51.376  23.189  33.399  0.00  0.00     0.000 A 
ATOM     19  C   UNL d   1     -50.851  23.819  33.306  0.00  0.00     0.002 A 
ATOM     20  C   UNL d   1     -51.157  24.599  33.314  0.00  0.00     0.018 A 
ENDBRANCH   2  15
TORSDOF 4
ENDMDL
MODEL 2
REMARK VINA RESULT:      47.8      1.527      2.674
REMARK  4 active torsions:
REMARK  status: ('A' for Active; 'I' for Inactive)
REMARK       I    between atoms: N_2  and  C_1 
REMARK    1  A    between atoms: C_5  and  C_1 
REMARK    2  A    between atoms: C_8  and  N_2 
REMARK    3  A    between atoms: O_9  and  C_5 
REMARK    4  A    between atoms: C_11  and  O_9 
ROOT
ATOM      1  C   UNL d   1     -52.538  24.018  33.562  0.00  0.00     0.290 C 
ATOM      2  N   UNL d   1     -53.361  23.959  33.555  0.00  0.00    -0.270 N 
ATOM      3  O   UNL d   1     -52.076  23.334  33.637  0.00  0.00    -0.264 OA
ATOM      4  C   UNL d   1     -53.722  23.207  33.624  0.00  0.00     0.102 C 
ENDROOT
BRANCH   1   5
ATOM      5  C   UNL d   1     -52.178  24.752  33.495  0.00  0.00     0.184 C 
BRANCH   5   6
ATOM      6  O   UNL d   1     -51.561  24.961  34.008  0.00  0.00    -0.300 OA
BRANCH   6   7
ATOM      7  C   UNL d   1     -51.068  25.610  33.836  0.00  0.00     0.100 A 
ATOM      8  C   UNL d   1     -50.269  25.495  33.654  0.00  0.00     0.025 A 
ATOM      9  C   UNL d   1     -49.788  26.138  33.485  0.00  0.00     0.013 A 
ATOM     10  C   UNL d   1     -48.998  26.024  33.306  0.00  0.00     0.001 C 
ATOM     11  C   UNL d   1     -50.103  26.899  33.497  0.00  0.00     0.058 A 
ATOM     12  C   UNL d   1     -50.899  27.013  33.678  0.00  0.00     0.013 A 
ATOM     13 CL   UNL d   1     -49.621  27.541  33.328  0.00  0.00    -0.082 Cl
ATOM     14  C   UNL d   1     -51.384  26.367  33.848  0.00  0.00     0.026 A 
ENDBRANCH   6   7
ENDBRANCH   5   6
ENDBRANCH   1   5
BRANCH   2  15
ATOM     15  C   UNL d   1     -53.815  24.631  33.481  0.00  0.00     0.067 A 
ATOM     16  C   UNL d   1     -53.437  25.373  33.436  0.00  0.00     0.018 A 
ATOM     17  C   UNL d   1     -53.893  26.049  33.362  0.00  0.00     0.002 A 
ATOM     18  C   UNL d   1     -54.725  25.997  33.332  0.00  0.00     0.000 A 
ATOM     19  C   UNL d   1     -55.107  25.266  33.376  0.00  0.00     0.002 A 
ATOM     20  C   UNL d   1     -54.640  24.575  33.452  0.00  0.00     0.018 A 
ENDBRANCH   2  15
TORSDOF 4
ENDMDL
