MODEL 1
REMARK VINA RESULT:      40.4      0.000      0.000
REMARK  6 active torsions:
REMARK  status: ('A' for Active; 'I' for Inactive)
REMARK    1  A    between atoms: C_2  and  S_1 
REMARK    2  A    between atoms: N_4  and  S_1 
REMARK    3  A    between atoms: C_12  and  N_4 
REMARK    4  A    between atoms: O_14  and  C_6 
REMARK    5  A    between atoms: C_13  and  C_12 
REMARK    6  A    between atoms: C_18  and  O_14 
ROOT
ATOM      1  C   UNL d   1      58.767  49.663  50.927  0.00  0.00     0.107 A 
ATOM      2  C   UNL d   1      58.136  49.650  50.392  0.00  0.00     0.038 A 
ATOM      3  C   UNL d   1      58.620  49.687  51.736  0.00  0.00     0.012 A 
ATOM      4  C   UNL d   1      57.352  49.661  50.674  0.00  0.00     0.101 A 
ATOM      5  C   UNL d   1      57.836  49.699  52.018  0.00  0.00     0.003 A 
ATOM      6  C   UNL d   1      57.206  49.686  51.488  0.00  0.00     0.023 A 
ATOM      7  C   UNL d   1      59.253  49.701  52.274  0.00  0.00     0.001 C 
ATOM      8  C   UNL d   1      56.430  49.697  51.767  0.00  0.00     0.002 C 
ENDROOT
BRANCH   1   9
ATOM      9  S   UNL d   1      59.543  49.651  50.647  0.00  0.00     0.285 S 
ATOM     10  O   UNL d   1      59.266  49.699  49.873  0.00  0.00    -0.198 OA
ATOM     11  O   UNL d   1      59.823  49.604  51.427  0.00  0.00    -0.198 OA
BRANCH   9  12
ATOM     12  N   UNL d   1      60.320  49.640  50.368  0.00  0.00    -0.155 NA
BRANCH  12  13
ATOM     13  C   UNL d   1      60.919  49.307  50.830  0.00  0.00     0.131 C 
BRANCH  13  14
ATOM     14  C   UNL d   1      61.089  48.502  50.765  0.00  0.00     0.101 A 
ATOM     15  N   UNL d   1      61.489  48.217  50.104  0.00  0.00    -0.242 NA
ATOM     16  C   UNL d   1      61.659  47.412  50.039  0.00  0.00     0.099 A 
ATOM     17  C   UNL d   1      61.429  46.893  50.635  0.00  0.00     0.021 A 
ATOM     18  C   UNL d   1      61.027  47.177  51.300  0.00  0.00     0.003 A 
ATOM     19  C   UNL d   1      60.857  47.981  51.365  0.00  0.00     0.021 A 
ENDBRANCH  13  14
ENDBRANCH  12  13
ENDBRANCH   9  12
ENDBRANCH   1   9
BRANCH   4  20
ATOM     20  O   UNL d   1      56.722  49.648  50.143  0.00  0.00    -0.305 OA
BRANCH  20  21
ATOM     21  C   UNL d   1      56.720  49.107  49.523  0.00  0.00     0.123 C 
ATOM     22  C   UNL d   1      56.264  49.253  48.853  0.00  0.00     0.029 C 
ENDBRANCH  20  21
ENDBRANCH   4  20
TORSDOF 6
ENDMDL
