MODEL 1
REMARK VINA RESULT:      48.8      0.000      0.000
REMARK  4 active torsions:
REMARK  status: ('A' for Active; 'I' for Inactive)
REMARK       I    between atoms: N_3  and  C_1 
REMARK    1  A    between atoms: C_13  and  C_1 
REMARK    2  A    between atoms: C_2  and  N_5 
REMARK    3  A    between atoms: C_14  and  N_3 
REMARK    4  A    between atoms: C_4  and  C_14 
REMARK       I    between atoms: N_5  and  C_4 
ROOT
ATOM      1  C   UNL d   1      59.190  49.295  50.580  0.00  0.00     0.299 C 
ATOM      2  N   UNL d   1      58.680  49.706  50.081  0.00  0.00    -0.207 NA
ATOM      3  O   UNL d   1      58.897  48.747  51.123  0.00  0.00    -0.263 OA
ENDROOT
BRANCH   1   4
ATOM      4  C   UNL d   1      60.002  49.432  50.536  0.00  0.00     0.165 C 
BRANCH   4   5
ATOM      5  N   UNL d   1      60.427  49.609  51.224  0.00  0.00    -0.201 NA
ATOM      6  C   UNL d   1      61.131  49.201  51.375  0.00  0.00     0.279 C 
ATOM      7  O   UNL d   1      61.402  48.629  50.846  0.00  0.00    -0.265 OA
BRANCH   6   8
ATOM      8  C   UNL d   1      61.565  49.372  52.062  0.00  0.00     0.058 A 
ATOM      9  C   UNL d   1      62.383  49.464  52.023  0.00  0.00     0.005 A 
ATOM     10  C   UNL d   1      62.802  49.632  52.703  0.00  0.00     0.000 A 
ATOM     11  C   UNL d   1      62.412  49.708  53.426  0.00  0.00     0.000 A 
ATOM     12  C   UNL d   1      61.602  49.617  53.468  0.00  0.00     0.000 A 
ATOM     13  C   UNL d   1      61.175  49.448  52.785  0.00  0.00     0.005 A 
ENDBRANCH   6   8
ENDBRANCH   4   5
ENDBRANCH   1   4
BRANCH   2  14
ATOM     14  C   UNL d   1      57.866  49.566  50.128  0.00  0.00     0.086 A 
ATOM     15  C   UNL d   1      57.446  49.350  49.451  0.00  0.00     0.031 A 
ATOM     16  C   UNL d   1      56.635  49.212  49.511  0.00  0.00     0.060 A 
ATOM     17 CL   UNL d   1      56.282  49.009  48.834  0.00  0.00    -0.082 Cl
ATOM     18  C   UNL d   1      56.245  49.288  50.232  0.00  0.00     0.023 A 
ATOM     19  C   UNL d   1      56.675  49.506  50.908  0.00  0.00     0.060 A 
ATOM     20  C   UNL d   1      57.487  49.645  50.857  0.00  0.00     0.031 A 
ATOM     21 CL   UNL d   1      56.289  49.584  51.636  0.00  0.00    -0.082 Cl
ENDBRANCH   2  14
TORSDOF 4
ENDMDL
MODEL 2
REMARK VINA RESULT:      50.5      1.536      2.150
REMARK  4 active torsions:
REMARK  status: ('A' for Active; 'I' for Inactive)
REMARK       I    between atoms: N_3  and  C_1 
REMARK    1  A    between atoms: C_13  and  C_1 
REMARK    2  A    between atoms: C_2  and  N_5 
REMARK    3  A    between atoms: C_14  and  N_3 
REMARK    4  A    between atoms: C_4  and  C_14 
REMARK       I    between atoms: N_5  and  C_4 
ROOT
ATOM      1  C   UNL d   1      59.231  49.427  50.811  0.00  0.00     0.299 C 
ATOM      2  N   UNL d   1      58.760  49.708  50.196  0.00  0.00    -0.207 NA
ATOM      3  O   UNL d   1      58.892  49.147  51.508  0.00  0.00    -0.263 OA
ENDROOT
BRANCH   1   4
ATOM      4  C   UNL d   1      60.052  49.425  50.727  0.00  0.00     0.165 C 
BRANCH   4   5
ATOM      5  N   UNL d   1      60.431  48.767  50.397  0.00  0.00    -0.201 NA
ATOM      6  C   UNL d   1      60.833  48.245  50.897  0.00  0.00     0.279 C 
ATOM      7  O   UNL d   1      60.854  48.381  51.711  0.00  0.00    -0.265 OA
BRANCH   6   8
ATOM      8  C   UNL d   1      61.216  47.582  50.576  0.00  0.00     0.058 A 
ATOM      9  C   UNL d   1      60.932  46.824  50.732  0.00  0.00     0.005 A 
ATOM     10  C   UNL d   1      61.314  46.177  50.413  0.00  0.00     0.000 A 
ATOM     11  C   UNL d   1      61.980  46.279  49.937  0.00  0.00     0.000 A 
ATOM     12  C   UNL d   1      62.264  47.028  49.780  0.00  0.00     0.000 A 
ATOM     13  C   UNL d   1      61.882  47.683  50.100  0.00  0.00     0.005 A 
ENDBRANCH   6   8
ENDBRANCH   4   5
ENDBRANCH   1   4
BRANCH   2  14
ATOM     14  C   UNL d   1      57.938  49.708  50.284  0.00  0.00     0.086 A 
ATOM     15  C   UNL d   1      57.452  49.708  49.616  0.00  0.00     0.031 A 
ATOM     16  C   UNL d   1      56.634  49.708  49.717  0.00  0.00     0.060 A 
ATOM     17 CL   UNL d   1      56.217  49.708  49.046  0.00  0.00    -0.082 Cl
ATOM     18  C   UNL d   1      56.300  49.708  50.469  0.00  0.00     0.023 A 
ATOM     19  C   UNL d   1      56.795  49.708  51.135  0.00  0.00     0.060 A 
ATOM     20  C   UNL d   1      57.615  49.708  51.044  0.00  0.00     0.031 A 
ATOM     21 CL   UNL d   1      56.466  49.708  51.895  0.00  0.00    -0.082 Cl
ENDBRANCH   2  14
TORSDOF 4
ENDMDL
