MODEL 1
REMARK VINA RESULT:      33.1      0.000      0.000
REMARK  5 active torsions:
REMARK  status: ('A' for Active; 'I' for Inactive)
REMARK    1  A    between atoms: N_19  and  C_6 
REMARK    2  A    between atoms: N_15  and  C_21 
REMARK    3  A    between atoms: C_25  and  N_19 
REMARK    4  A    between atoms: C_21  and  C_22 
REMARK    5  A    between atoms: C_22  and  C_25 
ROOT
ATOM      1  N   UNL d   1     -57.419 -98.762 -44.473  0.00  0.00    -0.183 N 
ATOM      2  C   UNL d   1     -58.244 -98.767 -44.495  0.00  0.00     0.169 A 
ATOM      3  C   UNL d   1     -58.677 -98.768 -43.807  0.00  0.00     0.073 A 
ATOM      4  C   UNL d   1     -58.281 -98.764 -43.096  0.00  0.00     0.185 A 
ATOM      5  N   UNL d   1     -57.457 -98.759 -43.074  0.00  0.00    -0.142 NA
ATOM      6  C   UNL d   1     -57.003 -98.761 -45.171  0.00  0.00     0.218 A 
ATOM      7  N   UNL d   1     -58.631 -98.771 -45.214  0.00  0.00    -0.226 NA
ATOM      8  C   UNL d   1     -59.493 -98.772 -43.829  0.00  0.00     0.007 A 
ATOM      9  N   UNL d   1     -58.706 -98.765 -42.390  0.00  0.00    -0.225 NA
ATOM     10  C   UNL d   1     -57.381 -98.765 -45.885  0.00  0.00     0.071 A 
ATOM     11  C   UNL d   1     -59.927 -98.773 -43.140  0.00  0.00     0.019 A 
ATOM     12  C   UNL d   1     -58.206 -98.770 -45.907  0.00  0.00     0.087 A 
ATOM     13  C   UNL d   1     -59.531 -98.770 -42.412  0.00  0.00     0.083 A 
ATOM     14  C   UNL d   1     -59.880 -98.776 -44.551  0.00  0.00     0.000 C 
ATOM     15  C   UNL d   1     -58.605 -98.774 -46.656  0.00  0.00     0.021 C 
ATOM     16  C   UNL d   1     -59.955 -98.770 -41.723  0.00  0.00     0.021 C 
ENDROOT
BRANCH   6  17
ATOM     17  N   UNL d   1     -56.152 -98.756 -45.139  0.00  0.00    -0.380 NA
BRANCH  17  18
ATOM     18  C   UNL d   1     -55.308 -98.810 -45.144  0.00  0.00     0.164 C 
BRANCH  18  19
ATOM     19  C   UNL d   1     -54.936 -99.564 -45.126  0.00  0.00     0.054 C 
BRANCH  19  20
ATOM     20  C   UNL d   1     -54.842 -99.966 -44.398  0.00  0.00     0.084 C 
BRANCH  20  21
ATOM     21  N   UNL d   1     -54.824-100.811 -44.377  0.00  0.00    -0.285 N 
ATOM     22  C   UNL d   1     -54.763-101.326 -45.036  0.00  0.00     0.183 A 
ATOM     23  N   UNL d   1     -54.767-102.128 -44.744  0.00  0.00    -0.222 NA
ATOM     24  C   UNL d   1     -54.831-102.102 -43.901  0.00  0.00     0.120 A 
ATOM     25  C   UNL d   1     -54.868-101.281 -43.668  0.00  0.00     0.102 A 
ENDBRANCH  20  21
ENDBRANCH  19  20
ENDBRANCH  18  19
ENDBRANCH  17  18
ENDBRANCH   6  17
TORSDOF 5
ENDMDL
