MODEL 1
REMARK VINA RESULT:      -2.0      0.000      0.000
REMARK  5 active torsions:
REMARK  status: ('A' for Active; 'I' for Inactive)
REMARK    1  A    between atoms: C_5  and  N_1 
REMARK    2  A    between atoms: C_2  and  C_7 
REMARK    3  A    between atoms: C_9  and  C_2 
REMARK    4  A    between atoms: C_3  and  C_4 
REMARK    5  A    between atoms: C_7  and  C_8 
ROOT
ATOM      1  C   UNL d   1      29.043  15.879 -23.580  0.00  0.00     0.100 C 
ATOM      2  C   UNL d   1      29.333  15.666 -22.836  0.00  0.00     0.103 C 
ATOM      3  N   UNL d   1      29.622  15.453 -22.090  0.00  0.00    -0.191 NA
ENDROOT
BRANCH   1   4
ATOM      4  C   UNL d   1      29.412  15.605 -24.262  0.00  0.00     0.037 C 
BRANCH   4   5
ATOM      5  C   UNL d   1      30.160  15.885 -24.467  0.00  0.00     0.101 A 
ATOM      6  O   UNL d   1      30.459  16.637 -24.313  0.00  0.00    -0.307 OA
ATOM      7  C   UNL d   1      31.222  16.666 -24.617  0.00  0.00     0.102 A 
ATOM      8  C   UNL d   1      31.398  15.936 -24.959  0.00  0.00     0.027 A 
ATOM      9  C   UNL d   1      30.753  15.453 -24.871  0.00  0.00     0.027 A 
BRANCH   7  10
ATOM     10  C   UNL d   1      31.726  17.317 -24.585  0.00  0.00     0.045 A 
ATOM     11  C   UNL d   1      32.422  17.283 -24.140  0.00  0.00     0.129 A 
ATOM     12  C   UNL d   1      32.927  17.930 -24.105  0.00  0.00     0.024 A 
ATOM     13  C   UNL d   1      32.738  18.622 -24.519  0.00  0.00     0.002 A 
ATOM     14  C   UNL d   1      32.046  18.665 -24.965  0.00  0.00     0.000 A 
ATOM     15  C   UNL d   1      33.241  19.272 -24.487  0.00  0.00     0.000 C 
ATOM     16  C   UNL d   1      31.537  18.009 -24.999  0.00  0.00     0.004 A 
BRANCH  11  17
ATOM     17  N   UNL d   1      32.609  16.592 -23.728  0.00  0.00    -0.114 N 
ATOM     18  O   UNL d   1      32.871  15.924 -24.131  0.00  0.00    -0.532 OA
ATOM     19  O   UNL d   1      32.538  16.563 -22.905  0.00  0.00    -0.532 OA
ENDBRANCH  11  17
ENDBRANCH   7  10
ENDBRANCH   4   5
ENDBRANCH   1   4
BRANCH   1  20
ATOM     20  C   UNL d   1      28.382  16.370 -23.639  0.00  0.00     0.167 C 
ATOM     21  S   UNL d   1      27.695  16.092 -24.005  0.00  0.00    -0.055 SA
ATOM     22  N   UNL d   1      28.406  17.131 -23.335  0.00  0.00    -0.136 N 
ENDBRANCH   1  20
TORSDOF 5
ENDMDL
MODEL 2
REMARK VINA RESULT:      -1.3      2.040      3.847
REMARK  5 active torsions:
REMARK  status: ('A' for Active; 'I' for Inactive)
REMARK    1  A    between atoms: C_5  and  N_1 
REMARK    2  A    between atoms: C_2  and  C_7 
REMARK    3  A    between atoms: C_9  and  C_2 
REMARK    4  A    between atoms: C_3  and  C_4 
REMARK    5  A    between atoms: C_7  and  C_8 
ROOT
ATOM      1  C   UNL d   1      33.221  19.050 -23.844  0.00  0.00     0.100 C 
ATOM      2  C   UNL d   1      33.230  18.714 -23.088  0.00  0.00     0.103 C 
ATOM      3  N   UNL d   1      33.239  18.377 -22.332  0.00  0.00    -0.191 NA
ENDROOT
BRANCH   1   4
ATOM      4  C   UNL d   1      33.241  18.570 -24.511  0.00  0.00     0.037 C 
BRANCH   4   5
ATOM      5  C   UNL d   1      32.639  18.021 -24.642  0.00  0.00     0.101 A 
ATOM      6  O   UNL d   1      31.869  18.062 -24.352  0.00  0.00    -0.307 OA
ATOM      7  C   UNL d   1      31.467  17.399 -24.623  0.00  0.00     0.102 A 
ATOM      8  C   UNL d   1      31.985  16.946 -25.081  0.00  0.00     0.027 A 
ATOM      9  C   UNL d   1      32.703  17.321 -25.097  0.00  0.00     0.027 A 
BRANCH   7  10
ATOM     10  C   UNL d   1      30.680  17.217 -24.464  0.00  0.00     0.045 A 
ATOM     11  C   UNL d   1      30.487  16.524 -24.057  0.00  0.00     0.129 A 
ATOM     12  C   UNL d   1      29.703  16.340 -23.896  0.00  0.00     0.024 A 
ATOM     13  C   UNL d   1      29.100  16.851 -24.144  0.00  0.00     0.002 A 
ATOM     14  C   UNL d   1      29.284  17.544 -24.550  0.00  0.00     0.000 A 
ATOM     15  C   UNL d   1      28.314  16.670 -23.985  0.00  0.00     0.000 C 
ATOM     16  C   UNL d   1      30.078  17.729 -24.712  0.00  0.00     0.004 A 
BRANCH  11  17
ATOM     17  N   UNL d   1      31.088  16.015 -23.810  0.00  0.00    -0.114 N 
ATOM     18  O   UNL d   1      31.295  15.968 -23.014  0.00  0.00    -0.532 OA
ATOM     19  O   UNL d   1      31.490  15.544 -24.358  0.00  0.00    -0.532 OA
ENDBRANCH  11  17
ENDBRANCH   7  10
ENDBRANCH   4   5
ENDBRANCH   1   4
BRANCH   1  20
ATOM     20  C   UNL d   1      33.191  19.870 -23.927  0.00  0.00     0.167 C 
ATOM     21  S   UNL d   1      33.137  20.206 -24.681  0.00  0.00    -0.055 SA
ATOM     22  N   UNL d   1      33.214  20.353 -23.265  0.00  0.00    -0.136 N 
ENDBRANCH   1  20
TORSDOF 5
ENDMDL
MODEL 3
REMARK VINA RESULT:      -0.1      2.622      4.162
REMARK  5 active torsions:
REMARK  status: ('A' for Active; 'I' for Inactive)
REMARK    1  A    between atoms: C_5  and  N_1 
REMARK    2  A    between atoms: C_2  and  C_7 
REMARK    3  A    between atoms: C_9  and  C_2 
REMARK    4  A    between atoms: C_3  and  C_4 
REMARK    5  A    between atoms: C_7  and  C_8 
ROOT
ATOM      1  C   UNL d   1      32.967  20.209 -22.044  0.00  0.00     0.100 C 
ATOM      2  C   UNL d   1      33.104  19.792 -21.342  0.00  0.00     0.103 C 
ATOM      3  N   UNL d   1      33.241  19.376 -20.640  0.00  0.00    -0.191 NA
ENDROOT
BRANCH   1   4
ATOM      4  C   UNL d   1      33.167  19.875 -22.768  0.00  0.00     0.037 C 
BRANCH   4   5
ATOM      5  C   UNL d   1      32.892  19.123 -22.965  0.00  0.00     0.101 A 
ATOM      6  O   UNL d   1      32.229  18.949 -23.422  0.00  0.00    -0.307 OA
ATOM      7  C   UNL d   1      32.171  18.130 -23.471  0.00  0.00     0.102 A 
ATOM      8  C   UNL d   1      32.796  17.796 -23.047  0.00  0.00     0.027 A 
ATOM      9  C   UNL d   1      33.241  18.397 -22.735  0.00  0.00     0.027 A 
BRANCH   7  10
ATOM     10  C   UNL d   1      31.587  17.715 -23.877  0.00  0.00     0.045 A 
ATOM     11  C   UNL d   1      31.793  17.184 -24.475  0.00  0.00     0.129 A 
ATOM     12  C   UNL d   1      31.213  16.768 -24.882  0.00  0.00     0.024 A 
ATOM     13  C   UNL d   1      30.415  16.881 -24.691  0.00  0.00     0.002 A 
ATOM     14  C   UNL d   1      30.200  17.409 -24.095  0.00  0.00     0.000 A 
ATOM     15  C   UNL d   1      29.831  16.467 -25.095  0.00  0.00     0.000 C 
ATOM     16  C   UNL d   1      30.789  17.828 -23.685  0.00  0.00     0.004 A 
BRANCH  11  17
ATOM     17  N   UNL d   1      32.589  17.072 -24.665  0.00  0.00    -0.114 N 
ATOM     18  O   UNL d   1      33.015  17.666 -25.043  0.00  0.00    -0.532 OA
ATOM     19  O   UNL d   1      32.969  16.361 -24.478  0.00  0.00    -0.532 OA
ENDBRANCH  11  17
ENDBRANCH   7  10
ENDBRANCH   4   5
ENDBRANCH   1   4
BRANCH   1  20
ATOM     20  C   UNL d   1      32.630  20.961 -22.015  0.00  0.00     0.167 C 
ATOM     21  S   UNL d   1      32.297  21.237 -21.310  0.00  0.00    -0.055 SA
ATOM     22  N   UNL d   1      32.623  21.435 -22.684  0.00  0.00    -0.136 N 
ENDBRANCH   1  20
TORSDOF 5
ENDMDL
MODEL 4
REMARK VINA RESULT:       0.6      1.717      4.017
REMARK  5 active torsions:
REMARK  status: ('A' for Active; 'I' for Inactive)
REMARK    1  A    between atoms: C_5  and  N_1 
REMARK    2  A    between atoms: C_2  and  C_7 
REMARK    3  A    between atoms: C_9  and  C_2 
REMARK    4  A    between atoms: C_3  and  C_4 
REMARK    5  A    between atoms: C_7  and  C_8 
ROOT
ATOM      1  C   UNL d   1      32.237  17.238 -24.070  0.00  0.00     0.100 C 
ATOM      2  C   UNL d   1      32.054  17.860 -24.583  0.00  0.00     0.103 C 
ATOM      3  N   UNL d   1      31.871  18.483 -25.097  0.00  0.00    -0.191 NA
ENDROOT
BRANCH   1   4
ATOM      4  C   UNL d   1      32.026  16.467 -24.263  0.00  0.00     0.037 C 
BRANCH   4   5
ATOM      5  C   UNL d   1      31.235  16.279 -24.403  0.00  0.00     0.101 A 
ATOM      6  O   UNL d   1      30.603  16.409 -23.891  0.00  0.00    -0.307 OA
ATOM      7  C   UNL d   1      29.923  16.135 -24.262  0.00  0.00     0.102 A 
ATOM      8  C   UNL d   1      30.130  15.836 -25.004  0.00  0.00     0.027 A 
ATOM      9  C   UNL d   1      30.931  15.921 -25.097  0.00  0.00     0.027 A 
BRANCH   7  10
ATOM     10  C   UNL d   1      29.163  16.157 -23.947  0.00  0.00     0.045 A 
ATOM     11  C   UNL d   1      28.732  16.862 -23.947  0.00  0.00     0.129 A 
ATOM     12  C   UNL d   1      27.973  16.887 -23.633  0.00  0.00     0.024 A 
ATOM     13  C   UNL d   1      27.637  16.200 -23.313  0.00  0.00     0.002 A 
ATOM     14  C   UNL d   1      28.060  15.493 -23.308  0.00  0.00     0.000 A 
ATOM     15  C   UNL d   1      26.878  16.221 -22.997  0.00  0.00     0.000 C 
ATOM     16  C   UNL d   1      28.827  15.470 -23.627  0.00  0.00     0.004 A 
BRANCH  11  17
ATOM     17  N   UNL d   1      29.067  17.545 -24.266  0.00  0.00    -0.114 N 
ATOM     18  O   UNL d   1      29.157  17.624 -25.080  0.00  0.00    -0.532 OA
ATOM     19  O   UNL d   1      29.318  18.159 -23.772  0.00  0.00    -0.532 OA
ENDBRANCH  11  17
ENDBRANCH   7  10
ENDBRANCH   4   5
ENDBRANCH   1   4
BRANCH   1  20
ATOM     20  C   UNL d   1      32.632  17.392 -23.363  0.00  0.00     0.167 C 
ATOM     21  S   UNL d   1      33.090  16.800 -23.009  0.00  0.00    -0.055 SA
ATOM     22  N   UNL d   1      32.574  18.130 -23.010  0.00  0.00    -0.136 N 
ENDBRANCH   1  20
TORSDOF 5
ENDMDL
