MODEL 1
REMARK VINA RESULT:       9.7      0.000      0.000
REMARK  1 active torsions:
REMARK  status: ('A' for Active; 'I' for Inactive)
REMARK    1  A    between atoms: O_15  and  C_11 
ROOT
ATOM      1  C   UNL d   1     -50.694  25.881  33.327  0.00  0.00     0.139 A 
ATOM      2  N   UNL d   1     -50.319  25.127  33.333  0.00  0.00    -0.241 NA
ATOM      3  C   UNL d   1     -51.503  25.754  33.319  0.00  0.00     0.025 A 
ATOM      4  C   UNL d   1     -51.648  24.940  33.319  0.00  0.00     0.021 A 
ATOM      5  C   UNL d   1     -50.918  24.564  33.328  0.00  0.00     0.082 A 
ATOM      6  C   UNL d   1     -50.369  26.664  33.328  0.00  0.00     0.297 A 
ATOM      7  N   UNL d   1     -50.881  27.307  33.321  0.00  0.00    -0.205 NA
ATOM      8  C   UNL d   1     -52.334  24.496  33.314  0.00  0.00     0.026 A 
ATOM      9  O   UNL d   1     -49.536  26.778  33.336  0.00  0.00    -0.264 OA
ATOM     10  C   UNL d   1     -50.870  23.743  33.331  0.00  0.00     0.021 A 
ATOM     11  C   UNL d   1     -52.286  23.671  33.316  0.00  0.00     0.094 A 
ATOM     12  C   UNL d   1     -52.029  26.429  33.312  0.00  0.00     0.022 A 
ATOM     13  C   UNL d   1     -51.714  27.192  33.313  0.00  0.00     0.102 A 
ATOM     14  C   UNL d   1     -51.581  23.299  33.325  0.00  0.00     0.026 A 
ENDROOT
BRANCH  11  15
ATOM     15  O   UNL d   1     -52.964  23.193  33.311  0.00  0.00    -0.328 OA
ATOM     16  C   UNL d   1     -53.494  23.191  33.957  0.00  0.00     0.181 C 
ENDBRANCH  11  15
TORSDOF 1
ENDMDL
