MODEL 1
REMARK VINA RESULT:      20.9      0.000      0.000
REMARK  5 active torsions:
REMARK  status: ('A' for Active; 'I' for Inactive)
REMARK    1  A    between atoms: C_13  and  N_2 
REMARK    2  A    between atoms: C_10  and  N_4 
REMARK    3  A    between atoms: C_11  and  C_10 
REMARK       I    between atoms: N_15  and  C_11 
REMARK    4  A    between atoms: C_16  and  N_15 
REMARK    5  A    between atoms: O_21  and  C_19 
ROOT
ATOM      1  C   UNL d   1     -43.565-122.677 -49.610  0.00  0.00     0.172 A 
ATOM      2  N   UNL d   1     -42.376-122.743 -48.802  0.00  0.00    -0.226 N 
ATOM      3  C   UNL d   1     -41.947-122.382 -49.435  0.00  0.00     0.342 A 
ATOM      4  N   UNL d   1     -42.330-122.181 -50.128  0.00  0.00    -0.252 N 
ATOM      5  C   UNL d   1     -43.133-122.325 -50.219  0.00  0.00     0.098 A 
ATOM      6  C   UNL d   1     -43.182-122.885 -48.900  0.00  0.00     0.292 A 
ATOM      7  O   UNL d   1     -44.347-122.756 -49.845  0.00  0.00    -0.301 OA
ATOM      8  C   UNL d   1     -43.671-122.196 -50.824  0.00  0.00     0.041 A 
ATOM      9  C   UNL d   1     -44.406-122.463 -50.583  0.00  0.00     0.102 A 
ATOM     10  O   UNL d   1     -41.123-122.229 -49.354  0.00  0.00    -0.245 OA
ATOM     11  O   UNL d   1     -43.617-123.241 -48.281  0.00  0.00    -0.264 OA
ATOM     12  C   UNL d   1     -43.575-121.859 -51.580  0.00  0.00     0.004 A 
ATOM     13  C   UNL d   1     -45.059-122.399 -51.091  0.00  0.00     0.025 A 
ATOM     14  C   UNL d   1     -44.228-121.796 -52.089  0.00  0.00     0.000 A 
ATOM     15  C   UNL d   1     -44.956-122.067 -51.833  0.00  0.00     0.002 A 
ENDROOT
BRANCH   4  16
ATOM     16  C   UNL d   1     -41.902-121.821 -50.760  0.00  0.00     0.147 C 
BRANCH  16  17
ATOM     17  C   UNL d   1     -41.674-122.294 -51.428  0.00  0.00     0.297 C 
ATOM     18  N   UNL d   1     -41.811-122.020 -52.179  0.00  0.00    -0.207 NA
ATOM     19  O   UNL d   1     -41.317-123.025 -51.297  0.00  0.00    -0.264 OA
BRANCH  18  20
ATOM     20  C   UNL d   1     -41.592-122.474 -52.817  0.00  0.00     0.087 A 
ATOM     21  C   UNL d   1     -41.620-122.142 -53.582  0.00  0.00     0.043 A 
ATOM     22  C   UNL d   1     -41.399-122.598 -54.236  0.00  0.00     0.096 A 
ATOM     23  C   UNL d   1     -41.150-123.386 -54.125  0.00  0.00     0.024 A 
ATOM     24  C   UNL d   1     -41.125-123.711 -53.363  0.00  0.00     0.004 A 
ATOM     25  C   UNL d   1     -41.345-123.256 -52.717  0.00  0.00     0.019 A 
BRANCH  22  26
ATOM     26  O   UNL d   1     -41.424-122.274 -55.007  0.00  0.00    -0.328 OA
ATOM     27  C   UNL d   1     -42.150-122.138 -55.370  0.00  0.00     0.181 C 
ENDBRANCH  22  26
ENDBRANCH  18  20
ENDBRANCH  16  17
ENDBRANCH   4  16
BRANCH   2  28
ATOM     28  C   UNL d   1     -41.999-122.954 -48.090  0.00  0.00     0.071 A 
ATOM     29  C   UNL d   1     -42.125-122.507 -47.409  0.00  0.00     0.018 A 
ATOM     30  C   UNL d   1     -41.744-122.725 -46.701  0.00  0.00     0.002 A 
ATOM     31  C   UNL d   1     -41.255-123.371 -46.687  0.00  0.00     0.000 A 
ATOM     32  C   UNL d   1     -41.128-123.817 -47.368  0.00  0.00     0.002 A 
ATOM     33  C   UNL d   1     -41.502-123.604 -48.062  0.00  0.00     0.018 A 
ENDBRANCH   2  28
TORSDOF 5
ENDMDL
