MODEL 1
REMARK VINA RESULT:      -0.7      0.000      0.000
REMARK  3 active torsions:
REMARK  status: ('A' for Active; 'I' for Inactive)
REMARK    1  A    between atoms: N_5  and  C_1 
REMARK    2  A    between atoms: C_7  and  N_2 
REMARK    3  A    between atoms: C_9  and  C_7 
ROOT
ATOM      1  C   UNL d   1      30.648  16.972 -24.529  0.00  0.00     0.720 A 
ATOM      2  N   UNL d   1      31.348  17.403 -24.629  0.00  0.00    -0.139 N 
ATOM      3  N   UNL d   1      30.826  16.173 -24.635  0.00  0.00    -0.060 NA
ATOM      4  C   UNL d   1      31.956  16.865 -24.795  0.00  0.00     0.100 A 
ATOM      5  C   UNL d   1      31.634  16.107 -24.798  0.00  0.00     0.116 A 
ATOM      6  C   UNL d   1      32.761  16.980 -24.942  0.00  0.00     0.020 A 
ATOM      7  C   UNL d   1      32.114  15.456 -24.950  0.00  0.00     0.021 A 
ATOM      8  C   UNL d   1      33.240  16.330 -25.093  0.00  0.00     0.002 A 
ATOM      9  C   UNL d   1      32.918  15.572 -25.097  0.00  0.00     0.002 A 
ENDROOT
BRANCH   2  10
ATOM     10  C   UNL d   1      31.423  18.226 -24.571  0.00  0.00     0.098 C 
BRANCH  10  11
ATOM     11  C   UNL d   1      31.931  18.549 -24.003  0.00  0.00     0.018 A 
ATOM     12  C   UNL d   1      31.884  18.305 -23.224  0.00  0.00     0.002 A 
ATOM     13  C   UNL d   1      32.391  18.629 -22.660  0.00  0.00     0.000 A 
ATOM     14  C   UNL d   1      32.947  19.199 -22.884  0.00  0.00     0.000 A 
ATOM     15  C   UNL d   1      32.988  19.440 -23.676  0.00  0.00     0.000 A 
ATOM     16  C   UNL d   1      32.480  19.115 -24.235  0.00  0.00     0.002 A 
ENDBRANCH  10  11
ENDBRANCH   2  10
BRANCH   1  17
ATOM     17  N   UNL d   1      29.909  17.293 -24.357  0.00  0.00    -0.136 N 
ATOM     18  C   UNL d   1      29.546  17.817 -24.883  0.00  0.00     0.119 A 
ATOM     19  C   UNL d   1      28.811  18.133 -24.704  0.00  0.00     0.119 A 
ATOM     20  N   UNL d   1      28.431  17.930 -24.001  0.00  0.00    -0.239 NA
ATOM     21  C   UNL d   1      28.794  17.408 -23.475  0.00  0.00     0.119 A 
ATOM     22  C   UNL d   1      29.537  17.084 -23.648  0.00  0.00     0.119 A 
ENDBRANCH   1  17
TORSDOF 3
ENDMDL
MODEL 2
REMARK VINA RESULT:       1.6      3.610      5.203
REMARK  3 active torsions:
REMARK  status: ('A' for Active; 'I' for Inactive)
REMARK    1  A    between atoms: N_5  and  C_1 
REMARK    2  A    between atoms: C_7  and  N_2 
REMARK    3  A    between atoms: C_9  and  C_7 
ROOT
ATOM      1  C   UNL d   1      32.681  21.054 -21.778  0.00  0.00     0.720 A 
ATOM      2  N   UNL d   1      32.988  21.396 -22.466  0.00  0.00    -0.139 N 
ATOM      3  N   UNL d   1      32.501  20.266 -21.946  0.00  0.00    -0.060 NA
ATOM      4  C   UNL d   1      32.996  20.816 -23.057  0.00  0.00     0.100 A 
ATOM      5  C   UNL d   1      32.696  20.119 -22.736  0.00  0.00     0.116 A 
ATOM      6  C   UNL d   1      33.240  20.843 -23.846  0.00  0.00     0.020 A 
ATOM      7  C   UNL d   1      32.638  19.442 -23.200  0.00  0.00     0.021 A 
ATOM      8  C   UNL d   1      33.182  20.167 -24.310  0.00  0.00     0.002 A 
ATOM      9  C   UNL d   1      32.882  19.470 -23.989  0.00  0.00     0.002 A 
ENDROOT
BRANCH   2  10
ATOM     10  C   UNL d   1      33.241  22.181 -22.547  0.00  0.00     0.098 C 
BRANCH  10  11
ATOM     11  C   UNL d   1      32.849  22.683 -23.075  0.00  0.00     0.018 A 
ATOM     12  C   UNL d   1      32.156  23.055 -22.849  0.00  0.00     0.002 A 
ATOM     13  C   UNL d   1      31.767  23.555 -23.378  0.00  0.00     0.000 A 
ATOM     14  C   UNL d   1      32.078  23.678 -24.134  0.00  0.00     0.000 A 
ATOM     15  C   UNL d   1      32.781  23.297 -24.354  0.00  0.00     0.000 A 
ATOM     16  C   UNL d   1      33.165  22.799 -23.824  0.00  0.00     0.002 A 
ENDBRANCH  10  11
ENDBRANCH   2  10
BRANCH   1  17
ATOM     17  N   UNL d   1      32.577  21.440 -21.057  0.00  0.00    -0.136 N 
ATOM     18  C   UNL d   1      33.231  21.659 -20.602  0.00  0.00     0.119 A 
ATOM     19  C   UNL d   1      33.120  22.043 -19.886  0.00  0.00     0.119 A 
ATOM     20  N   UNL d   1      32.359  22.212 -19.617  0.00  0.00    -0.239 NA
ATOM     21  C   UNL d   1      31.706  21.992 -20.073  0.00  0.00     0.119 A 
ATOM     22  C   UNL d   1      31.809  21.604 -20.798  0.00  0.00     0.119 A 
ENDBRANCH   1  17
TORSDOF 3
ENDMDL
MODEL 3
REMARK VINA RESULT:       1.7      4.298      6.164
REMARK  3 active torsions:
REMARK  status: ('A' for Active; 'I' for Inactive)
REMARK    1  A    between atoms: N_5  and  C_1 
REMARK    2  A    between atoms: C_7  and  N_2 
REMARK    3  A    between atoms: C_9  and  C_7 
ROOT
ATOM      1  C   UNL d   1      32.433  23.204 -22.069  0.00  0.00     0.720 A 
ATOM      2  N   UNL d   1      32.869  22.589 -22.410  0.00  0.00    -0.139 N 
ATOM      3  N   UNL d   1      32.171  23.696 -22.677  0.00  0.00    -0.060 NA
ATOM      4  C   UNL d   1      32.873  22.705 -23.230  0.00  0.00     0.100 A 
ATOM      5  C   UNL d   1      32.442  23.388 -23.395  0.00  0.00     0.116 A 
ATOM      6  C   UNL d   1      33.218  22.269 -23.842  0.00  0.00     0.020 A 
ATOM      7  C   UNL d   1      32.352  23.641 -24.172  0.00  0.00     0.021 A 
ATOM      8  C   UNL d   1      33.128  22.522 -24.618  0.00  0.00     0.002 A 
ATOM      9  C   UNL d   1      32.697  23.205 -24.783  0.00  0.00     0.002 A 
ENDROOT
BRANCH   2  10
ATOM     10  C   UNL d   1      33.235  21.968 -22.002  0.00  0.00     0.098 C 
BRANCH  10  11
ATOM     11  C   UNL d   1      33.011  21.188 -22.161  0.00  0.00     0.018 A 
ATOM     12  C   UNL d   1      33.240  20.829 -22.859  0.00  0.00     0.002 A 
ATOM     13  C   UNL d   1      33.015  20.051 -23.015  0.00  0.00     0.000 A 
ATOM     14  C   UNL d   1      32.558  19.636 -22.465  0.00  0.00     0.000 A 
ATOM     15  C   UNL d   1      32.330  20.008 -21.760  0.00  0.00     0.000 A 
ATOM     16  C   UNL d   1      32.556  20.783 -21.608  0.00  0.00     0.002 A 
ENDBRANCH  10  11
ENDBRANCH   2  10
BRANCH   1  17
ATOM     17  N   UNL d   1      32.292  23.300 -21.262  0.00  0.00    -0.136 N 
ATOM     18  C   UNL d   1      31.519  23.358 -20.976  0.00  0.00     0.119 A 
ATOM     19  C   UNL d   1      31.386  23.453 -20.173  0.00  0.00     0.119 A 
ATOM     20  N   UNL d   1      32.021  23.490 -19.648  0.00  0.00    -0.239 NA
ATOM     21  C   UNL d   1      32.793  23.432 -19.934  0.00  0.00     0.119 A 
ATOM     22  C   UNL d   1      32.936  23.336 -20.745  0.00  0.00     0.119 A 
ENDBRANCH   1  17
TORSDOF 3
ENDMDL
