MODEL 1
REMARK VINA RESULT:      -5.8      0.000      0.000
REMARK  4 active torsions:
REMARK  status: ('A' for Active; 'I' for Inactive)
REMARK    1  A    between atoms: C_7  and  C_5 
REMARK    2  A    between atoms: C_8  and  C_7 
REMARK    3  A    between atoms: C_10  and  C_8 
REMARK    4  A    between atoms: O_18  and  C_11 
ROOT
ATOM      1  C   UNL d   1      58.680  -1.005  29.363  0.00  0.00     0.303 A 
ATOM      2  N   UNL d   1      58.692   0.298  30.380  0.00  0.00    -0.222 NA
ATOM      3  O   UNL d   1      58.042  -0.870  29.870  0.00  0.00    -0.255 OA
ATOM      4  C   UNL d   1      59.325  -0.487  29.365  0.00  0.00     0.081 A 
ATOM      5  C   UNL d   1      58.048  -0.222  30.375  0.00  0.00     0.186 A 
ATOM      6  C   UNL d   1      59.331   0.160  29.870  0.00  0.00     0.089 A 
ATOM      7  O   UNL d   1      58.674  -1.658  28.852  0.00  0.00    -0.259 OA
ATOM      8  C   UNL d   1      59.956  -0.624  28.860  0.00  0.00     0.007 A 
ATOM      9  C   UNL d   1      59.968   0.679  29.877  0.00  0.00     0.019 A 
ATOM     10  C   UNL d   1      60.601  -0.106  28.862  0.00  0.00     0.000 A 
ATOM     11  C   UNL d   1      60.606   0.541  29.368  0.00  0.00     0.002 A 
ENDROOT
BRANCH   5  12
ATOM     12  C   UNL d   1      57.398  -0.075  30.899  0.00  0.00     0.045 C 
BRANCH  12  13
ATOM     13  C   UNL d   1      57.309  -0.540  31.574  0.00  0.00     0.004 C 
BRANCH  13  14
ATOM     14  C   UNL d   1      56.697  -0.391  32.106  0.00  0.00     0.000 A 
ATOM     15  C   UNL d   1      56.490   0.381  32.292  0.00  0.00     0.002 A 
ATOM     16  C   UNL d   1      55.878   0.530  32.825  0.00  0.00     0.024 A 
ATOM     17  C   UNL d   1      55.470  -0.102  33.172  0.00  0.00     0.094 A 
ATOM     18  C   UNL d   1      55.679  -0.879  32.983  0.00  0.00     0.024 A 
ATOM     19  C   UNL d   1      56.289  -1.024  32.453  0.00  0.00     0.002 A 
BRANCH  17  20
ATOM     20  O   UNL d   1      54.849   0.056  33.712  0.00  0.00    -0.328 OA
ATOM     21  C   UNL d   1      54.967   0.557  34.353  0.00  0.00     0.181 C 
ENDBRANCH  17  20
ENDBRANCH  13  14
ENDBRANCH  12  13
ENDBRANCH   5  12
TORSDOF 4
ENDMDL
MODEL 2
REMARK VINA RESULT:      -5.3      1.286      4.965
REMARK  4 active torsions:
REMARK  status: ('A' for Active; 'I' for Inactive)
REMARK    1  A    between atoms: C_7  and  C_5 
REMARK    2  A    between atoms: C_8  and  C_7 
REMARK    3  A    between atoms: C_10  and  C_8 
REMARK    4  A    between atoms: O_18  and  C_11 
ROOT
ATOM      1  C   UNL d   1      56.132  -1.428  32.583  0.00  0.00     0.303 A 
ATOM      2  N   UNL d   1      56.548   0.052  31.976  0.00  0.00    -0.222 NA
ATOM      3  O   UNL d   1      56.663  -1.374  31.952  0.00  0.00    -0.255 OA
ATOM      4  C   UNL d   1      55.809  -0.741  32.911  0.00  0.00     0.081 A 
ATOM      5  C   UNL d   1      56.869  -0.638  31.651  0.00  0.00     0.186 A 
ATOM      6  C   UNL d   1      56.015  -0.006  32.609  0.00  0.00     0.089 A 
ATOM      7  O   UNL d   1      55.923  -2.171  32.888  0.00  0.00    -0.259 OA
ATOM      8  C   UNL d   1      55.282  -0.799  33.537  0.00  0.00     0.007 A 
ATOM      9  C   UNL d   1      55.698   0.682  32.930  0.00  0.00     0.019 A 
ATOM     10  C   UNL d   1      54.960  -0.112  33.864  0.00  0.00     0.000 A 
ATOM     11  C   UNL d   1      55.166   0.623  33.563  0.00  0.00     0.002 A 
ENDROOT
BRANCH   5  12
ATOM     12  C   UNL d   1      57.413  -0.572  31.004  0.00  0.00     0.045 C 
BRANCH  12  13
ATOM     13  C   UNL d   1      57.775   0.153  30.854  0.00  0.00     0.004 C 
BRANCH  13  14
ATOM     14  C   UNL d   1      58.353   0.217  30.268  0.00  0.00     0.000 A 
ATOM     15  C   UNL d   1      58.190  -0.020  29.500  0.00  0.00     0.002 A 
ATOM     16  C   UNL d   1      58.768   0.044  28.914  0.00  0.00     0.024 A 
ATOM     17  C   UNL d   1      59.515   0.350  29.104  0.00  0.00     0.094 A 
ATOM     18  C   UNL d   1      59.677   0.588  29.877  0.00  0.00     0.024 A 
ATOM     19  C   UNL d   1      59.100   0.523  30.458  0.00  0.00     0.002 A 
BRANCH  17  20
ATOM     20  O   UNL d   1      60.097   0.412  28.504  0.00  0.00    -0.328 OA
ATOM     21  C   UNL d   1      60.748  -0.090  28.498  0.00  0.00     0.181 C 
ENDBRANCH  17  20
ENDBRANCH  13  14
ENDBRANCH  12  13
ENDBRANCH   5  12
TORSDOF 4
ENDMDL
MODEL 3
REMARK VINA RESULT:      -3.7      1.415      5.272
REMARK  4 active torsions:
REMARK  status: ('A' for Active; 'I' for Inactive)
REMARK    1  A    between atoms: C_7  and  C_5 
REMARK    2  A    between atoms: C_8  and  C_7 
REMARK    3  A    between atoms: C_10  and  C_8 
REMARK    4  A    between atoms: O_18  and  C_11 
ROOT
ATOM      1  C   UNL d   1      54.984   0.667  33.615  0.00  0.00     0.303 A 
ATOM      2  N   UNL d   1      56.635   0.673  33.692  0.00  0.00    -0.222 NA
ATOM      3  O   UNL d   1      55.430   0.665  32.920  0.00  0.00    -0.255 OA
ATOM      4  C   UNL d   1      55.364   0.672  34.350  0.00  0.00     0.081 A 
ATOM      5  C   UNL d   1      56.251   0.668  32.958  0.00  0.00     0.186 A 
ATOM      6  C   UNL d   1      56.185   0.675  34.388  0.00  0.00     0.089 A 
ATOM      7  O   UNL d   1      54.156   0.664  33.577  0.00  0.00    -0.259 OA
ATOM      8  C   UNL d   1      54.918   0.674  35.038  0.00  0.00     0.007 A 
ATOM      9  C   UNL d   1      56.569   0.680  35.114  0.00  0.00     0.019 A 
ATOM     10  C   UNL d   1      55.299   0.679  35.771  0.00  0.00     0.000 A 
ATOM     11  C   UNL d   1      56.119   0.682  35.809  0.00  0.00     0.002 A 
ENDROOT
BRANCH   5  12
ATOM     12  C   UNL d   1      56.718   0.666  32.251  0.00  0.00     0.045 C 
BRANCH  12  13
ATOM     13  C   UNL d   1      56.897  -0.052  31.887  0.00  0.00     0.004 C 
BRANCH  13  14
ATOM     14  C   UNL d   1      57.374  -0.070  31.214  0.00  0.00     0.000 A 
ATOM     15  C   UNL d   1      57.646   0.629  30.881  0.00  0.00     0.002 A 
ATOM     16  C   UNL d   1      58.124   0.610  30.208  0.00  0.00     0.024 A 
ATOM     17  C   UNL d   1      58.329  -0.118  29.869  0.00  0.00     0.094 A 
ATOM     18  C   UNL d   1      58.055  -0.820  30.206  0.00  0.00     0.024 A 
ATOM     19  C   UNL d   1      57.580  -0.798  30.875  0.00  0.00     0.002 A 
BRANCH  17  20
ATOM     20  O   UNL d   1      58.815  -0.131  29.185  0.00  0.00    -0.328 OA
ATOM     21  C   UNL d   1      58.933  -0.829  28.768  0.00  0.00     0.181 C 
ENDBRANCH  17  20
ENDBRANCH  13  14
ENDBRANCH  12  13
ENDBRANCH   5  12
TORSDOF 4
ENDMDL
