MODEL 1
REMARK VINA RESULT:      12.0      0.000      0.000
REMARK  4 active torsions:
REMARK  status: ('A' for Active; 'I' for Inactive)
REMARK    1  A    between atoms: C_9  and  C_4 
REMARK    2  A    between atoms: C_7  and  C_11 
REMARK    3  A    between atoms: O_12  and  C_7 
REMARK    4  A    between atoms: C_11  and  C_9 
ROOT
ATOM      1  N   UNL d   1     -52.365  24.838  33.306  0.00  0.00    -0.239 NA
ATOM      2  N   UNL d   1     -50.712  24.787  33.307  0.00  0.00    -0.205 NA
ATOM      3  C   UNL d   1     -51.149  24.087  33.307  0.00  0.00     0.297 A 
ATOM      4  C   UNL d   1     -51.981  24.111  33.306  0.00  0.00     0.139 A 
ATOM      5  C   UNL d   1     -51.928  25.535  33.306  0.00  0.00     0.099 A 
ATOM      6  C   UNL d   1     -51.103  25.512  33.307  0.00  0.00     0.102 A 
ATOM      7  O   UNL d   1     -50.764  23.355  33.307  0.00  0.00    -0.264 OA
ATOM      8  C   UNL d   1     -52.321  26.263  33.306  0.00  0.00     0.021 A 
ATOM      9  C   UNL d   1     -50.671  26.217  33.307  0.00  0.00     0.021 A 
ATOM     10  C   UNL d   1     -51.063  26.940  33.307  0.00  0.00     0.002 A 
ATOM     11  C   UNL d   1     -51.888  26.963  33.306  0.00  0.00     0.002 A 
ENDROOT
BRANCH   4  12
ATOM     12  C   UNL d   1     -52.413  23.410  33.306  0.00  0.00     0.029 C 
BRANCH  12  13
ATOM     13  C   UNL d   1     -52.840  23.188  33.971  0.00  0.00     0.070 C 
BRANCH  13  14
ATOM     14  C   UNL d   1     -53.646  23.372  34.020  0.00  0.00     0.296 C 
ATOM     15  O   UNL d   1     -54.136  23.286  33.362  0.00  0.00    -0.259 OA
BRANCH  14  16
ATOM     16  O   UNL d   1     -53.962  23.644  34.738  0.00  0.00    -0.296 OA
ATOM     17  C   UNL d   1     -53.871  23.198  35.426  0.00  0.00     0.185 C 
ENDBRANCH  14  16
ENDBRANCH  13  14
ENDBRANCH  12  13
ENDBRANCH   4  12
TORSDOF 4
ENDMDL
