MODEL 1
REMARK VINA RESULT:      42.8      0.000      0.000
REMARK  4 active torsions:
REMARK  status: ('A' for Active; 'I' for Inactive)
REMARK    1  A    between atoms: S_4  and  C_8 
REMARK    2  A    between atoms: N_9  and  S_4 
REMARK    3  A    between atoms: C_16  and  N_9 
REMARK    4  A    between atoms: C_12  and  C_16 
ROOT
ATOM      1  C   UNL d   1     -52.602  23.962  33.356  0.00  0.00     0.339 A 
ATOM      2  N   UNL d   1     -51.805  24.151  33.384  0.00  0.00    -0.256 N 
ATOM      3  N   UNL d   1     -53.037  24.664  33.336  0.00  0.00    -0.256 N 
ATOM      4  C   UNL d   1     -51.745  24.982  33.380  0.00  0.00     0.085 A 
ATOM      5  C   UNL d   1     -52.508  25.295  33.350  0.00  0.00     0.085 A 
ATOM      6  C   UNL d   1     -51.084  25.492  33.400  0.00  0.00     0.033 A 
ATOM      7  C   UNL d   1     -51.193  26.310  33.390  0.00  0.00     0.118 A 
ATOM      8  C   UNL d   1     -52.609  26.117  33.341  0.00  0.00     0.020 A 
ATOM      9  O   UNL d   1     -52.922  23.188  33.350  0.00  0.00    -0.245 OA
ATOM     10  C   UNL d   1     -51.955  26.622  33.361  0.00  0.00     0.016 A 
ATOM     11  C   UNL d   1     -51.183  23.598  33.410  0.00  0.00     0.104 C 
ATOM     12  C   UNL d   1     -53.861  24.714  33.306  0.00  0.00     0.104 C 
ENDROOT
BRANCH   7  13
ATOM     13  S   UNL d   1     -50.539  26.815  33.410  0.00  0.00     0.327 S 
ATOM     14  O   UNL d   1     -50.039  26.164  33.514  0.00  0.00    -0.186 OA
ATOM     15  O   UNL d   1     -51.037  27.465  33.306  0.00  0.00    -0.186 OA
BRANCH  13  16
ATOM     16  N   UNL d   1     -49.885  27.319  33.430  0.00  0.00    -0.312 NA
BRANCH  16  17
ATOM     17  C   UNL d   1     -49.231  27.824  33.450  0.00  0.00     0.200 C 
BRANCH  17  18
ATOM     18  C   UNL d   1     -48.904  28.049  34.173  0.00  0.00     0.133 A 
ATOM     19  O   UNL d   1     -49.013  27.665  34.901  0.00  0.00    -0.302 OA
ATOM     20  C   UNL d   1     -48.594  28.065  35.478  0.00  0.00     0.123 A 
ATOM     21  C   UNL d   1     -48.215  28.709  35.112  0.00  0.00     0.029 A 
ATOM     22  C   UNL d   1     -48.410  28.693  34.312  0.00  0.00     0.029 A 
ENDBRANCH  17  18
ENDBRANCH  16  17
ENDBRANCH  13  16
ENDBRANCH   7  13
TORSDOF 4
ENDMDL
MODEL 2
REMARK VINA RESULT:      42.8      0.580      1.333
REMARK  4 active torsions:
REMARK  status: ('A' for Active; 'I' for Inactive)
REMARK    1  A    between atoms: S_4  and  C_8 
REMARK    2  A    between atoms: N_9  and  S_4 
REMARK    3  A    between atoms: C_16  and  N_9 
REMARK    4  A    between atoms: C_12  and  C_16 
ROOT
ATOM      1  C   UNL d   1     -52.869  24.368  33.313  0.00  0.00     0.339 A 
ATOM      2  N   UNL d   1     -52.759  25.181  33.319  0.00  0.00    -0.256 N 
ATOM      3  N   UNL d   1     -52.128  24.003  33.312  0.00  0.00    -0.256 N 
ATOM      4  C   UNL d   1     -51.938  25.321  33.322  0.00  0.00     0.085 A 
ATOM      5  C   UNL d   1     -51.552  24.592  33.318  0.00  0.00     0.085 A 
ATOM      6  C   UNL d   1     -51.495  26.029  33.329  0.00  0.00     0.033 A 
ATOM      7  C   UNL d   1     -50.670  26.000  33.331  0.00  0.00     0.118 A 
ATOM      8  C   UNL d   1     -50.724  24.571  33.321  0.00  0.00     0.020 A 
ATOM      9  O   UNL d   1     -53.608  23.975  33.308  0.00  0.00    -0.245 OA
ATOM     10  C   UNL d   1     -50.285  25.271  33.327  0.00  0.00     0.016 A 
ATOM     11  C   UNL d   1     -53.370  25.746  33.321  0.00  0.00     0.104 C 
ATOM     12  C   UNL d   1     -51.998  23.188  33.307  0.00  0.00     0.104 C 
ENDROOT
BRANCH   7  13
ATOM     13  S   UNL d   1     -50.231  26.701  33.338  0.00  0.00     0.327 S 
ATOM     14  O   UNL d   1     -50.932  27.140  33.341  0.00  0.00    -0.186 OA
ATOM     15  O   UNL d   1     -49.531  26.262  33.335  0.00  0.00    -0.186 OA
BRANCH  13  16
ATOM     16  N   UNL d   1     -49.793  27.401  33.344  0.00  0.00    -0.312 NA
BRANCH  16  17
ATOM     17  C   UNL d   1     -49.355  28.101  33.351  0.00  0.00     0.200 C 
BRANCH  17  18
ATOM     18  C   UNL d   1     -48.973  28.344  34.041  0.00  0.00     0.133 A 
ATOM     19  O   UNL d   1     -48.981  27.948  34.771  0.00  0.00    -0.302 OA
ATOM     20  C   UNL d   1     -48.536  28.373  35.309  0.00  0.00     0.123 A 
ATOM     21  C   UNL d   1     -48.243  29.045  34.916  0.00  0.00     0.029 A 
ATOM     22  C   UNL d   1     -48.515  29.021  34.139  0.00  0.00     0.029 A 
ENDBRANCH  17  18
ENDBRANCH  16  17
ENDBRANCH  13  16
ENDBRANCH   7  13
TORSDOF 4
ENDMDL
