MODEL 1
REMARK VINA RESULT:      55.0      0.000      0.000
REMARK  5 active torsions:
REMARK  status: ('A' for Active; 'I' for Inactive)
REMARK    1  A    between atoms: O_4  and  C_1 
REMARK    2  A    between atoms: C_9  and  C_2 
REMARK    3  A    between atoms: C_5  and  O_4 
REMARK    4  A    between atoms: C_12  and  C_5 
REMARK    5  A    between atoms: N_10  and  C_9 
ROOT
ATOM      1  C   UNL d   1      14.322  13.856  -2.028  0.00  0.00     0.122 A 
ATOM      2  C   UNL d   1      13.684  13.426  -2.325  0.00  0.00     0.043 A 
ATOM      3  C   UNL d   1      14.719  13.592  -1.355  0.00  0.00     0.105 A 
ATOM      4  C   UNL d   1      14.478  12.900  -0.979  0.00  0.00     0.030 A 
ATOM      5  C   UNL d   1      13.843  12.478  -1.280  0.00  0.00     0.059 A 
ATOM      6  C   UNL d   1      13.443  12.733  -1.949  0.00  0.00     0.015 A 
ATOM      7  N   UNL d   1      15.351  14.022  -1.064  0.00  0.00    -0.242 NA
ATOM      8 CL   UNL d   1      13.617  11.779  -0.882  0.00  0.00    -0.082 Cl
ATOM      9  C   UNL d   1      14.872  12.644  -0.315  0.00  0.00     0.004 A 
ATOM     10  C   UNL d   1      15.748  13.758  -0.390  0.00  0.00     0.099 A 
ATOM     11  C   UNL d   1      15.507  13.066  -0.014  0.00  0.00     0.021 A 
ENDROOT
BRANCH   1  12
ATOM     12  O   UNL d   1      14.549  14.485  -2.362  0.00  0.00    -0.271 OA
BRANCH  12  13
ATOM     13  C   UNL d   1      14.501  15.443  -2.263  0.00  0.00     0.300 C 
ATOM     14  O   UNL d   1      14.129  15.747  -1.382  0.00  0.00    -0.259 OA
BRANCH  13  15
ATOM     15  C   UNL d   1      14.751  15.948  -2.864  0.00  0.00     0.064 A 
ATOM     16  C   UNL d   1      14.501  15.816  -3.646  0.00  0.00     0.008 A 
ATOM     17  C   UNL d   1      14.756  16.330  -4.252  0.00  0.00     0.030 A 
ATOM     18  C   UNL d   1      15.258  16.974  -4.078  0.00  0.00     0.140 A 
ATOM     19  C   UNL d   1      15.505  17.102  -3.296  0.00  0.00     0.030 A 
ATOM     20  F   UNL d   1      15.436  17.340  -4.527  0.00  0.00    -0.204 F 
ATOM     21  C   UNL d   1      15.250  16.588  -2.691  0.00  0.00     0.008 A 
ENDBRANCH  13  15
ENDBRANCH  12  13
ENDBRANCH   1  12
BRANCH   2  22
ATOM     22  C   UNL d   1      13.135  13.555  -3.039  0.00  0.00     0.082 C 
BRANCH  22  23
ATOM     23  N   UNL d   1      13.213  13.074  -3.700  0.00  0.00    -0.299 N 
ATOM     24  C   UNL d   1      13.287  13.411  -4.440  0.00  0.00     0.107 A 
ATOM     25  C   UNL d   1      13.366  12.938  -5.114  0.00  0.00     0.142 A 
ATOM     26  O   UNL d   1      13.369  12.127  -5.031  0.00  0.00    -0.300 OA
ATOM     27  C   UNL d   1      13.294  11.782  -4.281  0.00  0.00     0.142 A 
ATOM     28  C   UNL d   1      13.217  12.264  -3.623  0.00  0.00     0.107 A 
ENDBRANCH  22  23
ENDBRANCH   2  22
TORSDOF 5
ENDMDL
MODEL 2
REMARK VINA RESULT:      55.9      1.378      3.144
REMARK  5 active torsions:
REMARK  status: ('A' for Active; 'I' for Inactive)
REMARK    1  A    between atoms: O_4  and  C_1 
REMARK    2  A    between atoms: C_9  and  C_2 
REMARK    3  A    between atoms: C_5  and  O_4 
REMARK    4  A    between atoms: C_12  and  C_5 
REMARK    5  A    between atoms: N_10  and  C_9 
ROOT
ATOM      1  C   UNL d   1      14.130  13.906  -3.085  0.00  0.00     0.122 A 
ATOM      2  C   UNL d   1      14.066  13.495  -2.373  0.00  0.00     0.043 A 
ATOM      3  C   UNL d   1      13.774  13.607  -3.767  0.00  0.00     0.105 A 
ATOM      4  C   UNL d   1      13.355  12.899  -3.736  0.00  0.00     0.030 A 
ATOM      5  C   UNL d   1      13.296  12.496  -3.024  0.00  0.00     0.059 A 
ATOM      6  C   UNL d   1      13.646  12.786  -2.343  0.00  0.00     0.015 A 
ATOM      7  N   UNL d   1      13.840  14.018  -4.471  0.00  0.00    -0.242 NA
ATOM      8 CL   UNL d   1      12.866  11.780  -3.018  0.00  0.00    -0.082 Cl
ATOM      9  C   UNL d   1      13.005  12.608  -4.410  0.00  0.00     0.004 A 
ATOM     10  C   UNL d   1      13.484  13.719  -5.152  0.00  0.00     0.099 A 
ATOM     11  C   UNL d   1      13.065  13.010  -5.122  0.00  0.00     0.021 A 
ENDROOT
BRANCH   1  12
ATOM     12  O   UNL d   1      14.508  14.550  -3.124  0.00  0.00    -0.271 OA
BRANCH  12  13
ATOM     13  C   UNL d   1      14.366  15.503  -3.098  0.00  0.00     0.300 C 
ATOM     14  O   UNL d   1      13.770  15.850  -3.828  0.00  0.00    -0.259 OA
BRANCH  13  15
ATOM     15  C   UNL d   1      14.714  15.972  -2.517  0.00  0.00     0.064 A 
ATOM     16  C   UNL d   1      15.398  16.412  -2.695  0.00  0.00     0.008 A 
ATOM     17  C   UNL d   1      15.748  16.886  -2.104  0.00  0.00     0.030 A 
ATOM     18  C   UNL d   1      15.417  16.921  -1.338  0.00  0.00     0.140 A 
ATOM     19  C   UNL d   1      14.735  16.481  -1.165  0.00  0.00     0.030 A 
ATOM     20  F   UNL d   1      15.681  17.269  -0.918  0.00  0.00    -0.204 F 
ATOM     21  C   UNL d   1      14.386  16.008  -1.756  0.00  0.00     0.008 A 
ENDBRANCH  13  15
ENDBRANCH  12  13
ENDBRANCH   1  12
BRANCH   2  22
ATOM     22  C   UNL d   1      14.382  13.663  -1.537  0.00  0.00     0.082 C 
BRANCH  22  23
ATOM     23  N   UNL d   1      14.586  13.035  -1.049  0.00  0.00    -0.299 N 
ATOM     24  C   UNL d   1      14.042  12.746  -0.512  0.00  0.00     0.107 A 
ATOM     25  C   UNL d   1      14.233  12.114  -0.014  0.00  0.00     0.142 A 
ATOM     26  O   UNL d   1      14.975  11.780  -0.066  0.00  0.00    -0.300 OA
ATOM     27  C   UNL d   1      15.529  12.070  -0.610  0.00  0.00     0.142 A 
ATOM     28  C   UNL d   1      15.324  12.697  -1.096  0.00  0.00     0.107 A 
ENDBRANCH  22  23
ENDBRANCH   2  22
TORSDOF 5
ENDMDL
