MODEL 1
REMARK VINA RESULT:      -7.0      0.000      0.000
REMARK  3 active torsions:
REMARK  status: ('A' for Active; 'I' for Inactive)
REMARK    1  A    between atoms: C_9  and  C_1 
REMARK       I    between atoms: C_4  and  N_8 
REMARK    2  A    between atoms: C_5  and  C_4 
REMARK    3  A    between atoms: N_8  and  C_17 
ROOT
ATOM      1  C   UNL d   1     -41.446-122.744 -52.045  0.00  0.00     0.036 A 
ATOM      2  C   UNL d   1     -41.379-123.499 -51.749  0.00  0.00     0.005 A 
ATOM      3  C   UNL d   1     -41.434-122.096 -51.554  0.00  0.00     0.005 A 
ATOM      4  C   UNL d   1     -41.286-122.958 -50.436  0.00  0.00     0.085 A 
ATOM      5  C   UNL d   1     -41.297-123.605 -50.926  0.00  0.00     0.019 A 
ATOM      6  C   UNL d   1     -41.356-122.175 -50.749  0.00  0.00     0.019 A 
ENDROOT
BRANCH   1   7
ATOM      7  C   UNL d   1     -41.527-122.638 -52.867  0.00  0.00     0.162 A 
ATOM      8  N   UNL d   1     -41.124-123.002 -53.501  0.00  0.00    -0.225 NA
ATOM      9  C   UNL d   1     -41.429-122.687 -54.182  0.00  0.00     0.101 A 
ATOM     10  C   UNL d   1     -41.263-122.819 -54.989  0.00  0.00     0.021 A 
ATOM     11  C   UNL d   1     -42.010-122.138 -53.966  0.00  0.00     0.101 A 
ATOM     12  C   UNL d   1     -41.675-122.404 -55.570  0.00  0.00     0.002 A 
ATOM     13  C   UNL d   1     -42.256-121.855 -55.355  0.00  0.00     0.002 A 
ATOM     14  C   UNL d   1     -42.426-121.720 -54.559  0.00  0.00     0.021 A 
ATOM     15  N   UNL d   1     -42.056-122.121 -53.156  0.00  0.00    -0.225 NA
ENDBRANCH   1   7
BRANCH   4  16
ATOM     16  N   UNL d   1     -41.204-123.063 -49.614  0.00  0.00    -0.206 NA
ATOM     17  C   UNL d   1     -41.870-123.126 -49.122  0.00  0.00     0.302 C 
ATOM     18  O   UNL d   1     -42.609-123.083 -49.452  0.00  0.00    -0.263 OA
BRANCH  17  19
ATOM     19  C   UNL d   1     -41.806-123.228 -48.317  0.00  0.00     0.158 A 
ATOM     20  O   UNL d   1     -41.127-123.198 -47.867  0.00  0.00    -0.300 OA
ATOM     21  C   UNL d   1     -41.341-123.338 -47.068  0.00  0.00     0.123 A 
ATOM     22  C   UNL d   1     -42.119-123.449 -47.029  0.00  0.00     0.029 A 
ATOM     23  C   UNL d   1     -42.432-123.389 -47.774  0.00  0.00     0.032 A 
ENDBRANCH  17  19
ENDBRANCH   4  16
TORSDOF 3
ENDMDL
MODEL 2
REMARK VINA RESULT:      -6.8      1.540      5.479
REMARK  3 active torsions:
REMARK  status: ('A' for Active; 'I' for Inactive)
REMARK    1  A    between atoms: C_9  and  C_1 
REMARK       I    between atoms: C_4  and  N_8 
REMARK    2  A    between atoms: C_5  and  C_4 
REMARK    3  A    between atoms: N_8  and  C_17 
ROOT
ATOM      1  C   UNL d   1     -41.561-122.943 -50.763  0.00  0.00     0.036 A 
ATOM      2  C   UNL d   1     -41.474-122.174 -51.017  0.00  0.00     0.005 A 
ATOM      3  C   UNL d   1     -41.559-123.562 -51.288  0.00  0.00     0.005 A 
ATOM      4  C   UNL d   1     -41.378-122.645 -52.356  0.00  0.00     0.085 A 
ATOM      5  C   UNL d   1     -41.381-122.026 -51.832  0.00  0.00     0.019 A 
ATOM      6  C   UNL d   1     -41.470-123.442 -52.088  0.00  0.00     0.019 A 
ENDROOT
BRANCH   1   7
ATOM      7  C   UNL d   1     -41.654-123.091 -49.950  0.00  0.00     0.162 A 
ATOM      8  N   UNL d   1     -41.123-123.422 -49.396  0.00  0.00    -0.225 NA
ATOM      9  C   UNL d   1     -41.508-123.434 -48.684  0.00  0.00     0.101 A 
ATOM     10  C   UNL d   1     -41.280-123.695 -47.924  0.00  0.00     0.021 A 
ATOM     11  C   UNL d   1     -42.263-123.116 -48.800  0.00  0.00     0.101 A 
ATOM     12  C   UNL d   1     -41.806-123.635 -47.291  0.00  0.00     0.002 A 
ATOM     13  C   UNL d   1     -42.561-123.316 -47.407  0.00  0.00     0.002 A 
ATOM     14  C   UNL d   1     -42.792-123.057 -48.156  0.00  0.00     0.021 A 
ATOM     15  N   UNL d   1     -42.335-122.911 -49.582  0.00  0.00    -0.225 NA
ENDBRANCH   1   7
BRANCH   4  16
ATOM     16  N   UNL d   1     -41.285-122.497 -53.170  0.00  0.00    -0.206 NA
ATOM     17  C   UNL d   1     -41.933-122.288 -53.645  0.00  0.00     0.302 C 
ATOM     18  O   UNL d   1     -42.667-122.227 -53.306  0.00  0.00    -0.263 OA
BRANCH  17  19
ATOM     19  C   UNL d   1     -41.858-122.141 -54.442  0.00  0.00     0.158 A 
ATOM     20  O   UNL d   1     -41.172-122.143 -54.883  0.00  0.00    -0.300 OA
ATOM     21  C   UNL d   1     -41.375-121.961 -55.676  0.00  0.00     0.123 A 
ATOM     22  C   UNL d   1     -42.152-121.851 -55.721  0.00  0.00     0.029 A 
ATOM     23  C   UNL d   1     -42.476-121.954 -54.985  0.00  0.00     0.032 A 
ENDBRANCH  17  19
ENDBRANCH   4  16
TORSDOF 3
ENDMDL
