MODEL 1
REMARK VINA RESULT:      -6.7      0.000      0.000
REMARK  4 active torsions:
REMARK  status: ('A' for Active; 'I' for Inactive)
REMARK    1  A    between atoms: C_6  and  C_2 
REMARK    2  A    between atoms: O_7  and  C_6 
REMARK    3  A    between atoms: C_8  and  O_7 
REMARK    4  A    between atoms: O_14  and  C_9 
ROOT
ATOM      1  C   UNL d   1     -47.824  13.335  22.592  0.00  0.00     0.161 C 
ENDROOT
BRANCH   1   2
ATOM      2  C   UNL d   1     -48.546  13.708  22.578  0.00  0.00     0.188 A 
ATOM      3  N   UNL d   1     -48.962  13.412  21.962  0.00  0.00    -0.224 NA
ATOM      4  C   UNL d   1     -49.729  13.835  21.979  0.00  0.00     0.101 A 
ATOM      5  C   UNL d   1     -49.722  14.351  22.598  0.00  0.00     0.101 A 
ATOM      6  C   UNL d   1     -50.402  13.745  21.444  0.00  0.00     0.021 A 
ATOM      7  C   UNL d   1     -50.387  14.813  22.726  0.00  0.00     0.021 A 
ATOM      8  N   UNL d   1     -48.951  14.265  22.984  0.00  0.00    -0.224 NA
ATOM      9  C   UNL d   1     -51.057  14.777  22.258  0.00  0.00     0.002 A 
ATOM     10  C   UNL d   1     -51.064  14.261  21.639  0.00  0.00     0.002 A 
ENDBRANCH   1   2
BRANCH   1  11
ATOM     11  O   UNL d   1     -47.500  13.059  23.315  0.00  0.00    -0.302 OA
BRANCH  11  12
ATOM     12  C   UNL d   1     -46.853  12.531  23.324  0.00  0.00     0.100 A 
ATOM     13  C   UNL d   1     -46.935  11.788  23.677  0.00  0.00     0.027 A 
ATOM     14  C   UNL d   1     -46.313  11.252  23.698  0.00  0.00     0.026 A 
ATOM     15  C   UNL d   1     -45.595  11.484  23.351  0.00  0.00     0.094 A 
ATOM     16  C   UNL d   1     -45.512  12.226  22.998  0.00  0.00     0.026 A 
ATOM     17  C   UNL d   1     -46.142  12.766  22.978  0.00  0.00     0.027 A 
BRANCH  15  18
ATOM     18  O   UNL d   1     -44.948  10.955  23.360  0.00  0.00    -0.328 OA
ATOM     19  C   UNL d   1     -44.286  10.292  23.608  0.00  0.00     0.181 C 
ENDBRANCH  15  18
ENDBRANCH  11  12
ENDBRANCH   1  11
TORSDOF 4
ENDMDL
MODEL 2
REMARK VINA RESULT:      -5.7      1.721      5.275
REMARK  4 active torsions:
REMARK  status: ('A' for Active; 'I' for Inactive)
REMARK    1  A    between atoms: C_6  and  C_2 
REMARK    2  A    between atoms: O_7  and  C_6 
REMARK    3  A    between atoms: C_8  and  O_7 
REMARK    4  A    between atoms: O_14  and  C_9 
ROOT
ATOM      1  C   UNL d   1     -46.672  12.150  23.362  0.00  0.00     0.161 C 
ENDROOT
BRANCH   1   2
ATOM      2  C   UNL d   1     -46.086  11.590  23.426  0.00  0.00     0.188 A 
ATOM      3  N   UNL d   1     -45.412  11.907  23.135  0.00  0.00    -0.224 NA
ATOM      4  C   UNL d   1     -44.807  11.279  23.221  0.00  0.00     0.101 A 
ATOM      5  C   UNL d   1     -45.156  10.633  23.554  0.00  0.00     0.101 A 
ATOM      6  C   UNL d   1     -43.973  11.305  22.999  0.00  0.00     0.021 A 
ATOM      7  C   UNL d   1     -44.695   9.969  23.690  0.00  0.00     0.021 A 
ATOM      8  N   UNL d   1     -45.988  10.841  23.686  0.00  0.00    -0.224 NA
ATOM      9  C   UNL d   1     -43.899   9.928  23.504  0.00  0.00     0.002 A 
ATOM     10  C   UNL d   1     -43.551  10.574  23.170  0.00  0.00     0.002 A 
ENDBRANCH   1   2
BRANCH   1  11
ATOM     11  O   UNL d   1     -47.465  11.964  23.564  0.00  0.00    -0.302 OA
BRANCH  11  12
ATOM     12  C   UNL d   1     -48.101  12.431  23.289  0.00  0.00     0.100 A 
ATOM     13  C   UNL d   1     -48.018  13.252  23.246  0.00  0.00     0.027 A 
ATOM     14  C   UNL d   1     -48.629  13.731  22.979  0.00  0.00     0.026 A 
ATOM     15  C   UNL d   1     -49.337  13.360  22.752  0.00  0.00     0.094 A 
ATOM     16  C   UNL d   1     -49.421  12.539  22.795  0.00  0.00     0.026 A 
ATOM     17  C   UNL d   1     -48.802  12.057  23.065  0.00  0.00     0.027 A 
BRANCH  15  18
ATOM     18  O   UNL d   1     -49.973  13.827  22.477  0.00  0.00    -0.328 OA
ATOM     19  C   UNL d   1     -50.782  14.355  22.407  0.00  0.00     0.181 C 
ENDBRANCH  15  18
ENDBRANCH  11  12
ENDBRANCH   1  11
TORSDOF 4
ENDMDL
MODEL 3
REMARK VINA RESULT:      -5.0      9.111     10.613
REMARK  4 active torsions:
REMARK  status: ('A' for Active; 'I' for Inactive)
REMARK    1  A    between atoms: C_6  and  C_2 
REMARK    2  A    between atoms: O_7  and  C_6 
REMARK    3  A    between atoms: C_8  and  O_7 
REMARK    4  A    between atoms: O_14  and  C_9 
ROOT
ATOM      1  C   UNL d   1     -39.309  14.826  18.112  0.00  0.00     0.161 C 
ENDROOT
BRANCH   1   2
ATOM      2  C   UNL d   1     -39.441  15.078  18.874  0.00  0.00     0.188 A 
ATOM      3  N   UNL d   1     -40.231  15.147  18.975  0.00  0.00    -0.224 NA
ATOM      4  C   UNL d   1     -40.334  15.418  19.802  0.00  0.00     0.101 A 
ATOM      5  C   UNL d   1     -39.605  15.494  20.138  0.00  0.00     0.101 A 
ATOM      6  C   UNL d   1     -41.069  15.588  20.222  0.00  0.00     0.021 A 
ATOM      7  C   UNL d   1     -39.560  15.743  20.918  0.00  0.00     0.021 A 
ATOM      8  N   UNL d   1     -39.028  15.271  19.530  0.00  0.00    -0.224 NA
ATOM      9  C   UNL d   1     -40.218  15.920  21.372  0.00  0.00     0.002 A 
ATOM     10  C   UNL d   1     -40.946  15.845  21.036  0.00  0.00     0.002 A 
ENDBRANCH   1   2
BRANCH   1  11
ATOM     11  O   UNL d   1     -38.535  14.836  17.787  0.00  0.00    -0.302 OA
BRANCH  11  12
ATOM     12  C   UNL d   1     -38.385  14.537  17.022  0.00  0.00     0.100 A 
ATOM     13  C   UNL d   1     -38.244  13.729  16.918  0.00  0.00     0.027 A 
ATOM     14  C   UNL d   1     -38.095  13.412  16.175  0.00  0.00     0.026 A 
ATOM     15  C   UNL d   1     -38.090  13.934  15.529  0.00  0.00     0.094 A 
ATOM     16  C   UNL d   1     -38.230  14.741  15.632  0.00  0.00     0.026 A 
ATOM     17  C   UNL d   1     -38.381  15.060  16.384  0.00  0.00     0.027 A 
BRANCH  15  18
ATOM     18  O   UNL d   1     -37.940  13.635  14.763  0.00  0.00    -0.328 OA
ATOM     19  C   UNL d   1     -38.016  13.346  13.842  0.00  0.00     0.181 C 
ENDBRANCH  15  18
ENDBRANCH  11  12
ENDBRANCH   1  11
TORSDOF 4
ENDMDL
MODEL 4
REMARK VINA RESULT:      -4.8      8.569      9.156
REMARK  4 active torsions:
REMARK  status: ('A' for Active; 'I' for Inactive)
REMARK    1  A    between atoms: C_6  and  C_2 
REMARK    2  A    between atoms: O_7  and  C_6 
REMARK    3  A    between atoms: C_8  and  O_7 
REMARK    4  A    between atoms: O_14  and  C_9 
ROOT
ATOM      1  C   UNL d   1     -39.819  14.416  19.491  0.00  0.00     0.161 C 
ENDROOT
BRANCH   1   2
ATOM      2  C   UNL d   1     -40.195  14.789  18.874  0.00  0.00     0.188 A 
ATOM      3  N   UNL d   1     -39.784  14.631  18.206  0.00  0.00    -0.224 NA
ATOM      4  C   UNL d   1     -40.215  15.047  17.567  0.00  0.00     0.101 A 
ATOM      5  C   UNL d   1     -40.850  15.423  17.891  0.00  0.00     0.101 A 
ATOM      6  C   UNL d   1     -40.027  15.074  16.724  0.00  0.00     0.021 A 
ATOM      7  C   UNL d   1     -41.341  15.854  17.395  0.00  0.00     0.021 A 
ATOM      8  N   UNL d   1     -40.832  15.253  18.741  0.00  0.00    -0.224 NA
ATOM      9  C   UNL d   1     -41.219  15.920  16.589  0.00  0.00     0.002 A 
ATOM     10  C   UNL d   1     -40.585  15.544  16.265  0.00  0.00     0.002 A 
ENDBRANCH   1   2
BRANCH   1  11
ATOM     11  O   UNL d   1     -39.865  14.727  20.269  0.00  0.00    -0.302 OA
BRANCH  11  12
ATOM     12  C   UNL d   1     -39.456  14.366  20.902  0.00  0.00     0.100 A 
ATOM     13  C   UNL d   1     -39.880  14.075  21.550  0.00  0.00     0.027 A 
ATOM     14  C   UNL d   1     -39.501  13.716  22.184  0.00  0.00     0.026 A 
ATOM     15  C   UNL d   1     -38.673  13.656  22.151  0.00  0.00     0.094 A 
ATOM     16  C   UNL d   1     -38.249  13.946  21.505  0.00  0.00     0.026 A 
ATOM     17  C   UNL d   1     -38.634  14.308  20.865  0.00  0.00     0.027 A 
BRANCH  15  18
ATOM     18  O   UNL d   1     -38.265  13.294  22.785  0.00  0.00    -0.328 OA
ATOM     19  C   UNL d   1     -37.977  12.989  23.659  0.00  0.00     0.181 C 
ENDBRANCH  15  18
ENDBRANCH  11  12
ENDBRANCH   1  11
TORSDOF 4
ENDMDL
MODEL 5
REMARK VINA RESULT:      -3.8      1.263      1.506
REMARK  4 active torsions:
REMARK  status: ('A' for Active; 'I' for Inactive)
REMARK    1  A    between atoms: C_6  and  C_2 
REMARK    2  A    between atoms: O_7  and  C_6 
REMARK    3  A    between atoms: C_8  and  O_7 
REMARK    4  A    between atoms: O_14  and  C_9 
ROOT
ATOM      1  C   UNL d   1     -47.843  12.340  23.299  0.00  0.00     0.161 C 
ENDROOT
BRANCH   1   2
ATOM      2  C   UNL d   1     -48.574  12.657  23.136  0.00  0.00     0.188 A 
ATOM      3  N   UNL d   1     -48.878  12.261  22.511  0.00  0.00    -0.224 NA
ATOM      4  C   UNL d   1     -49.660  12.627  22.366  0.00  0.00     0.101 A 
ATOM      5  C   UNL d   1     -49.772  13.213  22.909  0.00  0.00     0.101 A 
ATOM      6  C   UNL d   1     -50.241  12.427  21.759  0.00  0.00     0.021 A 
ATOM      7  C   UNL d   1     -50.473  13.638  22.883  0.00  0.00     0.021 A 
ATOM      8  N   UNL d   1     -49.063  13.227  23.408  0.00  0.00    -0.224 NA
ATOM      9  C   UNL d   1     -51.063  13.499  22.334  0.00  0.00     0.002 A 
ATOM     10  C   UNL d   1     -50.951  12.914  21.791  0.00  0.00     0.002 A 
ENDBRANCH   1   2
BRANCH   1  11
ATOM     11  O   UNL d   1     -47.225  12.824  23.598  0.00  0.00    -0.302 OA
BRANCH  11  12
ATOM     12  C   UNL d   1     -46.484  12.863  23.214  0.00  0.00     0.100 A 
ATOM     13  C   UNL d   1     -46.158  12.181  22.880  0.00  0.00     0.027 A 
ATOM     14  C   UNL d   1     -45.432  12.195  22.498  0.00  0.00     0.026 A 
ATOM     15  C   UNL d   1     -45.033  12.922  22.458  0.00  0.00     0.094 A 
ATOM     16  C   UNL d   1     -45.358  13.605  22.791  0.00  0.00     0.026 A 
ATOM     17  C   UNL d   1     -46.092  13.588  23.177  0.00  0.00     0.027 A 
BRANCH  15  18
ATOM     18  O   UNL d   1     -44.292  12.962  22.074  0.00  0.00    -0.328 OA
ATOM     19  C   UNL d   1     -43.443  12.751  21.657  0.00  0.00     0.181 C 
ENDBRANCH  15  18
ENDBRANCH  11  12
ENDBRANCH   1  11
TORSDOF 4
ENDMDL
