MODEL 1
REMARK VINA RESULT:      82.5      0.000      0.000
REMARK  3 active torsions:
REMARK  status: ('A' for Active; 'I' for Inactive)
REMARK    1  A    between atoms: C_8  and  C_6 
REMARK    2  A    between atoms: C_9  and  C_8 
REMARK       I    between atoms: N_10  and  C_9 
REMARK    3  A    between atoms: C_14  and  N_10 
ROOT
ATOM      1  C   UNL d   1     -50.412  27.654  33.328  0.00  0.00     0.085 A 
ATOM      2  C   UNL d   1     -50.244  26.016  33.317  0.00  0.00     0.094 A 
ATOM      3  C   UNL d   1     -49.660  27.318  33.339  0.00  0.00     0.021 A 
ATOM      4  C   UNL d   1     -51.080  27.176  33.311  0.00  0.00     0.021 A 
ATOM      5  C   UNL d   1     -51.001  26.357  33.306  0.00  0.00     0.026 A 
ATOM      6  C   UNL d   1     -49.576  26.499  33.334  0.00  0.00     0.026 A 
ATOM      7  O   UNL d   1     -50.162  25.212  33.312  0.00  0.00    -0.328 OA
ATOM      8  C   UNL d   1     -50.081  24.396  33.306  0.00  0.00     0.181 C 
ENDROOT
BRANCH   1   9
ATOM      9  N   UNL d   1     -50.498  28.475  33.333  0.00  0.00    -0.208 NA
ATOM     10  C   UNL d   1     -49.953  28.948  33.738  0.00  0.00     0.281 C 
ATOM     11  O   UNL d   1     -50.045  29.769  33.739  0.00  0.00    -0.265 OA
BRANCH  10  12
ATOM     12  C   UNL d   1     -49.316  28.595  34.140  0.00  0.00     0.086 C 
BRANCH  12  13
ATOM     13  C   UNL d   1     -48.794  29.070  34.565  0.00  0.00     0.144 A 
ATOM     14  N   UNL d   1     -48.712  29.824  34.250  0.00  0.00    -0.240 NA
ATOM     15  C   UNL d   1     -48.244  30.438  34.525  0.00  0.00     0.083 A 
ATOM     16  C   UNL d   1     -47.740  30.458  35.182  0.00  0.00     0.035 A 
ATOM     17  C   UNL d   1     -48.321  31.106  34.048  0.00  0.00     0.019 A 
ATOM     18  C   UNL d   1     -47.662  29.782  35.665  0.00  0.00     0.086 A 
ATOM     19  C   UNL d   1     -47.311  31.139  35.367  0.00  0.00     0.003 A 
ATOM     20  N   UNL d   1     -48.037  29.054  35.577  0.00  0.00    -0.207 NA
ATOM     21  C   UNL d   1     -47.160  29.799  36.320  0.00  0.00     0.019 A 
ATOM     22  C   UNL d   1     -48.568  28.806  35.013  0.00  0.00     0.297 A 
ATOM     23  O   UNL d   1     -48.834  28.033  35.095  0.00  0.00    -0.264 OA
ATOM     24  C   UNL d   1     -46.734  30.484  36.499  0.00  0.00     0.002 A 
ATOM     25  C   UNL d   1     -46.812  31.153  36.022  0.00  0.00     0.000 A 
ATOM     26  C   UNL d   1     -47.390  31.815  34.883  0.00  0.00     0.000 A 
ATOM     27  C   UNL d   1     -47.890  31.801  34.228  0.00  0.00     0.002 A 
ENDBRANCH  12  13
ENDBRANCH  10  12
ENDBRANCH   1   9
TORSDOF 3
ENDMDL
MODEL 2
REMARK VINA RESULT:      83.7      1.294      4.868
REMARK  3 active torsions:
REMARK  status: ('A' for Active; 'I' for Inactive)
REMARK    1  A    between atoms: C_8  and  C_6 
REMARK    2  A    between atoms: C_9  and  C_8 
REMARK       I    between atoms: N_10  and  C_9 
REMARK    3  A    between atoms: C_14  and  N_10 
ROOT
ATOM      1  C   UNL d   1     -47.973  30.303  35.401  0.00  0.00     0.085 A 
ATOM      2  C   UNL d   1     -47.743  31.591  34.402  0.00  0.00     0.094 A 
ATOM      3  C   UNL d   1     -48.606  30.794  35.210  0.00  0.00     0.021 A 
ATOM      4  C   UNL d   1     -47.226  30.453  35.095  0.00  0.00     0.021 A 
ATOM      5  C   UNL d   1     -47.105  31.095  34.595  0.00  0.00     0.026 A 
ATOM      6  C   UNL d   1     -48.491  31.438  34.711  0.00  0.00     0.026 A 
ATOM      7  O   UNL d   1     -47.629  32.224  33.911  0.00  0.00    -0.328 OA
ATOM      8  C   UNL d   1     -47.512  32.865  33.413  0.00  0.00     0.181 C 
ENDROOT
BRANCH   1   9
ATOM      9  N   UNL d   1     -48.086  29.656  35.902  0.00  0.00    -0.208 NA
ATOM     10  C   UNL d   1     -48.315  28.925  35.590  0.00  0.00     0.281 C 
ATOM     11  O   UNL d   1     -48.426  28.281  36.097  0.00  0.00    -0.265 OA
BRANCH  10  12
ATOM     12  C   UNL d   1     -48.430  28.840  34.771  0.00  0.00     0.086 C 
BRANCH  12  13
ATOM     13  C   UNL d   1     -48.815  28.171  34.484  0.00  0.00     0.144 A 
ATOM     14  N   UNL d   1     -49.590  28.317  34.251  0.00  0.00    -0.240 NA
ATOM     15  C   UNL d   1     -50.132  27.786  33.942  0.00  0.00     0.083 A 
ATOM     16  C   UNL d   1     -50.044  26.978  33.787  0.00  0.00     0.035 A 
ATOM     17  C   UNL d   1     -50.850  28.158  33.780  0.00  0.00     0.019 A 
ATOM     18  C   UNL d   1     -49.318  26.601  33.951  0.00  0.00     0.086 A 
ATOM     19  C   UNL d   1     -50.666  26.536  33.471  0.00  0.00     0.003 A 
ATOM     20  N   UNL d   1     -48.634  26.940  34.264  0.00  0.00    -0.207 NA
ATOM     21  C   UNL d   1     -49.226  25.795  33.797  0.00  0.00     0.019 A 
ATOM     22  C   UNL d   1     -48.490  27.707  34.490  0.00  0.00     0.297 A 
ATOM     23  O   UNL d   1     -47.735  27.852  34.784  0.00  0.00    -0.264 OA
ATOM     24  C   UNL d   1     -49.853  25.360  33.481  0.00  0.00     0.002 A 
ATOM     25  C   UNL d   1     -50.571  25.732  33.319  0.00  0.00     0.000 A 
ATOM     26  C   UNL d   1     -51.392  26.913  33.307  0.00  0.00     0.000 A 
ATOM     27  C   UNL d   1     -51.487  27.717  33.459  0.00  0.00     0.002 A 
ENDBRANCH  12  13
ENDBRANCH  10  12
ENDBRANCH   1   9
TORSDOF 3
ENDMDL
MODEL 3
REMARK VINA RESULT:      84.6      2.609      4.372
REMARK  3 active torsions:
REMARK  status: ('A' for Active; 'I' for Inactive)
REMARK    1  A    between atoms: C_8  and  C_6 
REMARK    2  A    between atoms: C_9  and  C_8 
REMARK       I    between atoms: N_10  and  C_9 
REMARK    3  A    between atoms: C_14  and  N_10 
ROOT
ATOM      1  C   UNL d   1     -51.701  23.608  33.933  0.00  0.00     0.085 A 
ATOM      2  C   UNL d   1     -53.314  23.448  34.223  0.00  0.00     0.094 A 
ATOM      3  C   UNL d   1     -52.222  23.493  33.306  0.00  0.00     0.021 A 
ATOM      4  C   UNL d   1     -51.982  23.643  34.704  0.00  0.00     0.021 A 
ATOM      5  C   UNL d   1     -52.787  23.564  34.855  0.00  0.00     0.026 A 
ATOM      6  C   UNL d   1     -53.028  23.414  33.451  0.00  0.00     0.026 A 
ATOM      7  O   UNL d   1     -54.106  23.370  34.366  0.00  0.00    -0.328 OA
ATOM      8  C   UNL d   1     -54.908  23.291  34.513  0.00  0.00     0.181 C 
ENDROOT
BRANCH   1   9
ATOM      9  N   UNL d   1     -50.891  23.688  33.790  0.00  0.00    -0.208 NA
ATOM     10  C   UNL d   1     -50.577  24.424  33.582  0.00  0.00     0.281 C 
ATOM     11  O   UNL d   1     -49.767  24.498  33.440  0.00  0.00    -0.265 OA
BRANCH  10  12
ATOM     12  C   UNL d   1     -51.078  25.085  33.517  0.00  0.00     0.086 C 
BRANCH  12  13
ATOM     13  C   UNL d   1     -50.756  25.842  33.565  0.00  0.00     0.144 A 
ATOM     14  N   UNL d   1     -49.936  25.842  33.629  0.00  0.00    -0.240 NA
ATOM     15  C   UNL d   1     -49.435  26.488  33.687  0.00  0.00     0.083 A 
ATOM     16  C   UNL d   1     -49.620  27.295  33.698  0.00  0.00     0.035 A 
ATOM     17  C   UNL d   1     -48.648  26.247  33.741  0.00  0.00     0.019 A 
ATOM     18  C   UNL d   1     -50.416  27.538  33.644  0.00  0.00     0.086 A 
ATOM     19  C   UNL d   1     -49.026  27.865  33.761  0.00  0.00     0.003 A 
ATOM     20  N   UNL d   1     -51.085  27.062  33.577  0.00  0.00    -0.207 NA
ATOM     21  C   UNL d   1     -50.603  28.343  33.654  0.00  0.00     0.019 A 
ATOM     22  C   UNL d   1     -51.147  26.252  33.547  0.00  0.00     0.297 A 
ATOM     23  O   UNL d   1     -51.912  25.959  33.479  0.00  0.00    -0.264 OA
ATOM     24  C   UNL d   1     -50.004  28.908  33.718  0.00  0.00     0.002 A 
ATOM     25  C   UNL d   1     -49.216  28.667  33.771  0.00  0.00     0.000 A 
ATOM     26  C   UNL d   1     -48.230  27.621  33.816  0.00  0.00     0.000 A 
ATOM     27  C   UNL d   1     -48.039  26.820  33.806  0.00  0.00     0.002 A 
ENDBRANCH  12  13
ENDBRANCH  10  12
ENDBRANCH   1   9
TORSDOF 3
ENDMDL
MODEL 4
REMARK VINA RESULT:      85.3      1.138      5.139
REMARK  3 active torsions:
REMARK  status: ('A' for Active; 'I' for Inactive)
REMARK    1  A    between atoms: C_8  and  C_6 
REMARK    2  A    between atoms: C_9  and  C_8 
REMARK       I    between atoms: N_10  and  C_9 
REMARK    3  A    between atoms: C_14  and  N_10 
ROOT
ATOM      1  C   UNL d   1     -47.466  29.236  35.135  0.00  0.00     0.085 A 
ATOM      2  C   UNL d   1     -47.534  30.868  34.933  0.00  0.00     0.094 A 
ATOM      3  C   UNL d   1     -47.758  29.712  35.739  0.00  0.00     0.021 A 
ATOM      4  C   UNL d   1     -47.208  29.570  34.431  0.00  0.00     0.021 A 
ATOM      5  C   UNL d   1     -47.240  30.385  34.324  0.00  0.00     0.026 A 
ATOM      6  C   UNL d   1     -47.792  30.528  35.638  0.00  0.00     0.026 A 
ATOM      7  O   UNL d   1     -47.568  31.670  34.833  0.00  0.00    -0.328 OA
ATOM      8  C   UNL d   1     -47.601  32.482  34.730  0.00  0.00     0.181 C 
ENDROOT
BRANCH   1   9
ATOM      9  N   UNL d   1     -47.431  28.416  35.234  0.00  0.00    -0.208 NA
ATOM     10  C   UNL d   1     -47.984  27.928  34.860  0.00  0.00     0.281 C 
ATOM     11  O   UNL d   1     -47.943  27.110  34.963  0.00  0.00    -0.265 OA
BRANCH  10  12
ATOM     12  C   UNL d   1     -48.577  28.264  34.382  0.00  0.00     0.086 C 
BRANCH  12  13
ATOM     13  C   UNL d   1     -49.230  27.809  34.170  0.00  0.00     0.144 A 
ATOM     14  N   UNL d   1     -49.040  27.028  34.000  0.00  0.00    -0.240 NA
ATOM     15  C   UNL d   1     -49.545  26.424  33.773  0.00  0.00     0.083 A 
ATOM     16  C   UNL d   1     -50.364  26.442  33.657  0.00  0.00     0.035 A 
ATOM     17  C   UNL d   1     -49.130  25.720  33.656  0.00  0.00     0.019 A 
ATOM     18  C   UNL d   1     -50.784  27.153  33.775  0.00  0.00     0.086 A 
ATOM     19  C   UNL d   1     -50.775  25.764  33.424  0.00  0.00     0.003 A 
ATOM     20  N   UNL d   1     -50.481  27.884  34.005  0.00  0.00    -0.207 NA
ATOM     21  C   UNL d   1     -51.601  27.174  33.660  0.00  0.00     0.019 A 
ATOM     22  C   UNL d   1     -49.716  28.101  34.173  0.00  0.00     0.297 A 
ATOM     23  O   UNL d   1     -49.611  28.888  34.388  0.00  0.00    -0.264 OA
ATOM     24  C   UNL d   1     -52.005  26.492  33.427  0.00  0.00     0.002 A 
ATOM     25  C   UNL d   1     -51.591  25.789  33.310  0.00  0.00     0.000 A 
ATOM     26  C   UNL d   1     -50.355  25.052  33.306  0.00  0.00     0.000 A 
ATOM     27  C   UNL d   1     -49.539  25.028  33.420  0.00  0.00     0.002 A 
ENDBRANCH  12  13
ENDBRANCH  10  12
ENDBRANCH   1   9
TORSDOF 3
ENDMDL
