MODEL 1
REMARK VINA RESULT:       3.9      0.000      0.000
REMARK  2 active torsions:
REMARK  status: ('A' for Active; 'I' for Inactive)
REMARK    1  A    between atoms: C_10  and  C_4 
REMARK       I    between atoms: N_12  and  C_10 
REMARK       I    between atoms: C_11  and  N_13 
REMARK    2  A    between atoms: C_14  and  C_11 
ROOT
ATOM      1  C   UNL d   1     -42.094-121.573 -53.354  0.00  0.00     0.154 A 
ATOM      2  C   UNL d   1     -41.854-122.340 -53.177  0.00  0.00     0.093 A 
ATOM      3  N   UNL d   1     -42.352-121.387 -54.124  0.00  0.00    -0.211 NA
ATOM      4  C   UNL d   1     -41.734-121.603 -52.070  0.00  0.00     0.122 A 
ATOM      5  N   UNL d   1     -42.020-121.119 -52.673  0.00  0.00    -0.285 N 
ATOM      6  C   UNL d   1     -41.868-122.927 -53.761  0.00  0.00     0.269 A 
ATOM      7  N   UNL d   1     -42.122-122.748 -54.522  0.00  0.00    -0.259 N 
ATOM      8  C   UNL d   1     -42.367-121.970 -54.709  0.00  0.00     0.140 A 
ATOM      9  C   UNL d   1     -41.633-122.358 -52.388  0.00  0.00     0.030 A 
ATOM     10  C   UNL d   1     -42.137-123.330 -55.106  0.00  0.00     0.084 A 
ATOM     11  O   UNL d   1     -41.626-123.698 -53.580  0.00  0.00    -0.266 OA
ATOM     12  C   UNL d   1     -42.619-121.787 -55.461  0.00  0.00     0.064 A 
ATOM     13  C   UNL d   1     -42.392-123.142 -55.864  0.00  0.00     0.018 A 
ATOM     14  C   UNL d   1     -42.636-122.362 -56.044  0.00  0.00    -0.008 A 
ATOM     15  C   UNL d   1     -42.202-120.313 -52.607  0.00  0.00     0.101 C 
ENDROOT
BRANCH   4  16
ATOM     16  C   UNL d   1     -41.576-121.374 -51.290  0.00  0.00     0.281 C 
ATOM     17  N   UNL d   1     -41.875-121.820 -50.665  0.00  0.00    -0.268 N 
ATOM     18  C   UNL d   1     -41.718-121.591 -49.885  0.00  0.00     0.102 A 
ATOM     19  C   UNL d   1     -42.329-122.492 -50.810  0.00  0.00     0.102 A 
ATOM     20  C   UNL d   1     -42.014-122.034 -49.251  0.00  0.00     0.102 A 
ATOM     21  N   UNL d   1     -42.466-122.703 -49.403  0.00  0.00    -0.267 N 
ATOM     22  C   UNL d   1     -42.764-123.148 -48.773  0.00  0.00     0.288 C 
ATOM     23  C   UNL d   1     -42.617-122.923 -50.187  0.00  0.00     0.102 A 
ATOM     24  O   UNL d   1     -43.216-123.817 -48.925  0.00  0.00    -0.264 OA
ATOM     25  O   UNL d   1     -41.123-120.703 -51.144  0.00  0.00    -0.265 OA
BRANCH  22  26
ATOM     26  C   UNL d   1     -42.600-122.909 -47.999  0.00  0.00     0.156 A 
ATOM     27  O   UNL d   1     -43.023-122.342 -47.573  0.00  0.00    -0.300 OA
ATOM     28  C   UNL d   1     -42.685-122.269 -46.834  0.00  0.00     0.123 A 
ATOM     29  C   UNL d   1     -42.044-122.789 -46.785  0.00  0.00     0.029 A 
ATOM     30  C   UNL d   1     -41.996-123.183 -47.509  0.00  0.00     0.032 A 
ENDBRANCH  22  26
ENDBRANCH   4  16
TORSDOF 2
ENDMDL
MODEL 2
REMARK VINA RESULT:       4.4      1.072      5.580
REMARK  2 active torsions:
REMARK  status: ('A' for Active; 'I' for Inactive)
REMARK    1  A    between atoms: C_10  and  C_4 
REMARK       I    between atoms: N_12  and  C_10 
REMARK       I    between atoms: C_11  and  N_13 
REMARK    2  A    between atoms: C_14  and  C_11 
ROOT
ATOM      1  C   UNL d   1     -42.440-122.054 -49.854  0.00  0.00     0.154 A 
ATOM      2  C   UNL d   1     -41.833-122.607 -49.918  0.00  0.00     0.093 A 
ATOM      3  N   UNL d   1     -42.957-122.081 -49.201  0.00  0.00    -0.211 NA
ATOM      4  C   UNL d   1     -41.767-121.795 -50.976  0.00  0.00     0.122 A 
ATOM      5  N   UNL d   1     -42.399-121.555 -50.505  0.00  0.00    -0.285 N 
ATOM      6  C   UNL d   1     -41.734-123.188 -49.336  0.00  0.00     0.269 A 
ATOM      7  N   UNL d   1     -42.242-123.217 -48.691  0.00  0.00    -0.259 N 
ATOM      8  C   UNL d   1     -42.861-122.659 -48.619  0.00  0.00     0.140 A 
ATOM      9  C   UNL d   1     -41.419-122.447 -50.608  0.00  0.00     0.030 A 
ATOM     10  C   UNL d   1     -42.146-123.795 -48.110  0.00  0.00     0.084 A 
ATOM     11  O   UNL d   1     -41.123-123.742 -49.404  0.00  0.00    -0.266 OA
ATOM     12  C   UNL d   1     -43.367-122.684 -47.981  0.00  0.00     0.064 A 
ATOM     13  C   UNL d   1     -42.659-123.817 -47.467  0.00  0.00     0.018 A 
ATOM     14  C   UNL d   1     -43.275-123.256 -47.402  0.00  0.00    -0.008 A 
ATOM     15  C   UNL d   1     -42.908-120.919 -50.659  0.00  0.00     0.101 C 
ENDROOT
BRANCH   4  16
ATOM     16  C   UNL d   1     -41.524-121.446 -51.687  0.00  0.00     0.281 C 
ATOM     17  N   UNL d   1     -41.687-121.821 -52.402  0.00  0.00    -0.268 N 
ATOM     18  C   UNL d   1     -41.445-121.472 -53.113  0.00  0.00     0.102 A 
ATOM     19  C   UNL d   1     -42.089-122.540 -52.415  0.00  0.00     0.102 A 
ATOM     20  C   UNL d   1     -41.604-121.843 -53.836  0.00  0.00     0.102 A 
ATOM     21  N   UNL d   1     -42.006-122.561 -53.843  0.00  0.00    -0.267 N 
ATOM     22  C   UNL d   1     -42.167-122.933 -54.562  0.00  0.00     0.288 C 
ATOM     23  C   UNL d   1     -42.243-122.900 -53.125  0.00  0.00     0.102 A 
ATOM     24  O   UNL d   1     -42.568-123.650 -54.568  0.00  0.00    -0.264 OA
ATOM     25  O   UNL d   1     -41.123-120.728 -51.675  0.00  0.00    -0.265 OA
BRANCH  22  26
ATOM     26  C   UNL d   1     -41.920-122.575 -55.266  0.00  0.00     0.156 A 
ATOM     27  O   UNL d   1     -41.161-122.624 -55.586  0.00  0.00    -0.300 OA
ATOM     28  C   UNL d   1     -41.146-122.195 -56.281  0.00  0.00     0.123 A 
ATOM     29  C   UNL d   1     -41.897-121.872 -56.406  0.00  0.00     0.029 A 
ATOM     30  C   UNL d   1     -42.372-122.110 -55.775  0.00  0.00     0.032 A 
ENDBRANCH  22  26
ENDBRANCH   4  16
TORSDOF 2
ENDMDL
