MODEL 1
REMARK VINA RESULT:      -5.4      0.000      0.000
REMARK  2 active torsions:
REMARK  status: ('A' for Active; 'I' for Inactive)
REMARK    1  A    between atoms: C_9  and  C_1 
REMARK    2  A    between atoms: O_13  and  C_11 
ROOT
ATOM      1  C   UNL d   1      57.747  -0.123  31.026  0.00  0.00     0.064 A 
ATOM      2  C   UNL d   1      57.184  -0.657  31.290  0.00  0.00     0.199 A 
ATOM      3  C   UNL d   1      56.776  -0.549  32.004  0.00  0.00     0.062 A 
ATOM      4  C   UNL d   1      57.920   0.562  31.496  0.00  0.00     0.126 A 
ATOM      5  C   UNL d   1      56.945   0.118  32.462  0.00  0.00     0.105 A 
ATOM      6  O   UNL d   1      57.522   0.682  32.209  0.00  0.00    -0.305 OA
ATOM      7  C   UNL d   1      56.232  -1.075  32.249  0.00  0.00     0.007 A 
ATOM      8  C   UNL d   1      56.570   0.264  33.168  0.00  0.00     0.049 A 
ATOM      9  O   UNL d   1      57.017  -1.320  30.835  0.00  0.00    -0.286 OA
ATOM     10  C   UNL d   1      56.005  -0.279  33.425  0.00  0.00     0.096 A 
ATOM     11  C   UNL d   1      55.832  -0.964  32.955  0.00  0.00     0.024 A 
ENDROOT
BRANCH   1  12
ATOM     12  C   UNL d   1      58.124  -0.260  30.326  0.00  0.00     0.005 A 
ATOM     13  C   UNL d   1      58.017   0.269  29.678  0.00  0.00     0.000 A 
ATOM     14  C   UNL d   1      58.394   0.131  28.978  0.00  0.00     0.000 A 
ATOM     15  C   UNL d   1      58.888  -0.524  28.884  0.00  0.00     0.000 A 
ATOM     16  C   UNL d   1      59.002  -1.057  29.522  0.00  0.00     0.000 A 
ATOM     17  C   UNL d   1      58.619  -0.916  30.232  0.00  0.00     0.000 A 
ENDBRANCH   1  12
BRANCH  10  18
ATOM     18  O   UNL d   1      55.609  -0.122  34.173  0.00  0.00    -0.328 OA
ATOM     19  C   UNL d   1      54.952   0.368  34.172  0.00  0.00     0.181 C 
ENDBRANCH  10  18
TORSDOF 2
ENDMDL
MODEL 2
REMARK VINA RESULT:      -5.4      1.189      3.952
REMARK  2 active torsions:
REMARK  status: ('A' for Active; 'I' for Inactive)
REMARK    1  A    between atoms: C_9  and  C_1 
REMARK    2  A    between atoms: O_13  and  C_11 
ROOT
ATOM      1  C   UNL d   1      57.185   0.165  32.243  0.00  0.00     0.064 A 
ATOM      2  C   UNL d   1      57.218  -0.005  31.442  0.00  0.00     0.199 A 
ATOM      3  C   UNL d   1      57.892   0.155  30.986  0.00  0.00     0.062 A 
ATOM      4  C   UNL d   1      57.859   0.515  32.620  0.00  0.00     0.126 A 
ATOM      5  C   UNL d   1      58.549   0.496  31.353  0.00  0.00     0.105 A 
ATOM      6  O   UNL d   1      58.537   0.680  32.179  0.00  0.00    -0.305 OA
ATOM      7  C   UNL d   1      57.912  -0.014  30.209  0.00  0.00     0.007 A 
ATOM      8  C   UNL d   1      59.231   0.671  30.946  0.00  0.00     0.049 A 
ATOM      9  O   UNL d   1      56.565  -0.344  31.078  0.00  0.00    -0.286 OA
ATOM     10  C   UNL d   1      59.254   0.496  30.140  0.00  0.00     0.096 A 
ATOM     11  C   UNL d   1      58.580   0.146  29.764  0.00  0.00     0.024 A 
ENDROOT
BRANCH   1  12
ATOM     12  C   UNL d   1      56.512  -0.005  32.655  0.00  0.00     0.005 A 
ATOM     13  C   UNL d   1      56.315  -0.806  32.829  0.00  0.00     0.000 A 
ATOM     14  C   UNL d   1      55.642  -0.976  33.241  0.00  0.00     0.000 A 
ATOM     15  C   UNL d   1      55.139  -0.373  33.498  0.00  0.00     0.000 A 
ATOM     16  C   UNL d   1      55.325   0.427  33.331  0.00  0.00     0.000 A 
ATOM     17  C   UNL d   1      56.009   0.598  32.913  0.00  0.00     0.000 A 
ENDBRANCH   1  12
BRANCH  10  18
ATOM     18  O   UNL d   1      59.978   0.682  29.712  0.00  0.00    -0.328 OA
ATOM     19  C   UNL d   1      60.475   0.065  29.500  0.00  0.00     0.181 C 
ENDBRANCH  10  18
TORSDOF 2
ENDMDL
MODEL 3
REMARK VINA RESULT:      -4.7      0.792      4.090
REMARK  2 active torsions:
REMARK  status: ('A' for Active; 'I' for Inactive)
REMARK    1  A    between atoms: C_9  and  C_1 
REMARK    2  A    between atoms: O_13  and  C_11 
ROOT
ATOM      1  C   UNL d   1      56.412  -0.539  32.480  0.00  0.00     0.064 A 
ATOM      2  C   UNL d   1      56.975  -0.065  32.119  0.00  0.00     0.199 A 
ATOM      3  C   UNL d   1      57.398  -0.316  31.451  0.00  0.00     0.062 A 
ATOM      4  C   UNL d   1      56.257  -1.310  32.164  0.00  0.00     0.126 A 
ATOM      5  C   UNL d   1      57.246  -1.067  31.143  0.00  0.00     0.105 A 
ATOM      6  O   UNL d   1      56.670  -1.573  31.500  0.00  0.00    -0.305 OA
ATOM      7  C   UNL d   1      57.942   0.154  31.110  0.00  0.00     0.007 A 
ATOM      8  C   UNL d   1      57.637  -1.355  30.491  0.00  0.00     0.049 A 
ATOM      9  O   UNL d   1      57.125   0.682  32.425  0.00  0.00    -0.286 OA
ATOM     10  C   UNL d   1      58.201  -0.870  30.134  0.00  0.00     0.096 A 
ATOM     11  C   UNL d   1      58.357  -0.099  30.450  0.00  0.00     0.024 A 
ENDROOT
BRANCH   1  12
ATOM     12  C   UNL d   1      56.020  -0.261  33.128  0.00  0.00     0.005 A 
ATOM     13  C   UNL d   1      55.211  -0.030  33.065  0.00  0.00     0.000 A 
ATOM     14  C   UNL d   1      54.819   0.247  33.714  0.00  0.00     0.000 A 
ATOM     15  C   UNL d   1      55.199   0.309  34.445  0.00  0.00     0.000 A 
ATOM     16  C   UNL d   1      56.002   0.082  34.519  0.00  0.00     0.000 A 
ATOM     17  C   UNL d   1      56.400  -0.199  33.860  0.00  0.00     0.000 A 
ENDBRANCH   1  12
BRANCH  10  18
ATOM     18  O   UNL d   1      58.613  -1.177  29.443  0.00  0.00    -0.328 OA
ATOM     19  C   UNL d   1      58.878  -0.645  28.878  0.00  0.00     0.181 C 
ENDBRANCH  10  18
TORSDOF 2
ENDMDL
