MODEL 1
REMARK VINA RESULT:      -9.2      0.000      0.000
REMARK  6 active torsions:
REMARK  status: ('A' for Active; 'I' for Inactive)
REMARK    1  A    between atoms: N_7  and  C_1 
REMARK    2  A    between atoms: S_2  and  C_14 
REMARK    3  A    between atoms: N_9  and  S_2 
REMARK       I    between atoms: C_11  and  N_7 
REMARK       I    between atoms: C_10  and  N_8 
REMARK    4  A    between atoms: O_27  and  C_10 
REMARK    5  A    between atoms: C_19  and  C_11 
REMARK    6  A    between atoms: C_30  and  O_27 
ROOT
ATOM      1  C   UNL d   1      48.927  35.327  52.954  0.00  0.00     0.099 A 
ATOM      2  C   UNL d   1      48.428  35.868  53.328  0.00  0.00     0.091 A 
ATOM      3  C   UNL d   1      47.773  35.406  52.258  0.00  0.00     0.049 A 
ATOM      4  C   UNL d   1      47.721  35.918  52.904  0.00  0.00     0.021 A 
ATOM      5  S   UNL d   1      48.517  35.036  52.282  0.00  0.00    -0.068 SA
ATOM      6  N   UNL d   1      46.450  35.786  51.844  0.00  0.00    -0.251 N 
ATOM      7  C   UNL d   1      45.821  35.719  51.318  0.00  0.00     0.378 C 
ATOM      8  C   UNL d   1      47.138  35.338  51.725  0.00  0.00     0.091 A 
ATOM      9  C   UNL d   1      48.598  36.293  54.012  0.00  0.00     0.103 C 
ATOM     10  N   UNL d   1      48.778  36.709  54.691  0.00  0.00    -0.191 NA
ATOM     11  C   UNL d   1      47.033  36.364  53.018  0.00  0.00     0.020 A 
ATOM     12  C   UNL d   1      46.404  36.294  52.489  0.00  0.00     0.085 A 
ATOM     13  O   UNL d   1      45.864  35.211  50.672  0.00  0.00    -0.237 OA
ENDROOT
BRANCH   1  14
ATOM     14  N   UNL d   1      49.690  35.115  53.202  0.00  0.00    -0.316 N 
ATOM     15  C   UNL d   1      50.089  34.487  52.825  0.00  0.00     0.258 C 
ATOM     16  O   UNL d   1      49.719  34.081  52.206  0.00  0.00    -0.267 OA
ATOM     17  H   UNL d   1      50.238  35.123  53.537  0.00  0.00     0.169 HD
BRANCH  15  18
ATOM     18  C   UNL d   1      50.852  34.275  53.073  0.00  0.00     0.056 A 
ATOM     19  C   UNL d   1      50.998  33.500  53.313  0.00  0.00     0.005 A 
ATOM     20  C   UNL d   1      51.761  33.280  53.563  0.00  0.00     0.013 A 
ATOM     21  C   UNL d   1      52.368  33.848  53.568  0.00  0.00     0.104 A 
ATOM     22  C   UNL d   1      52.209  34.626  53.325  0.00  0.00     0.013 A 
ATOM     23  C   UNL d   1      51.455  34.842  53.078  0.00  0.00     0.005 A 
BRANCH  21  24
ATOM     24  S   UNL d   1      53.131  33.631  53.817  0.00  0.00     0.271 S 
ATOM     25  O   UNL d   1      53.167  33.131  53.152  0.00  0.00    -0.200 OA
ATOM     26  O   UNL d   1      53.093  34.127  54.476  0.00  0.00    -0.200 OA
BRANCH  24  27
ATOM     27  N   UNL d   1      53.887  33.414  54.062  0.00  0.00    -0.229 N 
ATOM     28  C   UNL d   1      54.238  33.617  54.789  0.00  0.00     0.092 A 
ATOM     29  C   UNL d   1      54.992  33.289  54.805  0.00  0.00     0.021 A 
ATOM     30  C   UNL d   1      55.115  32.884  54.099  0.00  0.00     0.021 A 
ATOM     31  C   UNL d   1      54.434  32.964  53.643  0.00  0.00     0.092 A 
ENDBRANCH  24  27
ENDBRANCH  21  24
ENDBRANCH  15  18
ENDBRANCH   1  14
BRANCH   7  32
ATOM     32  O   UNL d   1      45.132  36.173  51.444  0.00  0.00    -0.257 OA
BRANCH  32  33
ATOM     33  C   UNL d   1      44.482  36.053  50.966  0.00  0.00     0.128 C 
ATOM     34  C   UNL d   1      44.329  35.303  50.672  0.00  0.00     0.029 C 
ENDBRANCH  32  33
ENDBRANCH   7  32
TORSDOF 6
ENDMDL
MODEL 2
REMARK VINA RESULT:      -8.6      1.247      7.108
REMARK  6 active torsions:
REMARK  status: ('A' for Active; 'I' for Inactive)
REMARK    1  A    between atoms: N_7  and  C_1 
REMARK    2  A    between atoms: S_2  and  C_14 
REMARK    3  A    between atoms: N_9  and  S_2 
REMARK       I    between atoms: C_11  and  N_7 
REMARK       I    between atoms: C_10  and  N_8 
REMARK    4  A    between atoms: O_27  and  C_10 
REMARK    5  A    between atoms: C_19  and  C_11 
REMARK    6  A    between atoms: C_30  and  O_27 
ROOT
ATOM      1  C   UNL d   1      50.575  34.489  52.789  0.00  0.00     0.099 A 
ATOM      2  C   UNL d   1      51.238  34.295  52.335  0.00  0.00     0.091 A 
ATOM      3  C   UNL d   1      51.616  34.255  53.617  0.00  0.00     0.049 A 
ATOM      4  C   UNL d   1      51.876  34.152  52.840  0.00  0.00     0.021 A 
ATOM      5  S   UNL d   1      50.812  34.463  53.594  0.00  0.00    -0.068 SA
ATOM      6  N   UNL d   1      52.929  33.934  54.104  0.00  0.00    -0.251 N 
ATOM      7  C   UNL d   1      53.451  33.826  54.732  0.00  0.00     0.378 C 
ATOM      8  C   UNL d   1      52.142  34.146  54.253  0.00  0.00     0.091 A 
ATOM      9  C   UNL d   1      51.268  34.250  51.514  0.00  0.00     0.103 C 
ATOM     10  N   UNL d   1      51.285  34.209  50.698  0.00  0.00    -0.191 NA
ATOM     11  C   UNL d   1      52.663  33.940  52.697  0.00  0.00     0.020 A 
ATOM     12  C   UNL d   1      53.183  33.833  53.328  0.00  0.00     0.085 A 
ATOM     13  O   UNL d   1      53.200  33.927  55.509  0.00  0.00    -0.237 OA
ENDROOT
BRANCH   1  14
ATOM     14  N   UNL d   1      49.821  34.672  52.496  0.00  0.00    -0.316 N 
ATOM     15  C   UNL d   1      49.334  35.207  52.913  0.00  0.00     0.258 C 
ATOM     16  O   UNL d   1      49.610  35.549  53.614  0.00  0.00    -0.267 OA
ATOM     17  H   UNL d   1      49.308  34.668  52.110  0.00  0.00     0.169 HD
BRANCH  15  18
ATOM     18  C   UNL d   1      48.580  35.391  52.620  0.00  0.00     0.056 A 
ATOM     19  C   UNL d   1      48.090  35.892  53.053  0.00  0.00     0.005 A 
ATOM     20  C   UNL d   1      47.332  36.081  52.767  0.00  0.00     0.013 A 
ATOM     21  C   UNL d   1      47.077  35.760  52.044  0.00  0.00     0.104 A 
ATOM     22  C   UNL d   1      47.580  35.255  51.616  0.00  0.00     0.013 A 
ATOM     23  C   UNL d   1      48.328  35.070  51.900  0.00  0.00     0.005 A 
BRANCH  21  24
ATOM     24  S   UNL d   1      46.321  35.946  51.754  0.00  0.00     0.271 S 
ATOM     25  O   UNL d   1      46.428  36.709  52.071  0.00  0.00    -0.200 OA
ATOM     26  O   UNL d   1      46.217  35.190  51.442  0.00  0.00    -0.200 OA
BRANCH  24  27
ATOM     27  N   UNL d   1      45.571  36.135  51.469  0.00  0.00    -0.229 N 
ATOM     28  C   UNL d   1      44.975  36.528  51.895  0.00  0.00     0.092 A 
ATOM     29  C   UNL d   1      44.320  36.602  51.403  0.00  0.00     0.021 A 
ATOM     30  C   UNL d   1      44.500  36.259  50.677  0.00  0.00     0.021 A 
ATOM     31  C   UNL d   1      45.271  35.972  50.720  0.00  0.00     0.092 A 
ENDBRANCH  24  27
ENDBRANCH  21  24
ENDBRANCH  15  18
ENDBRANCH   1  14
BRANCH   7  32
ATOM     32  O   UNL d   1      54.242  33.613  54.575  0.00  0.00    -0.257 OA
BRANCH  32  33
ATOM     33  C   UNL d   1      54.772  33.564  55.193  0.00  0.00     0.128 C 
ATOM     34  C   UNL d   1      55.567  33.714  55.057  0.00  0.00     0.029 C 
ENDBRANCH  32  33
ENDBRANCH   7  32
TORSDOF 6
ENDMDL
MODEL 3
REMARK VINA RESULT:      -8.5     10.853     11.805
REMARK  6 active torsions:
REMARK  status: ('A' for Active; 'I' for Inactive)
REMARK    1  A    between atoms: N_7  and  C_1 
REMARK    2  A    between atoms: S_2  and  C_14 
REMARK    3  A    between atoms: N_9  and  S_2 
REMARK       I    between atoms: C_11  and  N_7 
REMARK       I    between atoms: C_10  and  N_8 
REMARK    4  A    between atoms: O_27  and  C_10 
REMARK    5  A    between atoms: C_19  and  C_11 
REMARK    6  A    between atoms: C_30  and  O_27 
ROOT
ATOM      1  C   UNL d   1      44.556  25.475  56.587  0.00  0.00     0.099 A 
ATOM      2  C   UNL d   1      44.583  24.663  56.738  0.00  0.00     0.091 A 
ATOM      3  C   UNL d   1      44.629  24.816  55.411  0.00  0.00     0.049 A 
ATOM      4  C   UNL d   1      44.627  24.258  56.020  0.00  0.00     0.021 A 
ATOM      5  S   UNL d   1      44.585  25.572  55.753  0.00  0.00    -0.068 SA
ATOM      6  N   UNL d   1      44.710  23.761  54.438  0.00  0.00    -0.251 N 
ATOM      7  C   UNL d   1      44.750  23.516  53.653  0.00  0.00     0.378 C 
ATOM      8  C   UNL d   1      44.670  24.570  54.616  0.00  0.00     0.091 A 
ATOM      9  C   UNL d   1      44.568  24.306  57.479  0.00  0.00     0.103 C 
ATOM     10  N   UNL d   1      44.553  23.964  58.221  0.00  0.00    -0.191 NA
ATOM     11  C   UNL d   1      44.667  23.452  55.836  0.00  0.00     0.020 A 
ATOM     12  C   UNL d   1      44.708  23.209  55.048  0.00  0.00     0.085 A 
ATOM     13  O   UNL d   1      44.752  24.065  53.040  0.00  0.00    -0.237 OA
ENDROOT
BRANCH   1  14
ATOM     14  N   UNL d   1      44.509  26.075  57.157  0.00  0.00    -0.316 N 
ATOM     15  C   UNL d   1      44.890  26.806  57.022  0.00  0.00     0.258 C 
ATOM     16  O   UNL d   1      45.310  26.923  56.319  0.00  0.00    -0.267 OA
ATOM     17  H   UNL d   1      44.350  26.378  57.701  0.00  0.00     0.169 HD
BRANCH  15  18
ATOM     18  C   UNL d   1      44.843  27.406  57.592  0.00  0.00     0.056 A 
ATOM     19  C   UNL d   1      44.370  28.065  57.447  0.00  0.00     0.005 A 
ATOM     20  C   UNL d   1      44.318  28.672  58.014  0.00  0.00     0.013 A 
ATOM     21  C   UNL d   1      44.746  28.605  58.723  0.00  0.00     0.104 A 
ATOM     22  C   UNL d   1      45.220  27.936  58.859  0.00  0.00     0.013 A 
ATOM     23  C   UNL d   1      45.270  27.338  58.298  0.00  0.00     0.005 A 
BRANCH  21  24
ATOM     24  S   UNL d   1      44.696  29.209  59.291  0.00  0.00     0.271 S 
ATOM     25  O   UNL d   1      44.670  28.612  59.871  0.00  0.00    -0.200 OA
ATOM     26  O   UNL d   1      44.723  29.800  58.715  0.00  0.00    -0.200 OA
BRANCH  24  27
ATOM     27  N   UNL d   1      44.647  29.807  59.858  0.00  0.00    -0.229 N 
ATOM     28  C   UNL d   1      44.587  30.621  59.699  0.00  0.00     0.092 A 
ATOM     29  C   UNL d   1      44.551  31.016  60.419  0.00  0.00     0.021 A 
ATOM     30  C   UNL d   1      44.588  30.459  61.025  0.00  0.00     0.021 A 
ATOM     31  C   UNL d   1      44.647  29.715  60.676  0.00  0.00     0.092 A 
ENDBRANCH  24  27
ENDBRANCH  21  24
ENDBRANCH  15  18
ENDBRANCH   1  14
BRANCH   7  32
ATOM     32  O   UNL d   1      44.790  22.700  53.480  0.00  0.00    -0.257 OA
BRANCH  32  33
ATOM     33  C   UNL d   1      44.805  22.458  52.702  0.00  0.00     0.128 C 
ATOM     34  C   UNL d   1      45.085  21.710  52.516  0.00  0.00     0.029 C 
ENDBRANCH  32  33
ENDBRANCH   7  32
TORSDOF 6
ENDMDL
MODEL 4
REMARK VINA RESULT:      -8.0      8.703      9.404
REMARK  6 active torsions:
REMARK  status: ('A' for Active; 'I' for Inactive)
REMARK    1  A    between atoms: N_7  and  C_1 
REMARK    2  A    between atoms: S_2  and  C_14 
REMARK    3  A    between atoms: N_9  and  S_2 
REMARK       I    between atoms: C_11  and  N_7 
REMARK       I    between atoms: C_10  and  N_8 
REMARK    4  A    between atoms: O_27  and  C_10 
REMARK    5  A    between atoms: C_19  and  C_11 
REMARK    6  A    between atoms: C_30  and  O_27 
ROOT
ATOM      1  C   UNL d   1      44.318  30.453  57.139  0.00  0.00     0.099 A 
ATOM      2  C   UNL d   1      44.325  31.090  57.666  0.00  0.00     0.091 A 
ATOM      3  C   UNL d   1      44.318  31.603  56.431  0.00  0.00     0.049 A 
ATOM      4  C   UNL d   1      44.325  31.794  57.235  0.00  0.00     0.021 A 
ATOM      5  S   UNL d   1      44.314  30.775  56.364  0.00  0.00    -0.068 SA
ATOM      6  N   UNL d   1      44.322  33.000  56.094  0.00  0.00    -0.251 N 
ATOM      7  C   UNL d   1      44.321  33.597  55.527  0.00  0.00     0.378 C 
ATOM      8  C   UNL d   1      44.317  32.206  55.856  0.00  0.00     0.091 A 
ATOM      9  C   UNL d   1      44.330  31.041  58.487  0.00  0.00     0.103 C 
ATOM     10  N   UNL d   1      44.336  30.979  59.302  0.00  0.00    -0.191 NA
ATOM     11  C   UNL d   1      44.330  32.590  57.465  0.00  0.00     0.020 A 
ATOM     12  C   UNL d   1      44.329  33.185  56.895  0.00  0.00     0.085 A 
ATOM     13  O   UNL d   1      44.315  33.415  54.724  0.00  0.00    -0.237 OA
ENDROOT
BRANCH   1  14
ATOM     14  N   UNL d   1      44.316  29.650  57.346  0.00  0.00    -0.316 N 
ATOM     15  C   UNL d   1      44.651  29.088  56.828  0.00  0.00     0.258 C 
ATOM     16  O   UNL d   1      44.982  29.339  56.112  0.00  0.00    -0.267 OA
ATOM     17  H   UNL d   1      44.210  29.117  57.688  0.00  0.00     0.169 HD
BRANCH  15  18
ATOM     18  C   UNL d   1      44.649  28.285  57.034  0.00  0.00     0.056 A 
ATOM     19  C   UNL d   1      44.864  28.063  57.798  0.00  0.00     0.005 A 
ATOM     20  C   UNL d   1      44.864  27.260  58.013  0.00  0.00     0.013 A 
ATOM     21  C   UNL d   1      44.646  26.687  57.451  0.00  0.00     0.104 A 
ATOM     22  C   UNL d   1      44.431  26.922  56.684  0.00  0.00     0.013 A 
ATOM     23  C   UNL d   1      44.432  27.716  56.473  0.00  0.00     0.005 A 
BRANCH  21  24
ATOM     24  S   UNL d   1      44.645  25.884  57.663  0.00  0.00     0.271 S 
ATOM     25  O   UNL d   1      44.465  26.125  58.439  0.00  0.00    -0.200 OA
ATOM     26  O   UNL d   1      44.824  25.646  56.893  0.00  0.00    -0.200 OA
BRANCH  24  27
ATOM     27  N   UNL d   1      44.644  25.087  57.876  0.00  0.00    -0.229 N 
ATOM     28  C   UNL d   1      44.666  24.444  57.348  0.00  0.00     0.092 A 
ATOM     29  C   UNL d   1      44.656  23.752  57.792  0.00  0.00     0.021 A 
ATOM     30  C   UNL d   1      44.628  23.955  58.590  0.00  0.00     0.021 A 
ATOM     31  C   UNL d   1      44.620  24.778  58.638  0.00  0.00     0.092 A 
ENDBRANCH  24  27
ENDBRANCH  21  24
ENDBRANCH  15  18
ENDBRANCH   1  14
BRANCH   7  32
ATOM     32  O   UNL d   1      44.327  34.395  55.771  0.00  0.00    -0.257 OA
BRANCH  32  33
ATOM     33  C   UNL d   1      44.563  34.972  55.246  0.00  0.00     0.128 C 
ATOM     34  C   UNL d   1      44.398  35.759  55.408  0.00  0.00     0.029 C 
ENDBRANCH  32  33
ENDBRANCH   7  32
TORSDOF 6
ENDMDL
MODEL 5
REMARK VINA RESULT:      -7.9     10.977     11.987
REMARK  6 active torsions:
REMARK  status: ('A' for Active; 'I' for Inactive)
REMARK    1  A    between atoms: N_7  and  C_1 
REMARK    2  A    between atoms: S_2  and  C_14 
REMARK    3  A    between atoms: N_9  and  S_2 
REMARK       I    between atoms: C_11  and  N_7 
REMARK       I    between atoms: C_10  and  N_8 
REMARK    4  A    between atoms: O_27  and  C_10 
REMARK    5  A    between atoms: C_19  and  C_11 
REMARK    6  A    between atoms: C_30  and  O_27 
ROOT
ATOM      1  C   UNL d   1      44.472  26.230  57.383  0.00  0.00     0.099 A 
ATOM      2  C   UNL d   1      44.483  26.265  56.559  0.00  0.00     0.091 A 
ATOM      3  C   UNL d   1      44.645  24.982  56.897  0.00  0.00     0.049 A 
ATOM      4  C   UNL d   1      44.588  25.503  56.258  0.00  0.00     0.021 A 
ATOM      5  S   UNL d   1      44.574  25.424  57.597  0.00  0.00    -0.068 SA
ATOM      6  N   UNL d   1      44.807  23.880  55.989  0.00  0.00    -0.251 N 
ATOM      7  C   UNL d   1      44.915  23.074  55.856  0.00  0.00     0.378 C 
ATOM      8  C   UNL d   1      44.755  24.167  56.765  0.00  0.00     0.091 A 
ATOM      9  C   UNL d   1      44.402  26.944  56.101  0.00  0.00     0.103 C 
ATOM     10  N   UNL d   1      44.320  27.625  55.657  0.00  0.00    -0.191 NA
ATOM     11  C   UNL d   1      44.641  25.210  55.486  0.00  0.00     0.020 A 
ATOM     12  C   UNL d   1      44.750  24.402  55.357  0.00  0.00     0.085 A 
ATOM     13  O   UNL d   1      44.973  22.548  56.487  0.00  0.00    -0.237 OA
ENDROOT
BRANCH   1  14
ATOM     14  N   UNL d   1      44.378  26.873  57.898  0.00  0.00    -0.316 N 
ATOM     15  C   UNL d   1      44.926  26.993  58.516  0.00  0.00     0.258 C 
ATOM     16  O   UNL d   1      45.558  26.467  58.609  0.00  0.00    -0.267 OA
ATOM     17  H   UNL d   1      44.126  27.403  58.159  0.00  0.00     0.169 HD
BRANCH  15  18
ATOM     18  C   UNL d   1      44.832  27.637  59.031  0.00  0.00     0.056 A 
ATOM     19  C   UNL d   1      45.045  28.391  58.777  0.00  0.00     0.005 A 
ATOM     20  C   UNL d   1      44.953  29.042  59.287  0.00  0.00     0.013 A 
ATOM     21  C   UNL d   1      44.647  28.922  60.050  0.00  0.00     0.104 A 
ATOM     22  C   UNL d   1      44.436  28.157  60.296  0.00  0.00     0.013 A 
ATOM     23  C   UNL d   1      44.527  27.515  59.790  0.00  0.00     0.005 A 
BRANCH  21  24
ATOM     24  S   UNL d   1      44.554  29.570  60.562  0.00  0.00     0.271 S 
ATOM     25  O   UNL d   1      44.773  29.063  61.186  0.00  0.00    -0.200 OA
ATOM     26  O   UNL d   1      44.338  30.072  59.944  0.00  0.00    -0.200 OA
BRANCH  24  27
ATOM     27  N   UNL d   1      44.464  30.211  61.073  0.00  0.00    -0.229 N 
ATOM     28  C   UNL d   1      44.395  31.008  60.844  0.00  0.00     0.092 A 
ATOM     29  C   UNL d   1      44.314  31.461  61.525  0.00  0.00     0.021 A 
ATOM     30  C   UNL d   1      44.332  30.957  62.176  0.00  0.00     0.021 A 
ATOM     31  C   UNL d   1      44.424  30.188  61.895  0.00  0.00     0.092 A 
ENDBRANCH  24  27
ENDBRANCH  21  24
ENDBRANCH  15  18
ENDBRANCH   1  14
BRANCH   7  32
ATOM     32  O   UNL d   1      44.967  22.791  55.073  0.00  0.00    -0.257 OA
BRANCH  32  33
ATOM     33  C   UNL d   1      45.304  22.062  54.934  0.00  0.00     0.128 C 
ATOM     34  C   UNL d   1      45.342  21.773  54.167  0.00  0.00     0.029 C 
ENDBRANCH  32  33
ENDBRANCH   7  32
TORSDOF 6
ENDMDL
MODEL 6
REMARK VINA RESULT:      -7.7     10.884     11.756
REMARK  6 active torsions:
REMARK  status: ('A' for Active; 'I' for Inactive)
REMARK    1  A    between atoms: N_7  and  C_1 
REMARK    2  A    between atoms: S_2  and  C_14 
REMARK    3  A    between atoms: N_9  and  S_2 
REMARK       I    between atoms: C_11  and  N_7 
REMARK       I    between atoms: C_10  and  N_8 
REMARK    4  A    between atoms: O_27  and  C_10 
REMARK    5  A    between atoms: C_19  and  C_11 
REMARK    6  A    between atoms: C_30  and  O_27 
ROOT
ATOM      1  C   UNL d   1      44.595  27.903  58.704  0.00  0.00     0.099 A 
ATOM      2  C   UNL d   1      44.777  28.086  57.919  0.00  0.00     0.091 A 
ATOM      3  C   UNL d   1      44.617  26.760  57.986  0.00  0.00     0.049 A 
ATOM      4  C   UNL d   1      44.791  27.387  57.478  0.00  0.00     0.021 A 
ATOM      5  S   UNL d   1      44.494  27.071  58.746  0.00  0.00    -0.068 SA
ATOM      6  N   UNL d   1      44.740  25.835  56.893  0.00  0.00    -0.251 N 
ATOM      7  C   UNL d   1      44.715  25.064  56.604  0.00  0.00     0.378 C 
ATOM      8  C   UNL d   1      44.590  25.980  57.695  0.00  0.00     0.091 A 
ATOM      9  C   UNL d   1      44.923  28.836  57.616  0.00  0.00     0.103 C 
ATOM     10  N   UNL d   1      45.066  29.587  57.327  0.00  0.00    -0.191 NA
ATOM     11  C   UNL d   1      44.940  27.236  56.677  0.00  0.00     0.020 A 
ATOM     12  C   UNL d   1      44.913  26.463  56.391  0.00  0.00     0.085 A 
ATOM     13  O   UNL d   1      44.542  24.433  57.104  0.00  0.00    -0.237 OA
ENDROOT
BRANCH   1  14
ATOM     14  N   UNL d   1      44.526  28.446  59.327  0.00  0.00    -0.316 N 
ATOM     15  C   UNL d   1      44.798  28.240  60.088  0.00  0.00     0.258 C 
ATOM     16  O   UNL d   1      45.135  27.495  60.213  0.00  0.00    -0.267 OA
ATOM     17  H   UNL d   1      44.381  28.988  59.639  0.00  0.00     0.169 HD
BRANCH  15  18
ATOM     18  C   UNL d   1      44.730  28.783  60.711  0.00  0.00     0.056 A 
ATOM     19  C   UNL d   1      44.905  28.542  61.479  0.00  0.00     0.005 A 
ATOM     20  C   UNL d   1      44.839  29.080  62.110  0.00  0.00     0.013 A 
ATOM     21  C   UNL d   1      44.595  29.860  61.956  0.00  0.00     0.104 A 
ATOM     22  C   UNL d   1      44.420  30.093  61.178  0.00  0.00     0.013 A 
ATOM     23  C   UNL d   1      44.486  29.559  60.556  0.00  0.00     0.005 A 
BRANCH  21  24
ATOM     24  S   UNL d   1      44.527  30.401  62.583  0.00  0.00     0.271 S 
ATOM     25  O   UNL d   1      44.316  29.757  63.068  0.00  0.00    -0.200 OA
ATOM     26  O   UNL d   1      44.737  31.037  62.102  0.00  0.00    -0.200 OA
BRANCH  24  27
ATOM     27  N   UNL d   1      44.459  30.935  63.208  0.00  0.00    -0.229 N 
ATOM     28  C   UNL d   1      44.486  30.741  64.016  0.00  0.00     0.092 A 
ATOM     29  C   UNL d   1      44.397  31.436  64.446  0.00  0.00     0.021 A 
ATOM     30  C   UNL d   1      44.315  32.061  63.915  0.00  0.00     0.021 A 
ATOM     31  C   UNL d   1      44.354  31.749  63.154  0.00  0.00     0.092 A 
ENDBRANCH  24  27
ENDBRANCH  21  24
ENDBRANCH  15  18
ENDBRANCH   1  14
BRANCH   7  32
ATOM     32  O   UNL d   1      44.866  24.924  55.796  0.00  0.00    -0.257 OA
BRANCH  32  33
ATOM     33  C   UNL d   1      44.709  24.188  55.482  0.00  0.00     0.128 C 
ATOM     34  C   UNL d   1      44.593  24.110  54.674  0.00  0.00     0.029 C 
ENDBRANCH  32  33
ENDBRANCH   7  32
TORSDOF 6
ENDMDL
MODEL 7
REMARK VINA RESULT:      -7.2     10.777     11.626
REMARK  6 active torsions:
REMARK  status: ('A' for Active; 'I' for Inactive)
REMARK    1  A    between atoms: N_7  and  C_1 
REMARK    2  A    between atoms: S_2  and  C_14 
REMARK    3  A    between atoms: N_9  and  S_2 
REMARK       I    between atoms: C_11  and  N_7 
REMARK       I    between atoms: C_10  and  N_8 
REMARK    4  A    between atoms: O_27  and  C_10 
REMARK    5  A    between atoms: C_19  and  C_11 
REMARK    6  A    between atoms: C_30  and  O_27 
ROOT
ATOM      1  C   UNL d   1      44.340  28.157  59.544  0.00  0.00     0.099 A 
ATOM      2  C   UNL d   1      44.347  28.023  60.359  0.00  0.00     0.091 A 
ATOM      3  C   UNL d   1      44.384  29.347  60.180  0.00  0.00     0.049 A 
ATOM      4  C   UNL d   1      44.374  28.750  60.750  0.00  0.00     0.021 A 
ATOM      5  S   UNL d   1      44.363  28.989  59.431  0.00  0.00    -0.068 SA
ATOM      6  N   UNL d   1      44.428  30.342  61.216  0.00  0.00    -0.251 N 
ATOM      7  C   UNL d   1      44.454  31.132  61.446  0.00  0.00     0.378 C 
ATOM      8  C   UNL d   1      44.411  30.147  60.411  0.00  0.00     0.091 A 
ATOM      9  C   UNL d   1      44.331  27.289  60.731  0.00  0.00     0.103 C 
ATOM     10  N   UNL d   1      44.314  26.554  61.088  0.00  0.00    -0.191 NA
ATOM     11  C   UNL d   1      44.391  28.951  61.553  0.00  0.00     0.020 A 
ATOM     12  C   UNL d   1      44.418  29.743  61.780  0.00  0.00     0.085 A 
ATOM     13  O   UNL d   1      44.464  31.734  60.885  0.00  0.00    -0.237 OA
ENDROOT
BRANCH   1  14
ATOM     14  N   UNL d   1      44.314  27.574  58.955  0.00  0.00    -0.316 N 
ATOM     15  C   UNL d   1      44.843  27.613  58.310  0.00  0.00     0.258 C 
ATOM     16  O   UNL d   1      45.388  28.235  58.266  0.00  0.00    -0.267 OA
ATOM     17  H   UNL d   1      44.128  27.049  58.635  0.00  0.00     0.169 HD
BRANCH  15  18
ATOM     18  C   UNL d   1      44.817  27.031  57.720  0.00  0.00     0.056 A 
ATOM     19  C   UNL d   1      45.260  26.342  57.814  0.00  0.00     0.005 A 
ATOM     20  C   UNL d   1      45.240  25.752  57.227  0.00  0.00     0.013 A 
ATOM     21  C   UNL d   1      44.771  25.867  56.550  0.00  0.00     0.104 A 
ATOM     22  C   UNL d   1      44.329  26.565  56.466  0.00  0.00     0.013 A 
ATOM     23  C   UNL d   1      44.350  27.146  57.047  0.00  0.00     0.005 A 
BRANCH  21  24
ATOM     24  S   UNL d   1      44.748  25.280  55.962  0.00  0.00     0.271 S 
ATOM     25  O   UNL d   1      44.341  25.827  55.483  0.00  0.00    -0.200 OA
ATOM     26  O   UNL d   1      45.152  24.740  56.437  0.00  0.00    -0.200 OA
BRANCH  24  27
ATOM     27  N   UNL d   1      44.724  24.700  55.376  0.00  0.00    -0.229 N 
ATOM     28  C   UNL d   1      44.817  23.883  55.499  0.00  0.00     0.092 A 
ATOM     29  C   UNL d   1      44.755  23.509  54.770  0.00  0.00     0.021 A 
ATOM     30  C   UNL d   1      44.624  24.082  54.193  0.00  0.00     0.021 A 
ATOM     31  C   UNL d   1      44.606  24.815  54.570  0.00  0.00     0.092 A 
ENDBRANCH  24  27
ENDBRANCH  21  24
ENDBRANCH  15  18
ENDBRANCH   1  14
BRANCH   7  32
ATOM     32  O   UNL d   1      44.471  31.322  62.259  0.00  0.00    -0.257 OA
BRANCH  32  33
ATOM     33  C   UNL d   1      44.314  32.087  62.493  0.00  0.00     0.128 C 
ATOM     34  C   UNL d   1      44.314  32.274  63.291  0.00  0.00     0.029 C 
ENDBRANCH  32  33
ENDBRANCH   7  32
TORSDOF 6
ENDMDL
