MODEL 1
REMARK VINA RESULT:      66.5      0.000      0.000
REMARK  7 active torsions:
REMARK  status: ('A' for Active; 'I' for Inactive)
REMARK    1  A    between atoms: C_14  and  N_3 
REMARK    2  A    between atoms: C_10  and  C_6 
REMARK    3  A    between atoms: C_15  and  C_14 
REMARK    4  A    between atoms: C_20  and  C_15 
REMARK    5  A    between atoms: N_16  and  C_20 
REMARK    6  A    between atoms: C_23  and  N_16 
REMARK    7  A    between atoms: C_24  and  N_16 
ROOT
ATOM      1  C   UNL d   1     -50.489  25.999  33.390  0.00  0.00     0.083 A 
ATOM      2  C   UNL d   1     -49.812  25.547  33.416  0.00  0.00     0.161 A 
ATOM      3  N   UNL d   1     -49.449  26.811  33.439  0.00  0.00    -0.272 N 
ATOM      4  C   UNL d   1     -49.170  26.047  33.446  0.00  0.00     0.288 A 
ATOM      5  C   UNL d   1     -51.223  25.639  33.357  0.00  0.00     0.201 A 
ATOM      6  C   UNL d   1     -50.262  26.782  33.404  0.00  0.00     0.074 A 
ATOM      7  O   UNL d   1     -49.870  24.727  33.409  0.00  0.00    -0.302 OA
ATOM      8  C   UNL d   1     -51.276  24.816  33.350  0.00  0.00     0.062 A 
ATOM      9  C   UNL d   1     -50.599  24.365  33.376  0.00  0.00     0.103 A 
ATOM     10  O   UNL d   1     -48.377  25.818  33.478  0.00  0.00    -0.264 OA
ATOM     11  O   UNL d   1     -51.919  26.103  33.330  0.00  0.00    -0.286 OA
ATOM     12  C   UNL d   1     -52.010  24.457  33.316  0.00  0.00     0.005 A 
ATOM     13  C   UNL d   1     -50.651  23.551  33.368  0.00  0.00     0.025 A 
ATOM     14  C   UNL d   1     -52.058  23.641  33.310  0.00  0.00     0.000 A 
ATOM     15  C   UNL d   1     -51.381  23.190  33.335  0.00  0.00     0.002 A 
ENDROOT
BRANCH   3  16
ATOM     16  C   UNL d   1     -48.991  27.500  33.462  0.00  0.00     0.085 C 
BRANCH  16  17
ATOM     17  C   UNL d   1     -48.833  27.876  34.194  0.00  0.00     0.038 C 
BRANCH  17  18
ATOM     18  C   UNL d   1     -48.294  28.503  34.232  0.00  0.00     0.082 C 
BRANCH  18  19
ATOM     19  N   UNL d   1     -48.222  28.948  34.930  0.00  0.00    -0.302 N 
BRANCH  19  20
ATOM     20  C   UNL d   1     -48.531  28.653  35.643  0.00  0.00     0.080 C 
ATOM     21  C   UNL d   1     -48.043  28.221  36.161  0.00  0.00     0.021 C 
ENDBRANCH  19  20
BRANCH  19  22
ATOM     22  C   UNL d   1     -47.840  29.688  34.915  0.00  0.00     0.080 C 
ATOM     23  C   UNL d   1     -48.103  30.286  34.397  0.00  0.00     0.021 C 
ENDBRANCH  19  22
ENDBRANCH  18  19
ENDBRANCH  17  18
ENDBRANCH  16  17
ENDBRANCH   3  16
BRANCH   6  24
ATOM     24  C   UNL d   1     -50.778  27.436  33.386  0.00  0.00     0.036 A 
ATOM     25  C   UNL d   1     -50.472  28.208  33.430  0.00  0.00     0.100 A 
ATOM     26  N   UNL d   1     -50.983  28.859  33.412  0.00  0.00    -0.242 NA
ATOM     27  C   UNL d   1     -51.808  28.743  33.351  0.00  0.00     0.099 A 
ATOM     28  C   UNL d   1     -52.112  27.967  33.308  0.00  0.00     0.021 A 
ATOM     29  C   UNL d   1     -51.600  27.316  33.325  0.00  0.00     0.005 A 
ENDBRANCH   6  24
TORSDOF 7
ENDMDL
