MODEL 1
REMARK VINA RESULT:      -2.7      0.000      0.000
REMARK  5 active torsions:
REMARK  status: ('A' for Active; 'I' for Inactive)
REMARK    1  A    between atoms: C_13  and  C_5 
REMARK    2  A    between atoms: C_16  and  C_13 
REMARK    3  A    between atoms: C_19  and  C_16 
REMARK    4  A    between atoms: C_17  and  C_18 
REMARK    5  A    between atoms: C_18  and  C_19 
ROOT
ATOM      1  C   UNL d   1      59.321  -2.035  29.013  0.00  0.00     0.111 A 
ATOM      2  C   UNL d   1      59.772  -0.667  29.073  0.00  0.00     0.062 A 
ATOM      3  C   UNL d   1      60.043  -2.260  28.716  0.00  0.00     0.213 A 
ATOM      4  C   UNL d   1      60.527  -0.918  28.759  0.00  0.00     0.105 A 
ATOM      5  C   UNL d   1      59.177  -1.224  29.197  0.00  0.00     0.018 A 
ATOM      6  O   UNL d   1      60.672  -1.679  28.583  0.00  0.00    -0.287 OA
ATOM      7  C   UNL d   1      58.726  -2.594  29.137  0.00  0.00     0.105 C 
ATOM      8  C   UNL d   1      59.653   0.125  29.245  0.00  0.00     0.198 A 
ATOM      9  N   UNL d   1      58.117  -3.164  29.264  0.00  0.00    -0.191 NA
ATOM     10  N   UNL d   1      60.208  -3.088  28.521  0.00  0.00    -0.120 N 
ATOM     11  O   UNL d   1      58.904   0.347  29.551  0.00  0.00    -0.286 OA
ATOM     12  C   UNL d   1      61.132  -0.347  28.634  0.00  0.00     0.025 A 
ATOM     13  C   UNL d   1      60.253   0.681  29.118  0.00  0.00     0.042 A 
ATOM     14  C   UNL d   1      60.993   0.450  28.814  0.00  0.00     0.005 A 
ENDROOT
BRANCH   5  15
ATOM     15  C   UNL d   1      58.460  -1.001  29.492  0.00  0.00     0.001 C 
BRANCH  15  16
ATOM     16  C   UNL d   1      58.290  -1.072  30.282  0.00  0.00     0.000 C 
BRANCH  16  17
ATOM     17  C   UNL d   1      57.532  -0.849  30.608  0.00  0.00     0.000 C 
BRANCH  17  18
ATOM     18  C   UNL d   1      57.385  -0.973  31.404  0.00  0.00     0.000 C 
BRANCH  18  19
ATOM     19  C   UNL d   1      56.714  -0.629  31.734  0.00  0.00     0.000 C 
ATOM     20  C   UNL d   1      56.315  -1.009  32.325  0.00  0.00     0.000 C 
ENDBRANCH  18  19
ENDBRANCH  17  18
ENDBRANCH  16  17
ENDBRANCH  15  16
ENDBRANCH   5  15
TORSDOF 5
ENDMDL
MODEL 2
REMARK VINA RESULT:      -2.6      2.394      2.832
REMARK  5 active torsions:
REMARK  status: ('A' for Active; 'I' for Inactive)
REMARK    1  A    between atoms: C_13  and  C_5 
REMARK    2  A    between atoms: C_16  and  C_13 
REMARK    3  A    between atoms: C_19  and  C_16 
REMARK    4  A    between atoms: C_17  and  C_18 
REMARK    5  A    between atoms: C_18  and  C_19 
ROOT
ATOM      1  C   UNL d   1      59.369   0.680  31.431  0.00  0.00     0.111 A 
ATOM      2  C   UNL d   1      58.768   0.680  30.120  0.00  0.00     0.062 A 
ATOM      3  C   UNL d   1      60.107   0.679  31.092  0.00  0.00     0.213 A 
ATOM      4  C   UNL d   1      59.552   0.679  29.778  0.00  0.00     0.105 A 
ATOM      5  C   UNL d   1      58.682   0.681  30.940  0.00  0.00     0.018 A 
ATOM      6  O   UNL d   1      60.204   0.679  30.232  0.00  0.00    -0.287 OA
ATOM      7  C   UNL d   1      59.284   0.681  32.252  0.00  0.00     0.105 C 
ATOM      8  C   UNL d   1      58.115   0.680  29.626  0.00  0.00     0.198 A 
ATOM      9  N   UNL d   1      59.195   0.682  33.091  0.00  0.00    -0.191 NA
ATOM     10  N   UNL d   1      60.823   0.679  31.581  0.00  0.00    -0.120 N 
ATOM     11  O   UNL d   1      57.357   0.682  29.986  0.00  0.00    -0.286 OA
ATOM     12  C   UNL d   1      59.637   0.678  28.941  0.00  0.00     0.025 A 
ATOM     13  C   UNL d   1      58.206   0.680  28.803  0.00  0.00     0.042 A 
ATOM     14  C   UNL d   1      58.964   0.679  28.456  0.00  0.00     0.005 A 
ENDROOT
BRANCH   5  15
ATOM     15  C   UNL d   1      57.949   0.682  31.277  0.00  0.00     0.001 C 
BRANCH  15  16
ATOM     16  C   UNL d   1      57.685   0.049  31.710  0.00  0.00     0.000 C 
BRANCH  16  17
ATOM     17  C   UNL d   1      56.857  -0.066  31.892  0.00  0.00     0.000 C 
BRANCH  17  18
ATOM     18  C   UNL d   1      56.597  -0.805  32.131  0.00  0.00     0.000 C 
BRANCH  18  19
ATOM     19  C   UNL d   1      55.919  -0.848  32.596  0.00  0.00     0.000 C 
ATOM     20  C   UNL d   1      55.802  -1.484  33.079  0.00  0.00     0.000 C 
ENDBRANCH  18  19
ENDBRANCH  17  18
ENDBRANCH  16  17
ENDBRANCH  15  16
ENDBRANCH   5  15
TORSDOF 5
ENDMDL
MODEL 3
REMARK VINA RESULT:      -1.9      2.053      2.497
REMARK  5 active torsions:
REMARK  status: ('A' for Active; 'I' for Inactive)
REMARK    1  A    between atoms: C_13  and  C_5 
REMARK    2  A    between atoms: C_16  and  C_13 
REMARK    3  A    between atoms: C_19  and  C_16 
REMARK    4  A    between atoms: C_17  and  C_18 
REMARK    5  A    between atoms: C_18  and  C_19 
ROOT
ATOM      1  C   UNL d   1      58.713   0.534  29.804  0.00  0.00     0.111 A 
ATOM      2  C   UNL d   1      59.578   0.604  30.955  0.00  0.00     0.062 A 
ATOM      3  C   UNL d   1      59.363   0.506  29.318  0.00  0.00     0.213 A 
ATOM      4  C   UNL d   1      60.253   0.574  30.431  0.00  0.00     0.105 A 
ATOM      5  C   UNL d   1      58.816   0.584  30.640  0.00  0.00     0.018 A 
ATOM      6  O   UNL d   1      60.166   0.527  29.642  0.00  0.00    -0.287 OA
ATOM      7  C   UNL d   1      57.951   0.514  29.487  0.00  0.00     0.105 C 
ATOM      8  C   UNL d   1      59.700   0.653  31.764  0.00  0.00     0.198 A 
ATOM      9  N   UNL d   1      57.171   0.493  29.165  0.00  0.00    -0.191 NA
ATOM     10  N   UNL d   1      59.275   0.454  28.456  0.00  0.00    -0.120 N 
ATOM     11  O   UNL d   1      59.022   0.681  32.257  0.00  0.00    -0.286 OA
ATOM     12  C   UNL d   1      61.029   0.594  30.755  0.00  0.00     0.025 A 
ATOM     13  C   UNL d   1      60.467   0.673  32.076  0.00  0.00     0.042 A 
ATOM     14  C   UNL d   1      61.133   0.644  31.577  0.00  0.00     0.005 A 
ENDROOT
BRANCH   5  15
ATOM     15  C   UNL d   1      58.171   0.612  31.123  0.00  0.00     0.001 C 
BRANCH  15  16
ATOM     16  C   UNL d   1      57.679  -0.028  31.205  0.00  0.00     0.000 C 
BRANCH  16  17
ATOM     17  C   UNL d   1      57.113  -0.090  31.842  0.00  0.00     0.000 C 
BRANCH  17  18
ATOM     18  C   UNL d   1      56.668  -0.773  31.919  0.00  0.00     0.000 C 
BRANCH  18  19
ATOM     19  C   UNL d   1      55.955  -0.731  32.327  0.00  0.00     0.000 C 
ATOM     20  C   UNL d   1      55.951  -0.718  33.134  0.00  0.00     0.000 C 
ENDBRANCH  18  19
ENDBRANCH  17  18
ENDBRANCH  16  17
ENDBRANCH  15  16
ENDBRANCH   5  15
TORSDOF 5
ENDMDL
MODEL 4
REMARK VINA RESULT:      -1.3      8.864      9.217
REMARK  5 active torsions:
REMARK  status: ('A' for Active; 'I' for Inactive)
REMARK    1  A    between atoms: C_13  and  C_5 
REMARK    2  A    between atoms: C_16  and  C_13 
REMARK    3  A    between atoms: C_19  and  C_16 
REMARK    4  A    between atoms: C_17  and  C_18 
REMARK    5  A    between atoms: C_18  and  C_19 
ROOT
ATOM      1  C   UNL d   1      59.660  -9.796  31.418  0.00  0.00     0.111 A 
ATOM      2  C   UNL d   1      58.218  -9.801  31.426  0.00  0.00     0.062 A 
ATOM      3  C   UNL d   1      59.655  -9.787  30.606  0.00  0.00     0.213 A 
ATOM      4  C   UNL d   1      58.229  -9.792  30.571  0.00  0.00     0.105 A 
ATOM      5  C   UNL d   1      58.930  -9.803  31.842  0.00  0.00     0.018 A 
ATOM      6  O   UNL d   1      58.911  -9.785  30.163  0.00  0.00    -0.287 OA
ATOM      7  C   UNL d   1      60.373  -9.798  31.835  0.00  0.00     0.105 C 
ATOM      8  C   UNL d   1      57.499  -9.808  31.818  0.00  0.00     0.198 A 
ATOM      9  N   UNL d   1      61.101  -9.800  32.261  0.00  0.00    -0.191 NA
ATOM     10  N   UNL d   1      60.396  -9.780  30.156  0.00  0.00    -0.120 N 
ATOM     11  O   UNL d   1      57.514  -9.817  32.657  0.00  0.00    -0.286 OA
ATOM     12  C   UNL d   1      57.501  -9.790  30.149  0.00  0.00     0.025 A 
ATOM     13  C   UNL d   1      56.786  -9.807  31.396  0.00  0.00     0.042 A 
ATOM     14  C   UNL d   1      56.782  -9.798  30.563  0.00  0.00     0.005 A 
ENDROOT
BRANCH   5  15
ATOM     15  C   UNL d   1      58.934  -9.812  32.649  0.00  0.00     0.001 C 
BRANCH  15  16
ATOM     16  C   UNL d   1      59.391  -9.292  33.072  0.00  0.00     0.000 C 
BRANCH  16  17
ATOM     17  C   UNL d   1      59.331  -9.219  33.922  0.00  0.00     0.000 C 
BRANCH  17  18
ATOM     18  C   UNL d   1      59.878  -8.762  34.326  0.00  0.00     0.000 C 
BRANCH  18  19
ATOM     19  C   UNL d   1      59.645  -8.407  35.031  0.00  0.00     0.000 C 
ATOM     20  C   UNL d   1      59.850  -8.741  35.737  0.00  0.00     0.000 C 
ENDBRANCH  18  19
ENDBRANCH  17  18
ENDBRANCH  16  17
ENDBRANCH  15  16
ENDBRANCH   5  15
TORSDOF 5
ENDMDL
MODEL 5
REMARK VINA RESULT:       0.2      8.174      8.966
REMARK  5 active torsions:
REMARK  status: ('A' for Active; 'I' for Inactive)
REMARK    1  A    between atoms: C_13  and  C_5 
REMARK    2  A    between atoms: C_16  and  C_13 
REMARK    3  A    between atoms: C_19  and  C_16 
REMARK    4  A    between atoms: C_17  and  C_18 
REMARK    5  A    between atoms: C_18  and  C_19 
ROOT
ATOM      1  C   UNL d   1      58.236  -9.766  31.832  0.00  0.00     0.111 A 
ATOM      2  C   UNL d   1      59.458  -9.778  31.067  0.00  0.00     0.062 A 
ATOM      3  C   UNL d   1      58.666  -9.747  32.520  0.00  0.00     0.213 A 
ATOM      4  C   UNL d   1      59.898  -9.758  31.800  0.00  0.00     0.105 A 
ATOM      5  C   UNL d   1      58.634  -9.782  31.087  0.00  0.00     0.018 A 
ATOM      6  O   UNL d   1      59.532  -9.743  32.505  0.00  0.00    -0.287 OA
ATOM      7  C   UNL d   1      57.410  -9.770  31.852  0.00  0.00     0.105 C 
ATOM      8  C   UNL d   1      59.864  -9.793  30.356  0.00  0.00     0.198 A 
ATOM      9  N   UNL d   1      56.567  -9.773  31.873  0.00  0.00    -0.191 NA
ATOM     10  N   UNL d   1      58.273  -9.731  33.292  0.00  0.00    -0.120 N 
ATOM     11  O   UNL d   1      59.410  -9.812  29.651  0.00  0.00    -0.286 OA
ATOM     12  C   UNL d   1      60.740  -9.755  31.776  0.00  0.00     0.025 A 
ATOM     13  C   UNL d   1      60.692  -9.789  30.341  0.00  0.00     0.042 A 
ATOM     14  C   UNL d   1      61.133  -9.770  31.047  0.00  0.00     0.005 A 
ENDROOT
BRANCH   5  15
ATOM     15  C   UNL d   1      58.206  -9.800  30.403  0.00  0.00     0.001 C 
BRANCH  15  16
ATOM     16  C   UNL d   1      57.886  -9.124  30.090  0.00  0.00     0.000 C 
BRANCH  16  17
ATOM     17  C   UNL d   1      57.318  -9.142  29.451  0.00  0.00     0.000 C 
BRANCH  17  18
ATOM     18  C   UNL d   1      57.118  -8.444  29.072  0.00  0.00     0.000 C 
BRANCH  18  19
ATOM     19  C   UNL d   1      56.558  -8.474  28.470  0.00  0.00     0.000 C 
ATOM     20  C   UNL d   1      55.965  -9.021  28.496  0.00  0.00     0.000 C 
ENDBRANCH  18  19
ENDBRANCH  17  18
ENDBRANCH  16  17
ENDBRANCH  15  16
ENDBRANCH   5  15
TORSDOF 5
ENDMDL
