MODEL 1
REMARK VINA RESULT:      -7.1      0.000      0.000
REMARK  2 active torsions:
REMARK  status: ('A' for Active; 'I' for Inactive)
REMARK    1  A    between atoms: C_7  and  C_1 
REMARK    2  A    between atoms: C_8  and  C_7 
ROOT
ATOM      1  C   UNL d   1     -47.285  12.236  23.477  0.00  0.00     0.118 A 
ATOM      2  N   UNL d   1     -46.763  10.923  23.689  0.00  0.00    -0.178 NA
ATOM      3  N   UNL d   1     -45.875  12.017  23.474  0.00  0.00    -0.178 NA
ATOM      4  C   UNL d   1     -47.410  11.435  23.620  0.00  0.00     0.286 A 
ATOM      5  C   UNL d   1     -46.522  12.528  23.404  0.00  0.00     0.286 A 
ATOM      6  C   UNL d   1     -45.980  11.203  23.618  0.00  0.00     0.226 A 
ATOM      7  S   UNL d   1     -45.336  10.695  23.687  0.00  0.00    -0.037 SA
ATOM      8  O   UNL d   1     -48.185  11.128  23.695  0.00  0.00    -0.265 OA
ATOM      9  O   UNL d   1     -46.388  13.341  23.259  0.00  0.00    -0.265 OA
ENDROOT
BRANCH   1  10
ATOM     10  C   UNL d   1     -47.935  12.750  23.407  0.00  0.00     0.034 C 
BRANCH  10  11
ATOM     11  C   UNL d   1     -48.281  12.863  22.676  0.00  0.00     0.100 A 
ATOM     12  O   UNL d   1     -49.104  12.943  22.623  0.00  0.00    -0.307 OA
ATOM     13  C   UNL d   1     -49.290  13.048  21.825  0.00  0.00     0.100 A 
ATOM     14  C   UNL d   1     -50.049  13.152  21.512  0.00  0.00     0.027 C 
ATOM     15  C   UNL d   1     -48.603  13.033  21.403  0.00  0.00     0.027 A 
ATOM     16  C   UNL d   1     -47.964  12.918  21.911  0.00  0.00     0.027 A 
ENDBRANCH  10  11
ENDBRANCH   1  10
TORSDOF 2
ENDMDL
MODEL 2
REMARK VINA RESULT:      -7.0      2.864      3.702
REMARK  2 active torsions:
REMARK  status: ('A' for Active; 'I' for Inactive)
REMARK    1  A    between atoms: C_7  and  C_1 
REMARK    2  A    between atoms: C_8  and  C_7 
ROOT
ATOM      1  C   UNL d   1     -48.860  14.217  22.619  0.00  0.00     0.118 A 
ATOM      2  N   UNL d   1     -50.050  14.445  23.377  0.00  0.00    -0.178 NA
ATOM      3  N   UNL d   1     -49.266  15.549  22.933  0.00  0.00    -0.178 NA
ATOM      4  C   UNL d   1     -49.517  13.922  23.019  0.00  0.00     0.286 A 
ATOM      5  C   UNL d   1     -48.733  15.026  22.575  0.00  0.00     0.286 A 
ATOM      6  C   UNL d   1     -49.936  15.271  23.342  0.00  0.00     0.226 A 
ATOM      7  S   UNL d   1     -50.465  15.791  23.698  0.00  0.00    -0.037 SA
ATOM      8  O   UNL d   1     -49.655  13.098  23.068  0.00  0.00    -0.265 OA
ATOM      9  O   UNL d   1     -48.067  15.332  22.171  0.00  0.00    -0.265 OA
ENDROOT
BRANCH   1  10
ATOM     10  C   UNL d   1     -48.325  13.692  22.259  0.00  0.00     0.034 C 
BRANCH  10  11
ATOM     11  C   UNL d   1     -47.665  13.446  22.672  0.00  0.00     0.100 A 
ATOM     12  O   UNL d   1     -47.591  12.649  22.885  0.00  0.00    -0.307 OA
ATOM     13  C   UNL d   1     -46.877  12.568  23.291  0.00  0.00     0.100 A 
ATOM     14  C   UNL d   1     -46.574  11.866  23.608  0.00  0.00     0.027 C 
ATOM     15  C   UNL d   1     -46.524  13.292  23.326  0.00  0.00     0.027 A 
ATOM     16  C   UNL d   1     -46.996  13.853  22.948  0.00  0.00     0.027 A 
ENDBRANCH  10  11
ENDBRANCH   1  10
TORSDOF 2
ENDMDL
MODEL 3
REMARK VINA RESULT:      -6.9      1.113      1.854
REMARK  2 active torsions:
REMARK  status: ('A' for Active; 'I' for Inactive)
REMARK    1  A    between atoms: C_7  and  C_1 
REMARK    2  A    between atoms: C_8  and  C_7 
ROOT
ATOM      1  C   UNL d   1     -48.671  12.282  23.494  0.00  0.00     0.118 A 
ATOM      2  N   UNL d   1     -47.247  12.399  23.490  0.00  0.00    -0.178 NA
ATOM      3  N   UNL d   1     -47.856  11.126  23.688  0.00  0.00    -0.178 NA
ATOM      4  C   UNL d   1     -47.995  12.747  23.426  0.00  0.00     0.286 A 
ATOM      5  C   UNL d   1     -48.604  11.474  23.624  0.00  0.00     0.286 A 
ATOM      6  C   UNL d   1     -47.160  11.579  23.623  0.00  0.00     0.226 A 
ATOM      7  S   UNL d   1     -46.416  11.233  23.686  0.00  0.00    -0.037 SA
ATOM      8  O   UNL d   1     -48.054  13.571  23.293  0.00  0.00    -0.265 OA
ATOM      9  O   UNL d   1     -49.287  10.995  23.694  0.00  0.00    -0.265 OA
ENDROOT
BRANCH   1  10
ATOM     10  C   UNL d   1     -49.422  12.631  23.430  0.00  0.00     0.034 C 
BRANCH  10  11
ATOM     11  C   UNL d   1     -49.758  12.729  22.692  0.00  0.00     0.100 A 
ATOM     12  O   UNL d   1     -50.275  13.362  22.560  0.00  0.00    -0.307 OA
ATOM     13  C   UNL d   1     -50.523  13.318  21.774  0.00  0.00     0.100 A 
ATOM     14  C   UNL d   1     -51.044  13.840  21.398  0.00  0.00     0.027 C 
ATOM     15  C   UNL d   1     -50.170  12.678  21.435  0.00  0.00     0.027 A 
ATOM     16  C   UNL d   1     -49.690  12.296  21.986  0.00  0.00     0.027 A 
ENDBRANCH  10  11
ENDBRANCH   1  10
TORSDOF 2
ENDMDL
MODEL 4
REMARK VINA RESULT:      -6.8      1.421      1.624
REMARK  2 active torsions:
REMARK  status: ('A' for Active; 'I' for Inactive)
REMARK    1  A    between atoms: C_7  and  C_1 
REMARK    2  A    between atoms: C_8  and  C_7 
ROOT
ATOM      1  C   UNL d   1     -47.249  12.810  23.310  0.00  0.00     0.118 A 
ATOM      2  N   UNL d   1     -45.934  12.398  22.929  0.00  0.00    -0.178 NA
ATOM      3  N   UNL d   1     -46.416  13.683  22.546  0.00  0.00    -0.178 NA
ATOM      4  C   UNL d   1     -46.652  12.243  23.312  0.00  0.00     0.286 A 
ATOM      5  C   UNL d   1     -47.134  13.528  22.929  0.00  0.00     0.286 A 
ATOM      6  C   UNL d   1     -45.801  13.123  22.537  0.00  0.00     0.226 A 
ATOM      7  S   UNL d   1     -45.088  13.277  22.156  0.00  0.00    -0.037 SA
ATOM      8  O   UNL d   1     -46.760  11.508  23.698  0.00  0.00    -0.265 OA
ATOM      9  O   UNL d   1     -47.736  14.109  22.923  0.00  0.00    -0.265 OA
ENDROOT
BRANCH   1  10
ATOM     10  C   UNL d   1     -47.969  12.655  23.695  0.00  0.00     0.034 C 
BRANCH  10  11
ATOM     11  C   UNL d   1     -48.603  12.374  23.263  0.00  0.00     0.100 A 
ATOM     12  O   UNL d   1     -49.373  12.545  23.512  0.00  0.00    -0.307 OA
ATOM     13  C   UNL d   1     -49.890  12.193  22.974  0.00  0.00     0.100 A 
ATOM     14  C   UNL d   1     -50.717  12.219  23.004  0.00  0.00     0.027 C 
ATOM     15  C   UNL d   1     -49.450  11.817  22.412  0.00  0.00     0.027 A 
ATOM     16  C   UNL d   1     -48.647  11.916  22.572  0.00  0.00     0.027 A 
ENDBRANCH  10  11
ENDBRANCH   1  10
TORSDOF 2
ENDMDL
