MODEL 1
REMARK VINA RESULT:      -2.9      0.000      0.000
REMARK  0 active torsions:
REMARK  status: ('A' for Active; 'I' for Inactive)
ROOT
ATOM      1  C   UNL d   1      32.232  22.992 -20.798  0.00  0.00     0.282 A 
ATOM      2  N   UNL d   1      32.476  23.480 -20.177  0.00  0.00    -0.189 NA
ATOM      3  N   UNL d   1      33.231  22.396 -19.628  0.00  0.00    -0.227 NA
ATOM      4  C   UNL d   1      32.486  22.211 -20.833  0.00  0.00     0.076 A 
ATOM      5  C   UNL d   1      32.976  23.182 -19.592  0.00  0.00     0.166 A 
ATOM      6  C   UNL d   1      32.986  21.913 -20.247  0.00  0.00     0.088 A 
ATOM      7  O   UNL d   1      31.732  23.290 -21.383  0.00  0.00    -0.265 OA
ATOM      8  C   UNL d   1      32.242  21.726 -21.452  0.00  0.00     0.006 A 
ATOM      9  C   UNL d   1      33.220  23.674 -18.968  0.00  0.00     0.042 C 
ATOM     10  C   UNL d   1      33.241  21.130 -20.281  0.00  0.00     0.019 A 
ATOM     11  C   UNL d   1      32.497  20.937 -21.490  0.00  0.00     0.000 A 
ATOM     12  C   UNL d   1      32.996  20.639 -20.905  0.00  0.00     0.002 A 
ENDROOT
TORSDOF 0
ENDMDL
MODEL 2
REMARK VINA RESULT:      -2.9      0.894      2.217
REMARK  0 active torsions:
REMARK  status: ('A' for Active; 'I' for Inactive)
ROOT
ATOM      1  C   UNL d   1      32.145  22.438 -21.107  0.00  0.00     0.282 A 
ATOM      2  N   UNL d   1      32.301  21.681 -21.401  0.00  0.00    -0.189 NA
ATOM      3  N   UNL d   1      33.084  21.397 -20.238  0.00  0.00    -0.227 NA
ATOM      4  C   UNL d   1      32.458  22.672 -20.383  0.00  0.00     0.076 A 
ATOM      5  C   UNL d   1      32.770  21.161 -20.966  0.00  0.00     0.166 A 
ATOM      6  C   UNL d   1      32.927  22.152 -19.949  0.00  0.00     0.088 A 
ATOM      7  O   UNL d   1      31.675  22.959 -21.542  0.00  0.00    -0.265 OA
ATOM      8  C   UNL d   1      32.302  23.427 -20.093  0.00  0.00     0.006 A 
ATOM      9  C   UNL d   1      32.926  20.400 -21.262  0.00  0.00     0.042 C 
ATOM     10  C   UNL d   1      33.241  22.385 -19.223  0.00  0.00     0.019 A 
ATOM     11  C   UNL d   1      32.615  23.666 -19.363  0.00  0.00     0.000 A 
ATOM     12  C   UNL d   1      33.085  23.145 -18.928  0.00  0.00     0.002 A 
ENDROOT
TORSDOF 0
ENDMDL
MODEL 3
REMARK VINA RESULT:      -2.8      6.856      7.415
REMARK  0 active torsions:
REMARK  status: ('A' for Active; 'I' for Inactive)
ROOT
ATOM      1  C   UNL d   1      29.402  17.329 -24.537  0.00  0.00     0.282 A 
ATOM      2  N   UNL d   1      30.157  17.545 -24.794  0.00  0.00    -0.189 NA
ATOM      3  N   UNL d   1      30.723  16.507 -23.988  0.00  0.00    -0.227 NA
ATOM      4  C   UNL d   1      29.309  16.705 -24.009  0.00  0.00     0.076 A 
ATOM      5  C   UNL d   1      30.818  17.134 -24.519  0.00  0.00     0.166 A 
ATOM      6  C   UNL d   1      29.969  16.294 -23.734  0.00  0.00     0.088 A 
ATOM      7  O   UNL d   1      28.741  17.740 -24.812  0.00  0.00    -0.265 OA
ATOM      8  C   UNL d   1      28.555  16.492 -23.754  0.00  0.00     0.006 A 
ATOM      9  C   UNL d   1      31.577  17.352 -24.778  0.00  0.00     0.042 C 
ATOM     10  C   UNL d   1      29.876  15.670 -23.205  0.00  0.00     0.019 A 
ATOM     11  C   UNL d   1      28.457  15.863 -23.221  0.00  0.00     0.000 A 
ATOM     12  C   UNL d   1      29.118  15.453 -22.947  0.00  0.00     0.002 A 
ENDROOT
TORSDOF 0
ENDMDL
MODEL 4
REMARK VINA RESULT:      -2.7      6.806      7.429
REMARK  0 active torsions:
REMARK  status: ('A' for Active; 'I' for Inactive)
ROOT
ATOM      1  C   UNL d   1      29.321  17.201 -24.522  0.00  0.00     0.282 A 
ATOM      2  N   UNL d   1      28.709  16.706 -24.269  0.00  0.00    -0.189 NA
ATOM      3  N   UNL d   1      29.660  15.888 -23.582  0.00  0.00    -0.227 NA
ATOM      4  C   UNL d   1      30.098  17.039 -24.305  0.00  0.00     0.076 A 
ATOM      5  C   UNL d   1      28.878  16.050 -23.799  0.00  0.00     0.166 A 
ATOM      6  C   UNL d   1      30.267  16.383 -23.835  0.00  0.00     0.088 A 
ATOM      7  O   UNL d   1      29.152  17.858 -24.992  0.00  0.00    -0.265 OA
ATOM      8  C   UNL d   1      30.707  17.534 -24.557  0.00  0.00     0.006 A 
ATOM      9  C   UNL d   1      28.262  15.553 -23.546  0.00  0.00     0.042 C 
ATOM     10  C   UNL d   1      31.045  16.220 -23.617  0.00  0.00     0.019 A 
ATOM     11  C   UNL d   1      31.491  17.374 -24.340  0.00  0.00     0.000 A 
ATOM     12  C   UNL d   1      31.661  16.717 -23.870  0.00  0.00     0.002 A 
ENDROOT
TORSDOF 0
ENDMDL
MODEL 5
REMARK VINA RESULT:      -2.6      6.167      7.129
REMARK  0 active torsions:
REMARK  status: ('A' for Active; 'I' for Inactive)
ROOT
ATOM      1  C   UNL d   1      30.969  16.194 -23.528  0.00  0.00     0.282 A 
ATOM      2  N   UNL d   1      31.694  16.591 -23.503  0.00  0.00    -0.189 NA
ATOM      3  N   UNL d   1      31.155  17.618 -24.340  0.00  0.00    -0.227 NA
ATOM      4  C   UNL d   1      30.342  16.508 -23.957  0.00  0.00     0.076 A 
ATOM      5  C   UNL d   1      31.787  17.303 -23.909  0.00  0.00     0.166 A 
ATOM      6  C   UNL d   1      30.435  17.220 -24.363  0.00  0.00     0.088 A 
ATOM      7  O   UNL d   1      30.876  15.482 -23.121  0.00  0.00    -0.265 OA
ATOM      8  C   UNL d   1      29.621  16.111 -23.981  0.00  0.00     0.006 A 
ATOM      9  C   UNL d   1      32.516  17.701 -23.883  0.00  0.00     0.042 C 
ATOM     10  C   UNL d   1      29.806  17.535 -24.793  0.00  0.00     0.019 A 
ATOM     11  C   UNL d   1      28.986  16.425 -24.412  0.00  0.00     0.000 A 
ATOM     12  C   UNL d   1      29.078  17.137 -24.819  0.00  0.00     0.002 A 
ENDROOT
TORSDOF 0
ENDMDL
MODEL 6
REMARK VINA RESULT:      -2.6      6.023      6.711
REMARK  0 active torsions:
REMARK  status: ('A' for Active; 'I' for Inactive)
ROOT
ATOM      1  C   UNL d   1      30.652  17.258 -24.466  0.00  0.00     0.282 A 
ATOM      2  N   UNL d   1      30.235  16.606 -24.173  0.00  0.00    -0.189 NA
ATOM      3  N   UNL d   1      31.359  16.260 -23.358  0.00  0.00    -0.227 NA
ATOM      4  C   UNL d   1      31.417  17.408 -24.206  0.00  0.00     0.076 A 
ATOM      5  C   UNL d   1      30.589  16.107 -23.620  0.00  0.00     0.166 A 
ATOM      6  C   UNL d   1      31.771  16.910 -23.652  0.00  0.00     0.088 A 
ATOM      7  O   UNL d   1      30.298  17.757 -25.020  0.00  0.00    -0.265 OA
ATOM      8  C   UNL d   1      31.830  18.058 -24.498  0.00  0.00     0.006 A 
ATOM      9  C   UNL d   1      30.169  15.453 -23.326  0.00  0.00     0.042 C 
ATOM     10  C   UNL d   1      32.538  17.060 -23.391  0.00  0.00     0.019 A 
ATOM     11  C   UNL d   1      32.603  18.213 -24.238  0.00  0.00     0.000 A 
ATOM     12  C   UNL d   1      32.956  17.714 -23.684  0.00  0.00     0.002 A 
ENDROOT
TORSDOF 0
ENDMDL
MODEL 7
REMARK VINA RESULT:      -2.3      5.989      6.669
REMARK  0 active torsions:
REMARK  status: ('A' for Active; 'I' for Inactive)
ROOT
ATOM      1  C   UNL d   1      30.782  17.578 -24.578  0.00  0.00     0.282 A 
ATOM      2  N   UNL d   1      31.406  18.095 -24.742  0.00  0.00    -0.189 NA
ATOM      3  N   UNL d   1      32.305  17.225 -24.048  0.00  0.00    -0.227 NA
ATOM      4  C   UNL d   1      30.921  16.888 -24.150  0.00  0.00     0.076 A 
ATOM      5  C   UNL d   1      32.167  17.919 -24.477  0.00  0.00     0.166 A 
ATOM      6  C   UNL d   1      31.682  16.712 -23.885  0.00  0.00     0.088 A 
ATOM      7  O   UNL d   1      30.021  17.754 -24.843  0.00  0.00    -0.265 OA
ATOM      8  C   UNL d   1      30.298  16.374 -23.987  0.00  0.00     0.006 A 
ATOM      9  C   UNL d   1      32.793  18.440 -24.643  0.00  0.00     0.042 C 
ATOM     10  C   UNL d   1      31.821  16.022 -23.457  0.00  0.00     0.019 A 
ATOM     11  C   UNL d   1      30.434  15.678 -23.556  0.00  0.00     0.000 A 
ATOM     12  C   UNL d   1      31.195  15.502 -23.291  0.00  0.00     0.002 A 
ENDROOT
TORSDOF 0
ENDMDL
MODEL 8
REMARK VINA RESULT:      -2.2      1.270      2.424
REMARK  0 active torsions:
REMARK  status: ('A' for Active; 'I' for Inactive)
ROOT
ATOM      1  C   UNL d   1      32.241  21.925 -20.917  0.00  0.00     0.282 A 
ATOM      2  N   UNL d   1      32.355  22.021 -21.731  0.00  0.00    -0.189 NA
ATOM      3  N   UNL d   1      33.060  23.240 -21.483  0.00  0.00    -0.227 NA
ATOM      4  C   UNL d   1      32.536  22.484 -20.391  0.00  0.00     0.076 A 
ATOM      5  C   UNL d   1      32.764  22.679 -22.014  0.00  0.00     0.166 A 
ATOM      6  C   UNL d   1      32.945  23.142 -20.674  0.00  0.00     0.088 A 
ATOM      7  O   UNL d   1      31.832  21.267 -20.634  0.00  0.00    -0.265 OA
ATOM      8  C   UNL d   1      32.422  22.387 -19.581  0.00  0.00     0.006 A 
ATOM      9  C   UNL d   1      32.878  22.774 -22.831  0.00  0.00     0.042 C 
ATOM     10  C   UNL d   1      33.241  23.702 -20.147  0.00  0.00     0.019 A 
ATOM     11  C   UNL d   1      32.717  22.949 -19.048  0.00  0.00     0.000 A 
ATOM     12  C   UNL d   1      33.127  23.607 -19.330  0.00  0.00     0.002 A 
ENDROOT
TORSDOF 0
ENDMDL
MODEL 9
REMARK VINA RESULT:      -2.2      1.956      3.092
REMARK  0 active torsions:
REMARK  status: ('A' for Active; 'I' for Inactive)
ROOT
ATOM      1  C   UNL d   1      32.954  20.879 -21.095  0.00  0.00     0.282 A 
ATOM      2  N   UNL d   1      33.026  20.109 -21.386  0.00  0.00    -0.189 NA
ATOM      3  N   UNL d   1      33.241  20.631 -22.701  0.00  0.00    -0.227 NA
ATOM      4  C   UNL d   1      33.026  21.521 -21.605  0.00  0.00     0.076 A 
ATOM      5  C   UNL d   1      33.169  19.985 -22.189  0.00  0.00     0.166 A 
ATOM      6  C   UNL d   1      33.169  21.397 -22.408  0.00  0.00     0.088 A 
ATOM      7  O   UNL d   1      32.811  21.004 -20.292  0.00  0.00    -0.265 OA
ATOM      8  C   UNL d   1      32.954  22.288 -21.313  0.00  0.00     0.006 A 
ATOM      9  C   UNL d   1      33.241  19.210 -22.481  0.00  0.00     0.042 C 
ATOM     10  C   UNL d   1      33.241  22.039 -22.919  0.00  0.00     0.019 A 
ATOM     11  C   UNL d   1      33.026  22.937 -21.824  0.00  0.00     0.000 A 
ATOM     12  C   UNL d   1      33.169  22.813 -22.627  0.00  0.00     0.002 A 
ENDROOT
TORSDOF 0
ENDMDL
