MODEL 1
REMARK VINA RESULT:      27.3      0.000      0.000
REMARK  6 active torsions:
REMARK  status: ('A' for Active; 'I' for Inactive)
REMARK       I    between atoms: N_2  and  C_4 
REMARK    1  A    between atoms: C_6  and  N_2 
REMARK    2  A    between atoms: C_12  and  C_3 
REMARK    3  A    between atoms: C_4  and  C_11 
REMARK    4  A    between atoms: O_13  and  C_9 
REMARK    5  A    between atoms: C_11  and  C_12 
REMARK    6  A    between atoms: C_17  and  O_13 
ROOT
ATOM      1  N   UNL d   1      13.033  13.191  -4.744  0.00  0.00    -0.206 NA
ATOM      2  C   UNL d   1      13.121  12.495  -4.312  0.00  0.00     0.279 C 
ATOM      3  O   UNL d   1      12.874  11.779  -4.629  0.00  0.00    -0.265 OA
ENDROOT
BRANCH   1   4
ATOM      4  C   UNL d   1      13.284  13.914  -4.419  0.00  0.00     0.107 A 
ATOM      5  C   UNL d   1      13.816  14.385  -4.832  0.00  0.00     0.118 A 
ATOM      6  C   UNL d   1      14.065  15.097  -4.514  0.00  0.00     0.026 A 
ATOM      7  C   UNL d   1      13.783  15.347  -3.774  0.00  0.00     0.002 A 
ATOM      8  C   UNL d   1      13.246  14.872  -3.358  0.00  0.00     0.002 A 
ATOM      9  C   UNL d   1      12.995  14.149  -3.683  0.00  0.00     0.021 A 
BRANCH   5  10
ATOM     10  O   UNL d   1      14.094  14.134  -5.565  0.00  0.00    -0.304 OA
BRANCH  10  11
ATOM     11  C   UNL d   1      14.227  14.675  -6.170  0.00  0.00     0.123 C 
ATOM     12  C   UNL d   1      14.982  14.973  -6.307  0.00  0.00     0.029 C 
ENDBRANCH  10  11
ENDBRANCH   5  10
ENDBRANCH   1   4
BRANCH   2  13
ATOM     13  C   UNL d   1      13.456  12.511  -3.558  0.00  0.00     0.065 C 
BRANCH  13  14
ATOM     14  C   UNL d   1      13.471  11.832  -3.099  0.00  0.00     0.030 C 
BRANCH  14  15
ATOM     15  C   UNL d   1      13.753  11.860  -2.322  0.00  0.00     0.100 A 
ATOM     16  O   UNL d   1      13.307  11.798  -1.627  0.00  0.00    -0.307 OA
ATOM     17  C   UNL d   1      13.811  11.856  -0.986  0.00  0.00     0.100 A 
ATOM     18  C   UNL d   1      14.581  11.954  -1.278  0.00  0.00     0.027 A 
ATOM     19  C   UNL d   1      13.596  11.822  -0.196  0.00  0.00     0.027 C 
ATOM     20  C   UNL d   1      14.545  11.957  -2.102  0.00  0.00     0.027 A 
ENDBRANCH  14  15
ENDBRANCH  13  14
ENDBRANCH   2  13
TORSDOF 6
ENDMDL
MODEL 2
REMARK VINA RESULT:      29.9      1.675      3.223
REMARK  6 active torsions:
REMARK  status: ('A' for Active; 'I' for Inactive)
REMARK       I    between atoms: N_2  and  C_4 
REMARK    1  A    between atoms: C_6  and  N_2 
REMARK    2  A    between atoms: C_12  and  C_3 
REMARK    3  A    between atoms: C_4  and  C_11 
REMARK    4  A    between atoms: O_13  and  C_9 
REMARK    5  A    between atoms: C_11  and  C_12 
REMARK    6  A    between atoms: C_17  and  O_13 
ROOT
ATOM      1  N   UNL d   1      12.931  13.828  -4.305  0.00  0.00    -0.206 NA
ATOM      2  C   UNL d   1      13.188  14.588  -4.117  0.00  0.00     0.279 C 
ATOM      3  O   UNL d   1      12.940  15.230  -4.566  0.00  0.00    -0.265 OA
ENDROOT
BRANCH   1   4
ATOM      4  C   UNL d   1      13.185  13.182  -3.847  0.00  0.00     0.107 A 
ATOM      5  C   UNL d   1      13.114  12.418  -4.144  0.00  0.00     0.118 A 
ATOM      6  C   UNL d   1      13.362  11.781  -3.695  0.00  0.00     0.026 A 
ATOM      7  C   UNL d   1      13.687  11.900  -2.940  0.00  0.00     0.002 A 
ATOM      8  C   UNL d   1      13.758  12.670  -2.641  0.00  0.00     0.002 A 
ATOM      9  C   UNL d   1      13.505  13.316  -3.099  0.00  0.00     0.021 A 
BRANCH   5  10
ATOM     10  O   UNL d   1      12.792  12.303  -4.892  0.00  0.00    -0.304 OA
BRANCH  10  11
ATOM     11  C   UNL d   1      13.141  11.780  -5.422  0.00  0.00     0.123 C 
ATOM     12  C   UNL d   1      13.210  11.975  -6.219  0.00  0.00     0.029 C 
ENDBRANCH  10  11
ENDBRANCH   5  10
ENDBRANCH   1   4
BRANCH   2  13
ATOM     13  C   UNL d   1      13.695  14.713  -3.478  0.00  0.00     0.065 C 
BRANCH  13  14
ATOM     14  C   UNL d   1      14.265  15.300  -3.512  0.00  0.00     0.030 C 
BRANCH  14  15
ATOM     15  C   UNL d   1      14.537  15.658  -2.817  0.00  0.00     0.100 A 
ATOM     16  O   UNL d   1      14.699  15.286  -2.096  0.00  0.00    -0.307 OA
ATOM     17  C   UNL d   1      14.955  15.850  -1.562  0.00  0.00     0.100 A 
ATOM     18  C   UNL d   1      14.955  16.583  -1.949  0.00  0.00     0.027 A 
ATOM     19  C   UNL d   1      15.173  15.717  -0.784  0.00  0.00     0.027 C 
ATOM     20  C   UNL d   1      14.697  16.465  -2.723  0.00  0.00     0.027 A 
ENDBRANCH  14  15
ENDBRANCH  13  14
ENDBRANCH   2  13
TORSDOF 6
ENDMDL
