MODEL 1
REMARK VINA RESULT:     106.8      0.000      0.000
REMARK  4 active torsions:
REMARK  status: ('A' for Active; 'I' for Inactive)
REMARK    1  A    between atoms: C_14  and  N_3 
REMARK    2  A    between atoms: C_13  and  N_7 
REMARK       I    between atoms: N_9  and  C_10 
REMARK    3  A    between atoms: C_10  and  C_13 
REMARK    4  A    between atoms: C_19  and  C_14 
ROOT
ATOM      1  C   UNL d   1     -54.855-100.666 -42.643  0.00  0.00     0.191 A 
ATOM      2  C   UNL d   1     -54.794-101.478 -42.515  0.00  0.00     0.196 A 
ATOM      3  N   UNL d   1     -54.846-100.533 -43.450  0.00  0.00    -0.191 N 
ATOM      4  N   UNL d   1     -54.913-100.145 -41.993  0.00  0.00    -0.204 NA
ATOM      5  N   UNL d   1     -54.746-101.840 -43.259  0.00  0.00    -0.122 NA
ATOM      6  N   UNL d   1     -54.779-101.250 -43.830  0.00  0.00    -0.058 NA
ATOM      7  N   UNL d   1     -54.845-101.273 -41.103  0.00  0.00    -0.249 N 
ATOM      8  C   UNL d   1     -54.788-101.786 -41.759  0.00  0.00     0.289 A 
ATOM      9  C   UNL d   1     -54.908-100.450 -41.217  0.00  0.00     0.187 A 
ATOM     10  O   UNL d   1     -54.726-102.599 -41.631  0.00  0.00    -0.265 OA
ENDROOT
BRANCH   7  11
ATOM     11  C   UNL d   1     -54.841-101.564 -40.338  0.00  0.00     0.146 C 
BRANCH  11  12
ATOM     12  C   UNL d   1     -55.376-102.128 -40.084  0.00  0.00     0.283 C 
ATOM     13  N   UNL d   1     -55.743-102.077 -39.338  0.00  0.00    -0.272 N 
ATOM     14  C   UNL d   1     -55.561-101.436 -38.838  0.00  0.00     0.067 A 
ATOM     15  C   UNL d   1     -56.271-102.644 -39.101  0.00  0.00     0.083 A 
ATOM     16  C   UNL d   1     -55.927-101.385 -38.092  0.00  0.00     0.016 A 
ATOM     17  C   UNL d   1     -55.028-100.860 -39.070  0.00  0.00     0.018 A 
ATOM     18  C   UNL d   1     -55.745-100.744 -37.592  0.00  0.00     0.001 A 
ATOM     19  C   UNL d   1     -56.453-101.959 -37.869  0.00  0.00     0.003 A 
ATOM     20  C   UNL d   1     -55.212-100.171 -37.831  0.00  0.00     0.000 A 
ATOM     21  C   UNL d   1     -54.845-100.223 -38.577  0.00  0.00     0.002 A 
ATOM     22  C   UNL d   1     -56.638-102.593 -38.355  0.00  0.00     0.019 A 
ATOM     23  O   UNL d   1     -55.558-102.769 -40.585  0.00  0.00    -0.265 OA
ENDBRANCH  11  12
ENDBRANCH   7  11
BRANCH   3  24
ATOM     24  C   UNL d   1     -54.896 -99.791 -43.815  0.00  0.00     0.104 C 
BRANCH  24  25
ATOM     25  C   UNL d   1     -55.604 -99.521 -44.101  0.00  0.00     0.019 A 
ATOM     26  C   UNL d   1     -55.711 -99.411 -44.911  0.00  0.00     0.002 A 
ATOM     27  C   UNL d   1     -56.424 -99.139 -45.190  0.00  0.00     0.000 A 
ATOM     28  C   UNL d   1     -57.043 -98.971 -44.679  0.00  0.00     0.000 A 
ATOM     29  C   UNL d   1     -56.937 -99.080 -43.868  0.00  0.00     0.000 A 
ATOM     30  C   UNL d   1     -56.228 -99.351 -43.583  0.00  0.00     0.002 A 
ENDBRANCH  24  25
ENDBRANCH   3  24
TORSDOF 4
ENDMDL
