MODEL 1
REMARK VINA RESULT:      -8.3      0.000      0.000
REMARK  5 active torsions:
REMARK  status: ('A' for Active; 'I' for Inactive)
REMARK    1  A    between atoms: C_6  and  N_1 
REMARK    2  A    between atoms: C_10  and  C_6 
REMARK    3  A    between atoms: O_18  and  C_12 
REMARK    4  A    between atoms: C_20  and  O_18 
REMARK    5  A    between atoms: C_21  and  C_20 
ROOT
ATOM      1  N   UNL d   1     -48.856  12.618  22.907  0.00  0.00    -0.251 N 
ATOM      2  C   UNL d   1     -49.101  12.029  22.368  0.00  0.00     0.378 A 
ATOM      3  C   UNL d   1     -49.167  13.341  22.652  0.00  0.00     0.092 A 
ATOM      4  O   UNL d   1     -49.563  12.392  21.784  0.00  0.00    -0.258 OA
ATOM      5  C   UNL d   1     -49.604  13.202  21.959  0.00  0.00     0.121 A 
ATOM      6  O   UNL d   1     -48.914  11.230  22.416  0.00  0.00    -0.237 OA
ATOM      7  C   UNL d   1     -49.108  14.099  22.962  0.00  0.00     0.020 A 
ATOM      8  C   UNL d   1     -49.979  13.836  21.583  0.00  0.00     0.026 A 
ATOM      9  C   UNL d   1     -49.486  14.725  22.580  0.00  0.00     0.002 A 
ATOM     10  C   UNL d   1     -49.920  14.594  21.893  0.00  0.00     0.002 A 
ATOM     11  C   UNL d   1     -49.422  15.487  22.897  0.00  0.00     0.000 C 
ENDROOT
BRANCH   1  12
ATOM     12  C   UNL d   1     -48.389  12.539  23.582  0.00  0.00     0.085 C 
BRANCH  12  13
ATOM     13  C   UNL d   1     -47.606  12.286  23.511  0.00  0.00     0.018 A 
ATOM     14  C   UNL d   1     -47.025  12.801  23.260  0.00  0.00     0.004 A 
ATOM     15  C   UNL d   1     -46.250  12.549  23.191  0.00  0.00     0.025 A 
ATOM     16  C   UNL d   1     -46.053  11.770  23.375  0.00  0.00     0.100 A 
ATOM     17  C   UNL d   1     -46.639  11.250  23.628  0.00  0.00     0.025 A 
ATOM     18  C   UNL d   1     -47.422  11.506  23.698  0.00  0.00     0.004 A 
BRANCH  16  19
ATOM     19  O   UNL d   1     -45.275  11.517  23.305  0.00  0.00    -0.305 OA
BRANCH  19  20
ATOM     20  C   UNL d   1     -45.077  10.749  23.506  0.00  0.00     0.123 C 
BRANCH  20  21
ATOM     21  C   UNL d   1     -44.296  10.506  23.482  0.00  0.00     0.027 C 
ATOM     22  C   UNL d   1     -44.094   9.735  23.698  0.00  0.00     0.002 C 
ENDBRANCH  20  21
ENDBRANCH  19  20
ENDBRANCH  16  19
ENDBRANCH  12  13
ENDBRANCH   1  12
TORSDOF 5
ENDMDL
MODEL 2
REMARK VINA RESULT:      -8.2      1.385      1.536
REMARK  5 active torsions:
REMARK  status: ('A' for Active; 'I' for Inactive)
REMARK    1  A    between atoms: C_6  and  N_1 
REMARK    2  A    between atoms: C_10  and  C_6 
REMARK    3  A    between atoms: O_18  and  C_12 
REMARK    4  A    between atoms: C_20  and  O_18 
REMARK    5  A    between atoms: C_21  and  C_20 
ROOT
ATOM      1  N   UNL d   1     -49.170  12.639  22.779  0.00  0.00    -0.251 N 
ATOM      2  C   UNL d   1     -49.210  11.980  22.266  0.00  0.00     0.378 A 
ATOM      3  C   UNL d   1     -49.776  13.161  22.568  0.00  0.00     0.092 A 
ATOM      4  O   UNL d   1     -49.839  12.100  21.742  0.00  0.00    -0.258 OA
ATOM      5  C   UNL d   1     -50.189  12.829  21.928  0.00  0.00     0.121 A 
ATOM      6  O   UNL d   1     -48.707  11.330  22.285  0.00  0.00    -0.237 OA
ATOM      7  C   UNL d   1     -49.999  13.888  22.876  0.00  0.00     0.020 A 
ATOM      8  C   UNL d   1     -50.830  13.240  21.603  0.00  0.00     0.026 A 
ATOM      9  C   UNL d   1     -50.639  14.291  22.545  0.00  0.00     0.002 A 
ATOM     10  C   UNL d   1     -51.053  13.968  21.911  0.00  0.00     0.002 A 
ATOM     11  C   UNL d   1     -50.859  15.024  22.859  0.00  0.00     0.000 C 
ENDROOT
BRANCH   1  12
ATOM     12  C   UNL d   1     -48.642  12.782  23.395  0.00  0.00     0.085 C 
BRANCH  12  13
ATOM     13  C   UNL d   1     -47.845  12.920  23.228  0.00  0.00     0.018 A 
ATOM     14  C   UNL d   1     -47.610  13.617  22.873  0.00  0.00     0.004 A 
ATOM     15  C   UNL d   1     -46.820  13.751  22.709  0.00  0.00     0.025 A 
ATOM     16  C   UNL d   1     -46.257  13.180  22.902  0.00  0.00     0.100 A 
ATOM     17  C   UNL d   1     -46.494  12.478  23.259  0.00  0.00     0.025 A 
ATOM     18  C   UNL d   1     -47.292  12.344  23.425  0.00  0.00     0.004 A 
BRANCH  16  19
ATOM     19  O   UNL d   1     -45.465  13.316  22.736  0.00  0.00    -0.305 OA
BRANCH  19  20
ATOM     20  C   UNL d   1     -45.125  12.983  22.069  0.00  0.00     0.123 C 
BRANCH  20  21
ATOM     21  C   UNL d   1     -44.393  13.239  21.810  0.00  0.00     0.027 C 
ATOM     22  C   UNL d   1     -43.857  12.702  21.484  0.00  0.00     0.002 C 
ENDBRANCH  20  21
ENDBRANCH  19  20
ENDBRANCH  16  19
ENDBRANCH  12  13
ENDBRANCH   1  12
TORSDOF 5
ENDMDL
MODEL 3
REMARK VINA RESULT:      -7.2      1.166      1.787
REMARK  5 active torsions:
REMARK  status: ('A' for Active; 'I' for Inactive)
REMARK    1  A    between atoms: C_6  and  N_1 
REMARK    2  A    between atoms: C_10  and  C_6 
REMARK    3  A    between atoms: O_18  and  C_12 
REMARK    4  A    between atoms: C_20  and  O_18 
REMARK    5  A    between atoms: C_21  and  C_20 
ROOT
ATOM      1  N   UNL d   1     -48.799  13.816  22.688  0.00  0.00    -0.251 N 
ATOM      2  C   UNL d   1     -48.760  14.212  21.953  0.00  0.00     0.378 A 
ATOM      3  C   UNL d   1     -49.487  13.355  22.691  0.00  0.00     0.092 A 
ATOM      4  O   UNL d   1     -49.423  13.994  21.508  0.00  0.00    -0.258 OA
ATOM      5  C   UNL d   1     -49.872  13.466  21.963  0.00  0.00     0.121 A 
ATOM      6  O   UNL d   1     -48.163  14.728  21.721  0.00  0.00    -0.237 OA
ATOM      7  C   UNL d   1     -49.804  12.857  23.260  0.00  0.00     0.020 A 
ATOM      8  C   UNL d   1     -50.581  13.066  21.816  0.00  0.00     0.026 A 
ATOM      9  C   UNL d   1     -50.512  12.463  23.104  0.00  0.00     0.002 A 
ATOM     10  C   UNL d   1     -50.899  12.567  22.386  0.00  0.00     0.002 A 
ATOM     11  C   UNL d   1     -50.829  11.961  23.682  0.00  0.00     0.000 C 
ENDROOT
BRANCH   1  12
ATOM     12  C   UNL d   1     -48.272  13.848  23.321  0.00  0.00     0.085 C 
BRANCH  12  13
ATOM     13  C   UNL d   1     -47.570  13.414  23.293  0.00  0.00     0.018 A 
ATOM     14  C   UNL d   1     -47.527  12.674  23.635  0.00  0.00     0.004 A 
ATOM     15  C   UNL d   1     -46.831  12.245  23.606  0.00  0.00     0.025 A 
ATOM     16  C   UNL d   1     -46.169  12.561  23.230  0.00  0.00     0.100 A 
ATOM     17  C   UNL d   1     -46.212  13.307  22.885  0.00  0.00     0.025 A 
ATOM     18  C   UNL d   1     -46.917  13.739  22.915  0.00  0.00     0.004 A 
BRANCH  16  19
ATOM     19  O   UNL d   1     -45.471  12.130  23.202  0.00  0.00    -0.305 OA
BRANCH  19  20
ATOM     20  C   UNL d   1     -45.459  11.355  23.465  0.00  0.00     0.123 C 
BRANCH  20  21
ATOM     21  C   UNL d   1     -44.843  10.859  23.257  0.00  0.00     0.027 C 
ATOM     22  C   UNL d   1     -44.696  10.174  23.694  0.00  0.00     0.002 C 
ENDBRANCH  20  21
ENDBRANCH  19  20
ENDBRANCH  16  19
ENDBRANCH  12  13
ENDBRANCH   1  12
TORSDOF 5
ENDMDL
MODEL 4
REMARK VINA RESULT:      -6.0      8.450      9.815
REMARK  5 active torsions:
REMARK  status: ('A' for Active; 'I' for Inactive)
REMARK    1  A    between atoms: C_6  and  N_1 
REMARK    2  A    between atoms: C_10  and  C_6 
REMARK    3  A    between atoms: O_18  and  C_12 
REMARK    4  A    between atoms: C_20  and  O_18 
REMARK    5  A    between atoms: C_21  and  C_20 
ROOT
ATOM      1  N   UNL d   1     -40.243  14.936  18.216  0.00  0.00    -0.251 N 
ATOM      2  C   UNL d   1     -40.524  14.159  18.336  0.00  0.00     0.378 A 
ATOM      3  C   UNL d   1     -39.698  14.916  17.593  0.00  0.00     0.092 A 
ATOM      4  O   UNL d   1     -40.151  13.664  17.787  0.00  0.00    -0.258 OA
ATOM      5  C   UNL d   1     -39.642  14.131  17.328  0.00  0.00     0.121 A 
ATOM      6  O   UNL d   1     -41.074  13.932  18.903  0.00  0.00    -0.237 OA
ATOM      7  C   UNL d   1     -39.254  15.509  17.241  0.00  0.00     0.020 A 
ATOM      8  C   UNL d   1     -39.131  13.951  16.703  0.00  0.00     0.026 A 
ATOM      9  C   UNL d   1     -38.748  15.320  16.617  0.00  0.00     0.002 A 
ATOM     10  C   UNL d   1     -38.686  14.544  16.350  0.00  0.00     0.002 A 
ATOM     11  C   UNL d   1     -38.301  15.922  16.265  0.00  0.00     0.000 C 
ENDROOT
BRANCH   1  12
ATOM     12  C   UNL d   1     -40.444  15.626  18.620  0.00  0.00     0.085 C 
BRANCH  12  13
ATOM     13  C   UNL d   1     -40.260  15.701  19.422  0.00  0.00     0.018 A 
ATOM     14  C   UNL d   1     -39.484  15.781  19.662  0.00  0.00     0.004 A 
ATOM     15  C   UNL d   1     -39.303  15.854  20.456  0.00  0.00     0.025 A 
ATOM     16  C   UNL d   1     -39.907  15.848  21.018  0.00  0.00     0.100 A 
ATOM     17  C   UNL d   1     -40.689  15.768  20.776  0.00  0.00     0.025 A 
ATOM     18  C   UNL d   1     -40.870  15.693  19.972  0.00  0.00     0.004 A 
BRANCH  16  19
ATOM     19  O   UNL d   1     -39.724  15.922  21.815  0.00  0.00    -0.305 OA
BRANCH  19  20
ATOM     20  C   UNL d   1     -39.126  15.466  22.140  0.00  0.00     0.123 C 
BRANCH  20  21
ATOM     21  C   UNL d   1     -39.091  15.351  22.949  0.00  0.00     0.027 C 
ATOM     22  C   UNL d   1     -38.387  15.102  23.303  0.00  0.00     0.002 C 
ENDBRANCH  20  21
ENDBRANCH  19  20
ENDBRANCH  16  19
ENDBRANCH  12  13
ENDBRANCH   1  12
TORSDOF 5
ENDMDL
MODEL 5
REMARK VINA RESULT:      -5.8      8.652     10.010
REMARK  5 active torsions:
REMARK  status: ('A' for Active; 'I' for Inactive)
REMARK    1  A    between atoms: C_6  and  N_1 
REMARK    2  A    between atoms: C_10  and  C_6 
REMARK    3  A    between atoms: O_18  and  C_12 
REMARK    4  A    between atoms: C_20  and  O_18 
REMARK    5  A    between atoms: C_21  and  C_20 
ROOT
ATOM      1  N   UNL d   1     -40.204  14.773  19.936  0.00  0.00    -0.251 N 
ATOM      2  C   UNL d   1     -40.512  15.548  19.886  0.00  0.00     0.378 A 
ATOM      3  C   UNL d   1     -39.888  14.673  20.695  0.00  0.00     0.092 A 
ATOM      4  O   UNL d   1     -40.384  15.922  20.614  0.00  0.00    -0.258 OA
ATOM      5  C   UNL d   1     -39.999  15.383  21.113  0.00  0.00     0.121 A 
ATOM      6  O   UNL d   1     -40.876  15.875  19.226  0.00  0.00    -0.237 OA
ATOM      7  C   UNL d   1     -39.518  14.033  21.050  0.00  0.00     0.020 A 
ATOM      8  C   UNL d   1     -39.733  15.438  21.894  0.00  0.00     0.026 A 
ATOM      9  C   UNL d   1     -39.256  14.097  21.829  0.00  0.00     0.002 A 
ATOM     10  C   UNL d   1     -39.363  14.797  22.250  0.00  0.00     0.002 A 
ATOM     11  C   UNL d   1     -38.883  13.448  22.184  0.00  0.00     0.000 C 
ENDROOT
BRANCH   1  12
ATOM     12  C   UNL d   1     -40.195  14.183  19.360  0.00  0.00     0.085 C 
BRANCH  12  13
ATOM     13  C   UNL d   1     -39.773  14.299  18.660  0.00  0.00     0.018 A 
ATOM     14  C   UNL d   1     -38.957  14.312  18.665  0.00  0.00     0.004 A 
ATOM     15  C   UNL d   1     -38.541  14.427  17.970  0.00  0.00     0.025 A 
ATOM     16  C   UNL d   1     -38.947  14.532  17.260  0.00  0.00     0.100 A 
ATOM     17  C   UNL d   1     -39.770  14.520  17.255  0.00  0.00     0.025 A 
ATOM     18  C   UNL d   1     -40.189  14.403  17.958  0.00  0.00     0.004 A 
BRANCH  16  19
ATOM     19  O   UNL d   1     -38.529  14.648  16.564  0.00  0.00    -0.305 OA
BRANCH  19  20
ATOM     20  C   UNL d   1     -38.528  14.066  15.987  0.00  0.00     0.123 C 
BRANCH  20  21
ATOM     21  C   UNL d   1     -38.045  14.139  15.331  0.00  0.00     0.027 C 
ATOM     22  C   UNL d   1     -37.940  13.498  14.821  0.00  0.00     0.002 C 
ENDBRANCH  20  21
ENDBRANCH  19  20
ENDBRANCH  16  19
ENDBRANCH  12  13
ENDBRANCH   1  12
TORSDOF 5
ENDMDL
MODEL 6
REMARK VINA RESULT:      -5.3      8.229      9.745
REMARK  5 active torsions:
REMARK  status: ('A' for Active; 'I' for Inactive)
REMARK    1  A    between atoms: C_6  and  N_1 
REMARK    2  A    between atoms: C_10  and  C_6 
REMARK    3  A    between atoms: O_18  and  C_12 
REMARK    4  A    between atoms: C_20  and  O_18 
REMARK    5  A    between atoms: C_21  and  C_20 
ROOT
ATOM      1  N   UNL d   1     -39.912  14.464  19.104  0.00  0.00    -0.251 N 
ATOM      2  C   UNL d   1     -40.670  14.114  19.077  0.00  0.00     0.378 A 
ATOM      3  C   UNL d   1     -39.806  14.783  19.860  0.00  0.00     0.092 A 
ATOM      4  O   UNL d   1     -41.028  14.220  19.816  0.00  0.00    -0.258 OA
ATOM      5  C   UNL d   1     -40.495  14.632  20.300  0.00  0.00     0.121 A 
ATOM      6  O   UNL d   1     -40.997  13.734  18.426  0.00  0.00    -0.237 OA
ATOM      7  C   UNL d   1     -39.176  15.186  20.196  0.00  0.00     0.020 A 
ATOM      8  C   UNL d   1     -40.539  14.893  21.083  0.00  0.00     0.026 A 
ATOM      9  C   UNL d   1     -39.230  15.443  20.979  0.00  0.00     0.002 A 
ATOM     10  C   UNL d   1     -39.909  15.297  21.420  0.00  0.00     0.002 A 
ATOM     11  C   UNL d   1     -38.591  15.849  21.314  0.00  0.00     0.000 C 
ENDROOT
BRANCH   1  12
ATOM     12  C   UNL d   1     -39.341  14.507  18.510  0.00  0.00     0.085 C 
BRANCH  12  13
ATOM     13  C   UNL d   1     -38.987  13.815  18.232  0.00  0.00     0.018 A 
ATOM     14  C   UNL d   1     -38.325  13.511  18.601  0.00  0.00     0.004 A 
ATOM     15  C   UNL d   1     -37.975  12.825  18.324  0.00  0.00     0.025 A 
ATOM     16  C   UNL d   1     -38.292  12.438  17.668  0.00  0.00     0.100 A 
ATOM     17  C   UNL d   1     -38.959  12.745  17.296  0.00  0.00     0.025 A 
ATOM     18  C   UNL d   1     -39.311  13.438  17.577  0.00  0.00     0.004 A 
BRANCH  16  19
ATOM     19  O   UNL d   1     -37.940  11.750  17.391  0.00  0.00    -0.305 OA
BRANCH  19  20
ATOM     20  C   UNL d   1     -38.086  11.038  17.766  0.00  0.00     0.123 C 
BRANCH  20  21
ATOM     21  C   UNL d   1     -37.943  10.332  17.379  0.00  0.00     0.027 C 
ATOM     22  C   UNL d   1     -38.059   9.613  17.769  0.00  0.00     0.002 C 
ENDBRANCH  20  21
ENDBRANCH  19  20
ENDBRANCH  16  19
ENDBRANCH  12  13
ENDBRANCH   1  12
TORSDOF 5
ENDMDL
