MODEL 1
REMARK VINA RESULT:      -1.7      0.000      0.000
REMARK  5 active torsions:
REMARK  status: ('A' for Active; 'I' for Inactive)
REMARK    1  A    between atoms: N_6  and  C_1 
REMARK    2  A    between atoms: C_8  and  C_4 
REMARK       I    between atoms: C_7  and  N_6 
REMARK    3  A    between atoms: C_13  and  C_7 
REMARK    4  A    between atoms: O_14  and  C_8 
REMARK    5  A    between atoms: C_18  and  O_14 
ROOT
ATOM      1  C   UNL d   1      59.060  -0.695  29.384  0.00  0.00     0.124 A 
ATOM      2  C   UNL d   1      58.653  -1.374  29.643  0.00  0.00     0.093 A 
ATOM      3  S   UNL d   1      58.753  -0.051  29.794  0.00  0.00    -0.062 SA
ATOM      4  C   UNL d   1      58.164  -0.328  30.300  0.00  0.00     0.095 A 
ATOM      5  C   UNL d   1      58.100  -1.140  30.209  0.00  0.00     0.023 A 
ATOM      6  C   UNL d   1      58.790  -2.156  29.368  0.00  0.00     0.103 C 
ATOM      7  N   UNL d   1      58.916  -2.920  29.106  0.00  0.00    -0.191 NA
ATOM      8  C   UNL d   1      57.575  -1.640  30.612  0.00  0.00     0.001 C 
ENDROOT
BRANCH   1   9
ATOM      9  N   UNL d   1      59.659  -0.679  28.820  0.00  0.00    -0.201 NA
ATOM     10  C   UNL d   1      60.401  -0.375  29.022  0.00  0.00     0.280 C 
ATOM     11  O   UNL d   1      60.992  -0.363  28.455  0.00  0.00    -0.265 OA
BRANCH  10  12
ATOM     12  C   UNL d   1      60.543  -0.091  29.777  0.00  0.00     0.058 C 
ATOM     13  C   UNL d   1      60.913  -0.572  30.334  0.00  0.00     0.005 C 
ATOM     14  C   UNL d   1      60.318   0.682  29.991  0.00  0.00     0.005 C 
ENDBRANCH  10  12
ENDBRANCH   1   9
BRANCH   4  15
ATOM     15  C   UNL d   1      57.714   0.133  30.811  0.00  0.00     0.306 C 
ATOM     16  O   UNL d   1      57.157   0.677  30.509  0.00  0.00    -0.258 OA
BRANCH  15  17
ATOM     17  O   UNL d   1      57.802   0.072  31.636  0.00  0.00    -0.271 OA
BRANCH  17  18
ATOM     18  C   UNL d   1      57.215   0.576  31.931  0.00  0.00     0.126 C 
ATOM     19  C   UNL d   1      56.915   0.461  32.690  0.00  0.00     0.029 C 
ENDBRANCH  17  18
ENDBRANCH  15  17
ENDBRANCH   4  15
TORSDOF 5
ENDMDL
MODEL 2
REMARK VINA RESULT:      -1.6      2.819      4.695
REMARK  5 active torsions:
REMARK  status: ('A' for Active; 'I' for Inactive)
REMARK    1  A    between atoms: N_6  and  C_1 
REMARK    2  A    between atoms: C_8  and  C_4 
REMARK       I    between atoms: C_7  and  N_6 
REMARK    3  A    between atoms: C_13  and  C_7 
REMARK    4  A    between atoms: O_14  and  C_8 
REMARK    5  A    between atoms: C_18  and  O_14 
ROOT
ATOM      1  C   UNL d   1      56.665   0.639  32.944  0.00  0.00     0.124 A 
ATOM      2  C   UNL d   1      57.407   0.656  33.323  0.00  0.00     0.093 A 
ATOM      3  S   UNL d   1      56.802   0.634  32.132  0.00  0.00    -0.062 SA
ATOM      4  C   UNL d   1      57.617   0.648  32.011  0.00  0.00     0.095 A 
ATOM      5  C   UNL d   1      57.991   0.662  32.740  0.00  0.00     0.023 A 
ATOM      6  C   UNL d   1      57.526   0.666  34.154  0.00  0.00     0.103 C 
ATOM      7  N   UNL d   1      57.653   0.676  34.962  0.00  0.00    -0.191 NA
ATOM      8  C   UNL d   1      58.810   0.678  32.873  0.00  0.00     0.001 C 
ENDROOT
BRANCH   1   9
ATOM      9  N   UNL d   1      55.933   0.629  33.320  0.00  0.00    -0.201 NA
ATOM     10  C   UNL d   1      55.472  -0.057  33.296  0.00  0.00     0.280 C 
ATOM     11  O   UNL d   1      54.744  -0.058  33.672  0.00  0.00    -0.265 OA
BRANCH  10  12
ATOM     12  C   UNL d   1      55.738  -0.724  32.902  0.00  0.00     0.058 C 
ATOM     13  C   UNL d   1      56.038  -1.360  33.330  0.00  0.00     0.005 C 
ATOM     14  C   UNL d   1      55.708  -0.768  32.071  0.00  0.00     0.005 C 
ENDBRANCH  10  12
ENDBRANCH   1   9
BRANCH   4  15
ATOM     15  C   UNL d   1      57.993   0.648  31.280  0.00  0.00     0.306 C 
ATOM     16  O   UNL d   1      58.827   0.638  31.233  0.00  0.00    -0.258 OA
BRANCH  15  17
ATOM     17  O   UNL d   1      57.556   0.659  30.572  0.00  0.00    -0.271 OA
BRANCH  17  18
ATOM     18  C   UNL d   1      58.125   0.494  29.992  0.00  0.00     0.126 C 
ATOM     19  C   UNL d   1      57.972   0.675  29.202  0.00  0.00     0.029 C 
ENDBRANCH  17  18
ENDBRANCH  15  17
ENDBRANCH   4  15
TORSDOF 5
ENDMDL
MODEL 3
REMARK VINA RESULT:      -0.9      1.364      2.193
REMARK  5 active torsions:
REMARK  status: ('A' for Active; 'I' for Inactive)
REMARK    1  A    between atoms: N_6  and  C_1 
REMARK    2  A    between atoms: C_8  and  C_4 
REMARK       I    between atoms: C_7  and  N_6 
REMARK    3  A    between atoms: C_13  and  C_7 
REMARK    4  A    between atoms: O_14  and  C_8 
REMARK    5  A    between atoms: C_18  and  O_14 
ROOT
ATOM      1  C   UNL d   1      59.021   0.495  30.420  0.00  0.00     0.124 A 
ATOM      2  C   UNL d   1      59.322   0.538  31.196  0.00  0.00     0.093 A 
ATOM      3  S   UNL d   1      58.202   0.430  30.475  0.00  0.00    -0.062 SA
ATOM      4  C   UNL d   1      58.000   0.433  31.275  0.00  0.00     0.095 A 
ATOM      5  C   UNL d   1      58.685   0.499  31.719  0.00  0.00     0.023 A 
ATOM      6  C   UNL d   1      60.134   0.609  31.398  0.00  0.00     0.103 C 
ATOM      7  N   UNL d   1      60.922   0.678  31.604  0.00  0.00    -0.191 NA
ATOM      8  C   UNL d   1      58.733   0.523  32.547  0.00  0.00     0.001 C 
ENDROOT
BRANCH   1   9
ATOM      9  N   UNL d   1      59.468   0.515  29.729  0.00  0.00    -0.201 NA
ATOM     10  C   UNL d   1      59.333  -0.050  29.141  0.00  0.00     0.280 C 
ATOM     11  O   UNL d   1      59.782  -0.023  28.456  0.00  0.00    -0.265 OA
BRANCH  10  12
ATOM     12  C   UNL d   1      58.761  -0.627  29.240  0.00  0.00     0.058 C 
ATOM     13  C   UNL d   1      58.965  -1.355  29.567  0.00  0.00     0.005 C 
ATOM     14  C   UNL d   1      57.972  -0.488  29.014  0.00  0.00     0.005 C 
ENDBRANCH  10  12
ENDBRANCH   1   9
BRANCH   4  15
ATOM     15  C   UNL d   1      57.237   0.378  31.576  0.00  0.00     0.306 C 
ATOM     16  O   UNL d   1      56.589   0.680  31.143  0.00  0.00    -0.258 OA
BRANCH  15  17
ATOM     17  O   UNL d   1      57.090   0.023  32.314  0.00  0.00    -0.271 OA
BRANCH  17  18
ATOM     18  C   UNL d   1      56.276  -0.128  32.297  0.00  0.00     0.126 C 
ATOM     19  C   UNL d   1      55.932  -0.604  32.876  0.00  0.00     0.029 C 
ENDBRANCH  17  18
ENDBRANCH  15  17
ENDBRANCH   4  15
TORSDOF 5
ENDMDL
MODEL 4
REMARK VINA RESULT:       0.0      2.429      3.640
REMARK  5 active torsions:
REMARK  status: ('A' for Active; 'I' for Inactive)
REMARK    1  A    between atoms: N_6  and  C_1 
REMARK    2  A    between atoms: C_8  and  C_4 
REMARK       I    between atoms: C_7  and  N_6 
REMARK    3  A    between atoms: C_13  and  C_7 
REMARK    4  A    between atoms: O_14  and  C_8 
REMARK    5  A    between atoms: C_18  and  O_14 
ROOT
ATOM      1  C   UNL d   1      57.840   0.662  32.050  0.00  0.00     0.124 A 
ATOM      2  C   UNL d   1      58.399   0.668  32.667  0.00  0.00     0.093 A 
ATOM      3  S   UNL d   1      57.092   0.664  32.394  0.00  0.00    -0.062 SA
ATOM      4  C   UNL d   1      57.188   0.671  33.213  0.00  0.00     0.095 A 
ATOM      5  C   UNL d   1      57.989   0.673  33.383  0.00  0.00     0.023 A 
ATOM      6  C   UNL d   1      59.233   0.667  32.566  0.00  0.00     0.103 C 
ATOM      7  N   UNL d   1      60.046   0.668  32.477  0.00  0.00    -0.191 NA
ATOM      8  C   UNL d   1      58.331   0.680  34.139  0.00  0.00     0.001 C 
ENDROOT
BRANCH   1   9
ATOM      9  N   UNL d   1      58.011   0.655  31.245  0.00  0.00    -0.201 NA
ATOM     10  C   UNL d   1      57.631   0.112  30.751  0.00  0.00     0.280 C 
ATOM     11  O   UNL d   1      57.808   0.112  29.952  0.00  0.00    -0.265 OA
BRANCH  10  12
ATOM     12  C   UNL d   1      57.087  -0.418  31.057  0.00  0.00     0.058 C 
ATOM     13  C   UNL d   1      57.324  -1.182  31.253  0.00  0.00     0.005 C 
ATOM     14  C   UNL d   1      56.293  -0.195  31.173  0.00  0.00     0.005 C 
ENDBRANCH  10  12
ENDBRANCH   1   9
BRANCH   4  15
ATOM     15  C   UNL d   1      56.580   0.675  33.766  0.00  0.00     0.306 C 
ATOM     16  O   UNL d   1      56.753   0.681  34.584  0.00  0.00    -0.258 OA
BRANCH  15  17
ATOM     17  O   UNL d   1      55.782   0.673  33.530  0.00  0.00    -0.271 OA
BRANCH  17  18
ATOM     18  C   UNL d   1      55.370   0.559  34.239  0.00  0.00     0.126 C 
ATOM     19  C   UNL d   1      54.570   0.360  34.224  0.00  0.00     0.029 C 
ENDBRANCH  17  18
ENDBRANCH  15  17
ENDBRANCH   4  15
TORSDOF 5
ENDMDL
MODEL 5
REMARK VINA RESULT:       0.9      1.241      2.128
REMARK  5 active torsions:
REMARK  status: ('A' for Active; 'I' for Inactive)
REMARK    1  A    between atoms: N_6  and  C_1 
REMARK    2  A    between atoms: C_8  and  C_4 
REMARK       I    between atoms: C_7  and  N_6 
REMARK    3  A    between atoms: C_13  and  C_7 
REMARK    4  A    between atoms: O_14  and  C_8 
REMARK    5  A    between atoms: C_18  and  O_14 
ROOT
ATOM      1  C   UNL d   1      59.218  -1.225  29.124  0.00  0.00     0.124 A 
ATOM      2  C   UNL d   1      59.693  -0.549  29.223  0.00  0.00     0.093 A 
ATOM      3  S   UNL d   1      58.558  -1.139  29.609  0.00  0.00    -0.062 SA
ATOM      4  C   UNL d   1      58.626  -0.417  30.003  0.00  0.00     0.095 A 
ATOM      5  C   UNL d   1      59.321  -0.053  29.769  0.00  0.00     0.023 A 
ATOM      6  C   UNL d   1      60.422  -0.407  28.832  0.00  0.00     0.103 C 
ATOM      7  N   UNL d   1      61.133  -0.259  28.455  0.00  0.00    -0.191 NA
ATOM      8  C   UNL d   1      59.604   0.681  30.030  0.00  0.00     0.001 C 
ENDROOT
BRANCH   1   9
ATOM      9  N   UNL d   1      59.384  -1.861  28.628  0.00  0.00    -0.201 NA
ATOM     10  C   UNL d   1      59.533  -2.606  28.956  0.00  0.00     0.280 C 
ATOM     11  O   UNL d   1      59.697  -3.233  28.456  0.00  0.00    -0.265 OA
BRANCH  10  12
ATOM     12  C   UNL d   1      59.516  -2.714  29.767  0.00  0.00     0.058 C 
ATOM     13  C   UNL d   1      60.203  -2.609  30.209  0.00  0.00     0.005 C 
ATOM     14  C   UNL d   1      58.811  -2.930  30.154  0.00  0.00     0.005 C 
ENDBRANCH  10  12
ENDBRANCH   1   9
BRANCH   4  15
ATOM     15  C   UNL d   1      58.085  -0.114  30.542  0.00  0.00     0.306 C 
ATOM     16  O   UNL d   1      58.246   0.597  30.950  0.00  0.00    -0.258 OA
BRANCH  15  17
ATOM     17  O   UNL d   1      57.366  -0.505  30.697  0.00  0.00    -0.271 OA
BRANCH  17  18
ATOM     18  C   UNL d   1      57.162  -0.241  31.455  0.00  0.00     0.126 C 
ATOM     19  C   UNL d   1      56.587  -0.641  31.890  0.00  0.00     0.029 C 
ENDBRANCH  17  18
ENDBRANCH  15  17
ENDBRANCH   4  15
TORSDOF 5
ENDMDL
MODEL 6
REMARK VINA RESULT:       1.0      3.662      5.171
REMARK  5 active torsions:
REMARK  status: ('A' for Active; 'I' for Inactive)
REMARK    1  A    between atoms: N_6  and  C_1 
REMARK    2  A    between atoms: C_8  and  C_4 
REMARK       I    between atoms: C_7  and  N_6 
REMARK    3  A    between atoms: C_13  and  C_7 
REMARK    4  A    between atoms: O_14  and  C_8 
REMARK    5  A    between atoms: C_18  and  O_14 
ROOT
ATOM      1  C   UNL d   1      56.689   0.616  33.534  0.00  0.00     0.124 A 
ATOM      2  C   UNL d   1      57.154   0.642  34.225  0.00  0.00     0.093 A 
ATOM      3  S   UNL d   1      55.899   0.602  33.766  0.00  0.00    -0.062 SA
ATOM      4  C   UNL d   1      55.877   0.620  34.591  0.00  0.00     0.095 A 
ATOM      5  C   UNL d   1      56.644   0.645  34.875  0.00  0.00     0.023 A 
ATOM      6  C   UNL d   1      57.993   0.662  34.245  0.00  0.00     0.103 C 
ATOM      7  N   UNL d   1      58.810   0.681  34.274  0.00  0.00    -0.191 NA
ATOM      8  C   UNL d   1      56.873   0.668  35.672  0.00  0.00     0.001 C 
ENDROOT
BRANCH   1   9
ATOM      9  N   UNL d   1      56.975   0.605  32.762  0.00  0.00    -0.201 NA
ATOM     10  C   UNL d   1      56.779  -0.024  32.263  0.00  0.00     0.280 C 
ATOM     11  O   UNL d   1      57.068  -0.027  31.497  0.00  0.00    -0.265 OA
BRANCH  10  12
ATOM     12  C   UNL d   1      56.303  -0.635  32.530  0.00  0.00     0.058 C 
ATOM     13  C   UNL d   1      56.638  -1.270  32.933  0.00  0.00     0.005 C 
ATOM     14  C   UNL d   1      55.481  -0.623  32.400  0.00  0.00     0.005 C 
ENDBRANCH  10  12
ENDBRANCH   1   9
BRANCH   4  15
ATOM     15  C   UNL d   1      55.195   0.615  35.051  0.00  0.00     0.306 C 
ATOM     16  O   UNL d   1      55.248   0.583  35.884  0.00  0.00    -0.258 OA
BRANCH  15  17
ATOM     17  O   UNL d   1      54.440   0.641  34.702  0.00  0.00    -0.271 OA
BRANCH  17  18
ATOM     18  C   UNL d   1      53.926   0.603  35.351  0.00  0.00     0.126 C 
ATOM     19  C   UNL d   1      53.113   0.542  35.229  0.00  0.00     0.029 C 
ENDBRANCH  17  18
ENDBRANCH  15  17
ENDBRANCH   4  15
TORSDOF 5
ENDMDL
MODEL 7
REMARK VINA RESULT:       1.1      1.402      1.884
REMARK  5 active torsions:
REMARK  status: ('A' for Active; 'I' for Inactive)
REMARK    1  A    between atoms: N_6  and  C_1 
REMARK    2  A    between atoms: C_8  and  C_4 
REMARK       I    between atoms: C_7  and  N_6 
REMARK    3  A    between atoms: C_13  and  C_7 
REMARK    4  A    between atoms: O_14  and  C_8 
REMARK    5  A    between atoms: C_18  and  O_14 
ROOT
ATOM      1  C   UNL d   1      58.667   0.656  30.011  0.00  0.00     0.124 A 
ATOM      2  C   UNL d   1      57.838   0.649  29.926  0.00  0.00     0.093 A 
ATOM      3  S   UNL d   1      58.834   0.634  30.816  0.00  0.00    -0.062 SA
ATOM      4  C   UNL d   1      58.118   0.613  31.224  0.00  0.00     0.095 A 
ATOM      5  C   UNL d   1      57.505   0.621  30.681  0.00  0.00     0.023 A 
ATOM      6  C   UNL d   1      57.425   0.666  29.195  0.00  0.00     0.103 C 
ATOM      7  N   UNL d   1      57.014   0.682  28.488  0.00  0.00    -0.191 NA
ATOM      8  C   UNL d   1      56.694   0.606  30.854  0.00  0.00     0.001 C 
ENDROOT
BRANCH   1   9
ATOM      9  N   UNL d   1      59.213   0.682  29.396  0.00  0.00    -0.201 NA
ATOM     10  C   UNL d   1      59.820   0.121  29.365  0.00  0.00     0.280 C 
ATOM     11  O   UNL d   1      60.359   0.154  28.750  0.00  0.00    -0.265 OA
BRANCH  10  12
ATOM     12  C   UNL d   1      59.881  -0.458  29.941  0.00  0.00     0.058 C 
ATOM     13  C   UNL d   1      59.475  -1.168  29.854  0.00  0.00     0.005 C 
ATOM     14  C   UNL d   1      60.351  -0.337  30.618  0.00  0.00     0.005 C 
ENDBRANCH  10  12
ENDBRANCH   1   9
BRANCH   4  15
ATOM     15  C   UNL d   1      58.033   0.587  32.041  0.00  0.00     0.306 C 
ATOM     16  O   UNL d   1      58.698   0.679  32.539  0.00  0.00    -0.258 OA
BRANCH  15  17
ATOM     17  O   UNL d   1      57.288   0.469  32.393  0.00  0.00    -0.271 OA
BRANCH  17  18
ATOM     18  C   UNL d   1      57.416   0.664  33.188  0.00  0.00     0.126 C 
ATOM     19  C   UNL d   1      56.877   0.424  33.764  0.00  0.00     0.029 C 
ENDBRANCH  17  18
ENDBRANCH  15  17
ENDBRANCH   4  15
TORSDOF 5
ENDMDL
