MODEL 1
REMARK VINA RESULT:      72.4      0.000      0.000
REMARK  5 active torsions:
REMARK  status: ('A' for Active; 'I' for Inactive)
REMARK       I    between atoms: N_3  and  C_1 
REMARK    1  A    between atoms: C_4  and  C_1 
REMARK    2  A    between atoms: C_2  and  C_6 
REMARK    3  A    between atoms: O_5  and  C_2 
REMARK    4  A    between atoms: C_11  and  N_3 
REMARK    5  A    between atoms: C_14  and  O_5 
ROOT
ATOM      1  C   UNL d   1      61.389  45.954  50.181  0.00  0.00     0.064 A 
ATOM      2  C   UNL d   1      60.803  46.213  50.703  0.00  0.00     0.008 A 
ATOM      3  C   UNL d   1      61.855  46.508  49.775  0.00  0.00     0.008 A 
ATOM      4  C   UNL d   1      61.149  47.572  50.415  0.00  0.00     0.135 A 
ATOM      5  C   UNL d   1      60.682  47.019  50.821  0.00  0.00     0.032 A 
ATOM      6  C   UNL d   1      61.732  47.317  49.895  0.00  0.00     0.032 A 
ENDROOT
BRANCH   1   7
ATOM      7  C   UNL d   1      61.506  45.143  50.067  0.00  0.00     0.300 C 
ATOM      8  O   UNL d   1      61.791  44.873  49.344  0.00  0.00    -0.259 OA
BRANCH   7   9
ATOM      9  O   UNL d   1      61.336  44.611  50.674  0.00  0.00    -0.273 OA
BRANCH   9  10
ATOM     10  C   UNL d   1      61.794  43.931  50.760  0.00  0.00     0.103 A 
ATOM     11  C   UNL d   1      62.379  43.757  50.207  0.00  0.00     0.025 A 
ATOM     12  C   UNL d   1      62.830  43.083  50.296  0.00  0.00     0.002 A 
ATOM     13  C   UNL d   1      62.708  42.572  50.933  0.00  0.00     0.000 A 
ATOM     14  C   UNL d   1      62.117  42.751  51.488  0.00  0.00     0.002 A 
ATOM     15  C   UNL d   1      61.660  43.430  51.402  0.00  0.00     0.025 A 
ENDBRANCH   9  10
ENDBRANCH   7   9
ENDBRANCH   1   7
BRANCH   4  16
ATOM     16  N   UNL d   1      61.024  48.384  50.537  0.00  0.00    -0.368 NA
ATOM     17  C   UNL d   1      60.900  49.187  50.659  0.00  0.00     0.303 C 
ATOM     18  O   UNL d   1      60.910  49.708  50.020  0.00  0.00    -0.256 OA
BRANCH  17  19
ATOM     19  C   UNL d   1      60.765  49.470  51.421  0.00  0.00     0.085 C 
ATOM     20  C   UNL d   1      61.385  49.518  51.963  0.00  0.00     0.011 C 
ATOM     21  C   UNL d   1      60.027  49.505  51.048  0.00  0.00     0.011 C 
ATOM     22  C   UNL d   1      60.009  49.708  51.645  0.00  0.00     0.011 C 
ENDBRANCH  17  19
ENDBRANCH   4  16
TORSDOF 5
ENDMDL
