MODEL 1
REMARK VINA RESULT:      17.7      0.000      0.000
REMARK  4 active torsions:
REMARK  status: ('A' for Active; 'I' for Inactive)
REMARK    1  A    between atoms: O_2  and  C_1 
REMARK       I    between atoms: N_6  and  C_1 
REMARK    2  A    between atoms: C_3  and  O_2 
REMARK    3  A    between atoms: C_14  and  N_6 
REMARK    4  A    between atoms: C_15  and  N_6 
ROOT
ATOM      1  C   UNL d   1      13.566  12.794  -2.939  0.00  0.00     0.105 A 
ATOM      2  C   UNL d   1      13.328  12.681  -3.721  0.00  0.00     0.024 A 
ATOM      3  C   UNL d   1      13.245  13.307  -4.228  0.00  0.00     0.013 A 
ATOM      4  C   UNL d   1      13.397  14.065  -3.969  0.00  0.00     0.058 A 
ATOM      5  C   UNL d   1      13.718  13.571  -2.687  0.00  0.00     0.026 A 
ATOM      6  C   UNL d   1      13.635  14.197  -3.194  0.00  0.00     0.013 A 
ATOM      7 CL   UNL d   1      13.315  14.710  -4.482  0.00  0.00    -0.082 Cl
ATOM      8  C   UNL d   1      13.175  11.905  -3.972  0.00  0.00     0.002 A 
ATOM      9  C   UNL d   1      13.007  13.176  -5.003  0.00  0.00     0.001 A 
ATOM     10  C   UNL d   1      12.849  12.405  -5.277  0.00  0.00     0.000 A 
ATOM     11  C   UNL d   1      12.932  11.779  -4.770  0.00  0.00     0.000 A 
ENDROOT
BRANCH   1  12
ATOM     12  O   UNL d   1      13.651  12.168  -2.422  0.00  0.00    -0.259 OA
BRANCH  12  13
ATOM     13  C   UNL d   1      14.268  12.173  -1.865  0.00  0.00     0.377 C 
ATOM     14  N   UNL d   1      14.099  11.973  -1.055  0.00  0.00    -0.252 N 
ATOM     15  O   UNL d   1      15.036  12.366  -2.072  0.00  0.00    -0.237 OA
BRANCH  14  16
ATOM     16  C   UNL d   1      14.708  11.978  -0.501  0.00  0.00     0.085 C 
ATOM     17  C   UNL d   1      14.870  12.676  -0.077  0.00  0.00     0.021 C 
ENDBRANCH  14  16
BRANCH  14  18
ATOM     18  C   UNL d   1      13.342  11.780  -0.835  0.00  0.00     0.085 C 
ATOM     19  C   UNL d   1      13.063  11.988  -0.079  0.00  0.00     0.021 C 
ENDBRANCH  14  18
ENDBRANCH  12  13
ENDBRANCH   1  12
TORSDOF 4
ENDMDL
MODEL 2
REMARK VINA RESULT:      19.8      1.768      3.855
REMARK  4 active torsions:
REMARK  status: ('A' for Active; 'I' for Inactive)
REMARK    1  A    between atoms: O_2  and  C_1 
REMARK       I    between atoms: N_6  and  C_1 
REMARK    2  A    between atoms: C_3  and  O_2 
REMARK    3  A    between atoms: C_14  and  N_6 
REMARK    4  A    between atoms: C_15  and  N_6 
ROOT
ATOM      1  C   UNL d   1      14.010  12.857  -2.143  0.00  0.00     0.105 A 
ATOM      2  C   UNL d   1      14.370  13.370  -1.607  0.00  0.00     0.024 A 
ATOM      3  C   UNL d   1      14.678  13.099  -0.909  0.00  0.00     0.013 A 
ATOM      4  C   UNL d   1      14.636  12.305  -0.726  0.00  0.00     0.058 A 
ATOM      5  C   UNL d   1      13.972  12.051  -1.945  0.00  0.00     0.026 A 
ATOM      6  C   UNL d   1      14.280  11.779  -1.247  0.00  0.00     0.013 A 
ATOM      7 CL   UNL d   1      14.949  12.020  -0.014  0.00  0.00    -0.082 Cl
ATOM      8  C   UNL d   1      14.407  14.175  -1.806  0.00  0.00     0.002 A 
ATOM      9  C   UNL d   1      15.034  13.624  -0.388  0.00  0.00     0.001 A 
ATOM     10  C   UNL d   1      15.082  14.437  -0.567  0.00  0.00     0.000 A 
ATOM     11  C   UNL d   1      14.774  14.708  -1.265  0.00  0.00     0.000 A 
ENDROOT
BRANCH   1  12
ATOM     12  O   UNL d   1      13.696  13.123  -2.849  0.00  0.00    -0.259 OA
BRANCH  12  13
ATOM     13  C   UNL d   1      13.466  12.577  -3.432  0.00  0.00     0.377 C 
ATOM     14  N   UNL d   1      12.999  12.844  -4.091  0.00  0.00    -0.252 N 
ATOM     15  O   UNL d   1      13.676  11.787  -3.390  0.00  0.00    -0.237 OA
BRANCH  14  16
ATOM     16  C   UNL d   1      12.769  12.304  -4.669  0.00  0.00     0.085 C 
ATOM     17  C   UNL d   1      13.324  12.048  -5.233  0.00  0.00     0.021 C 
ENDBRANCH  14  16
BRANCH  14  18
ATOM     18  C   UNL d   1      12.783  13.624  -4.145  0.00  0.00     0.085 C 
ATOM     19  C   UNL d   1      12.827  14.017  -4.876  0.00  0.00     0.021 C 
ENDBRANCH  14  18
ENDBRANCH  12  13
ENDBRANCH   1  12
TORSDOF 4
ENDMDL
