MODEL 1
REMARK VINA RESULT:      32.7      0.000      0.000
REMARK  6 active torsions:
REMARK  status: ('A' for Active; 'I' for Inactive)
REMARK    1  A    between atoms: S_10  and  C_6 
REMARK    2  A    between atoms: C_14  and  S_10 
REMARK    3  A    between atoms: C_11  and  C_14 
REMARK       I    between atoms: N_15  and  C_11 
REMARK    4  A    between atoms: C_20  and  N_15 
REMARK    5  A    between atoms: C_18  and  C_20 
REMARK    6  A    between atoms: C_21  and  C_18 
ROOT
ATOM      1  C   UNL d   1     -52.074  25.642  33.306  0.00  0.00     0.187 A 
ATOM      2  C   UNL d   1     -51.701  24.907  33.306  0.00  0.00     0.081 A 
ATOM      3  N   UNL d   1     -51.613  26.332  33.306  0.00  0.00    -0.197 NA
ATOM      4  N   UNL d   1     -50.418  25.535  33.306  0.00  0.00    -0.200 NA
ATOM      5  C   UNL d   1     -50.878  24.851  33.306  0.00  0.00     0.189 A 
ATOM      6  C   UNL d   1     -50.782  26.280  33.306  0.00  0.00     0.198 A 
ATOM      7  C   UNL d   1     -52.289  24.330  33.306  0.00  0.00     0.029 A 
ATOM      8  O   UNL d   1     -52.883  25.523  33.306  0.00  0.00    -0.289 OA
ATOM      9  C   UNL d   1     -53.027  24.707  33.306  0.00  0.00     0.102 A 
ATOM     10  N   UNL d   1     -50.517  24.110  33.306  0.00  0.00    -0.127 N 
ATOM     11  C   UNL d   1     -52.164  23.507  33.306  0.00  0.00     0.002 C 
ATOM     12  C   UNL d   1     -53.763  24.334  33.306  0.00  0.00     0.027 C 
ENDROOT
BRANCH   6  13
ATOM     13  S   UNL d   1     -50.331  26.967  33.307  0.00  0.00    -0.043 SA
BRANCH  13  14
ATOM     14  C   UNL d   1     -49.715  27.064  33.845  0.00  0.00     0.101 C 
BRANCH  14  15
ATOM     15  C   UNL d   1     -49.509  27.815  34.101  0.00  0.00     0.286 C 
ATOM     16  O   UNL d   1     -49.969  28.470  33.886  0.00  0.00    -0.265 OA
ATOM     17  N   UNL d   1     -48.843  27.922  34.572  0.00  0.00    -0.206 NA
BRANCH  17  18
ATOM     18  C   UNL d   1     -48.636  28.682  34.830  0.00  0.00     0.106 C 
BRANCH  18  19
ATOM     19  C   UNL d   1     -47.910  28.801  35.179  0.00  0.00     0.066 C 
BRANCH  19  20
ATOM     20  C   UNL d   1     -47.799  29.451  35.680  0.00  0.00     0.236 C 
ATOM     21  O   UNL d   1     -47.259  30.029  35.486  0.00  0.00    -0.283 OA
ENDBRANCH  19  20
ENDBRANCH  18  19
ENDBRANCH  17  18
ENDBRANCH  14  15
ENDBRANCH  13  14
ENDBRANCH   6  13
TORSDOF 6
ENDMDL
MODEL 2
REMARK VINA RESULT:      35.1      0.800      1.327
REMARK  6 active torsions:
REMARK  status: ('A' for Active; 'I' for Inactive)
REMARK    1  A    between atoms: S_10  and  C_6 
REMARK    2  A    between atoms: C_14  and  S_10 
REMARK    3  A    between atoms: C_11  and  C_14 
REMARK       I    between atoms: N_15  and  C_11 
REMARK    4  A    between atoms: C_20  and  N_15 
REMARK    5  A    between atoms: C_18  and  C_20 
REMARK    6  A    between atoms: C_21  and  C_18 
ROOT
ATOM      1  C   UNL d   1     -51.107  24.992  33.433  0.00  0.00     0.187 A 
ATOM      2  C   UNL d   1     -51.873  25.295  33.388  0.00  0.00     0.081 A 
ATOM      3  N   UNL d   1     -50.464  25.514  33.472  0.00  0.00    -0.197 NA
ATOM      4  N   UNL d   1     -51.366  26.630  33.422  0.00  0.00    -0.200 NA
ATOM      5  C   UNL d   1     -52.003  26.110  33.383  0.00  0.00     0.189 A 
ATOM      6  C   UNL d   1     -50.593  26.337  33.467  0.00  0.00     0.198 A 
ATOM      7  C   UNL d   1     -52.392  24.656  33.356  0.00  0.00     0.029 A 
ATOM      8  O   UNL d   1     -51.151  24.175  33.428  0.00  0.00    -0.289 OA
ATOM      9  C   UNL d   1     -51.949  23.957  33.380  0.00  0.00     0.102 A 
ATOM     10  N   UNL d   1     -52.774  26.401  33.338  0.00  0.00    -0.127 N 
ATOM     11  C   UNL d   1     -53.222  24.705  33.307  0.00  0.00     0.002 C 
ATOM     12  C   UNL d   1     -52.253  23.189  33.360  0.00  0.00     0.027 C 
ENDROOT
BRANCH   6  13
ATOM     13  S   UNL d   1     -49.951  26.849  33.507  0.00  0.00    -0.043 SA
BRANCH  13  14
ATOM     14  C   UNL d   1     -49.825  27.312  34.176  0.00  0.00     0.101 C 
BRANCH  14  15
ATOM     15  C   UNL d   1     -49.069  27.571  34.359  0.00  0.00     0.286 C 
ATOM     16  O   UNL d   1     -48.425  27.344  33.889  0.00  0.00    -0.265 OA
ATOM     17  N   UNL d   1     -48.946  28.058  35.010  0.00  0.00    -0.206 NA
BRANCH  17  18
ATOM     18  C   UNL d   1     -48.181  28.319  35.193  0.00  0.00     0.106 C 
BRANCH  18  19
ATOM     19  C   UNL d   1     -47.981  29.097  35.058  0.00  0.00     0.066 C 
BRANCH  19  20
ATOM     20  C   UNL d   1     -47.687  29.558  35.680  0.00  0.00     0.236 C 
ATOM     21  O   UNL d   1     -47.129  30.134  35.533  0.00  0.00    -0.283 OA
ENDBRANCH  19  20
ENDBRANCH  18  19
ENDBRANCH  17  18
ENDBRANCH  14  15
ENDBRANCH  13  14
ENDBRANCH   6  13
TORSDOF 6
ENDMDL
