MODEL 1
REMARK VINA RESULT:      88.0      0.000      0.000
REMARK  7 active torsions:
REMARK  status: ('A' for Active; 'I' for Inactive)
REMARK    1  A    between atoms: N_3  and  C_1 
REMARK       I    between atoms: C_8  and  N_3 
REMARK    2  A    between atoms: C_12  and  N_3 
REMARK    3  A    between atoms: S_5  and  C_11 
REMARK    4  A    between atoms: C_16  and  S_5 
REMARK    5  A    between atoms: C_9  and  C_8 
REMARK    6  A    between atoms: C_11  and  C_9 
REMARK    7  A    between atoms: C_21  and  C_12 
ROOT
ATOM      1  N   UNL d   1     -48.480  29.648  34.326  0.00  0.00    -0.253 N 
ATOM      2  C   UNL d   1     -49.178  29.341  33.979  0.00  0.00     0.267 C 
ATOM      3  O   UNL d   1     -49.680  29.846  33.568  0.00  0.00    -0.267 OA
ENDROOT
BRANCH   1   4
ATOM      4  C   UNL d   1     -48.305  30.450  34.251  0.00  0.00     0.182 A 
ATOM      5  N   UNL d   1     -47.553  30.779  34.127  0.00  0.00    -0.222 NA
ATOM      6  C   UNL d   1     -47.627  31.606  34.084  0.00  0.00     0.089 A 
ATOM      7  C   UNL d   1     -47.078  32.192  33.972  0.00  0.00     0.020 A 
ATOM      8  C   UNL d   1     -48.428  31.784  34.181  0.00  0.00     0.050 A 
ATOM      9  C   UNL d   1     -47.316  32.964  33.954  0.00  0.00     0.002 A 
ATOM     10  C   UNL d   1     -46.756  33.566  33.839  0.00  0.00     0.000 C 
ATOM     11  C   UNL d   1     -48.112  33.153  34.050  0.00  0.00     0.001 A 
ATOM     12  C   UNL d   1     -48.668  32.565  34.164  0.00  0.00     0.007 A 
ATOM     13  C   UNL d   1     -49.464  32.740  34.260  0.00  0.00     0.001 C 
ATOM     14  S   UNL d   1     -48.843  31.079  34.283  0.00  0.00    -0.048 SA
ENDBRANCH   1   4
BRANCH   1  15
ATOM     15  C   UNL d   1     -47.972  29.149  34.740  0.00  0.00     0.086 C 
BRANCH  15  16
ATOM     16  C   UNL d   1     -47.858  29.255  35.550  0.00  0.00     0.037 A 
ATOM     17  C   UNL d   1     -48.268  28.788  36.090  0.00  0.00     0.100 A 
ATOM     18  N   UNL d   1     -48.154  28.894  36.900  0.00  0.00    -0.242 NA
ATOM     19  C   UNL d   1     -47.631  29.468  37.170  0.00  0.00     0.099 A 
ATOM     20  C   UNL d   1     -47.217  29.939  36.631  0.00  0.00     0.021 A 
ATOM     21  C   UNL d   1     -47.331  29.833  35.821  0.00  0.00     0.005 A 
ENDBRANCH  15  16
ENDBRANCH   1  15
BRANCH   2  22
ATOM     22  C   UNL d   1     -49.351  28.544  34.056  0.00  0.00     0.073 C 
BRANCH  22  23
ATOM     23  C   UNL d   1     -49.436  28.077  33.376  0.00  0.00     0.104 C 
BRANCH  23  24
ATOM     24  S   UNL d   1     -49.999  27.472  33.358  0.00  0.00     0.211 S 
ATOM     25  O   UNL d   1     -49.388  26.898  33.378  0.00  0.00    -0.217 OA
ATOM     26  O   UNL d   1     -50.608  28.040  33.338  0.00  0.00    -0.217 OA
BRANCH  24  27
ATOM     27  C   UNL d   1     -50.563  26.862  33.341  0.00  0.00     0.088 A 
ATOM     28  C   UNL d   1     -51.367  27.047  33.326  0.00  0.00     0.011 A 
ATOM     29  C   UNL d   1     -51.929  26.447  33.309  0.00  0.00     0.001 A 
ATOM     30  C   UNL d   1     -51.687  25.659  33.306  0.00  0.00     0.000 A 
ATOM     31  C   UNL d   1     -50.893  25.472  33.320  0.00  0.00     0.001 A 
ATOM     32  C   UNL d   1     -50.322  26.071  33.337  0.00  0.00     0.011 A 
ENDBRANCH  24  27
ENDBRANCH  23  24
ENDBRANCH  22  23
ENDBRANCH   2  22
TORSDOF 7
ENDMDL
MODEL 2
REMARK VINA RESULT:      89.5      2.197      6.150
REMARK  7 active torsions:
REMARK  status: ('A' for Active; 'I' for Inactive)
REMARK    1  A    between atoms: N_3  and  C_1 
REMARK       I    between atoms: C_8  and  N_3 
REMARK    2  A    between atoms: C_12  and  N_3 
REMARK    3  A    between atoms: S_5  and  C_11 
REMARK    4  A    between atoms: C_16  and  S_5 
REMARK    5  A    between atoms: C_9  and  C_8 
REMARK    6  A    between atoms: C_11  and  C_9 
REMARK    7  A    between atoms: C_21  and  C_12 
ROOT
ATOM      1  N   UNL d   1     -50.665  26.670  34.463  0.00  0.00    -0.253 N 
ATOM      2  C   UNL d   1     -49.929  26.909  34.141  0.00  0.00     0.267 C 
ATOM      3  O   UNL d   1     -49.564  26.438  33.574  0.00  0.00    -0.267 OA
ENDROOT
BRANCH   1   4
ATOM      4  C   UNL d   1     -51.013  25.968  34.209  0.00  0.00     0.182 A 
ATOM      5  N   UNL d   1     -51.827  25.806  34.176  0.00  0.00    -0.222 NA
ATOM      6  C   UNL d   1     -51.935  25.034  33.886  0.00  0.00     0.089 A 
ATOM      7  C   UNL d   1     -52.604  24.600  33.745  0.00  0.00     0.020 A 
ATOM      8  C   UNL d   1     -51.184  24.721  33.741  0.00  0.00     0.050 A 
ATOM      9  C   UNL d   1     -52.538  23.848  33.457  0.00  0.00     0.002 A 
ATOM     10  C   UNL d   1     -53.223  23.400  33.311  0.00  0.00     0.000 C 
ATOM     11  C   UNL d   1     -51.795  23.526  33.309  0.00  0.00     0.001 A 
ATOM     12  C   UNL d   1     -51.118  23.961  33.450  0.00  0.00     0.007 A 
ATOM     13  C   UNL d   1     -50.372  23.651  33.306  0.00  0.00     0.001 C 
ATOM     14  S   UNL d   1     -50.619  25.291  33.938  0.00  0.00    -0.048 SA
ENDBRANCH   1   4
BRANCH   1  15
ATOM     15  C   UNL d   1     -51.036  27.136  35.032  0.00  0.00     0.086 C 
BRANCH  15  16
ATOM     16  C   UNL d   1     -51.052  26.892  35.819  0.00  0.00     0.037 A 
ATOM     17  C   UNL d   1     -50.399  27.016  36.304  0.00  0.00     0.100 A 
ATOM     18  N   UNL d   1     -50.415  26.772  37.092  0.00  0.00    -0.242 NA
ATOM     19  C   UNL d   1     -51.085  26.403  37.395  0.00  0.00     0.099 A 
ATOM     20  C   UNL d   1     -51.743  26.277  36.911  0.00  0.00     0.021 A 
ATOM     21  C   UNL d   1     -51.727  26.521  36.123  0.00  0.00     0.005 A 
ENDBRANCH  15  16
ENDBRANCH   1  15
BRANCH   2  22
ATOM     22  C   UNL d   1     -49.584  27.608  34.395  0.00  0.00     0.073 C 
BRANCH  22  23
ATOM     23  C   UNL d   1     -48.758  27.678  34.398  0.00  0.00     0.104 C 
BRANCH  23  24
ATOM     24  S   UNL d   1     -48.401  28.338  34.749  0.00  0.00     0.211 S 
ATOM     25  O   UNL d   1     -49.076  28.802  34.569  0.00  0.00    -0.217 OA
ATOM     26  O   UNL d   1     -47.731  27.877  34.928  0.00  0.00    -0.217 OA
BRANCH  24  27
ATOM     27  C   UNL d   1     -48.045  29.001  35.099  0.00  0.00     0.088 A 
ATOM     28  C   UNL d   1     -47.597  29.517  34.638  0.00  0.00     0.011 A 
ATOM     29  C   UNL d   1     -47.243  30.176  34.981  0.00  0.00     0.001 A 
ATOM     30  C   UNL d   1     -47.337  30.319  35.787  0.00  0.00     0.000 A 
ATOM     31  C   UNL d   1     -47.779  29.810  36.247  0.00  0.00     0.001 A 
ATOM     32  C   UNL d   1     -48.138  29.146  35.907  0.00  0.00     0.011 A 
ENDBRANCH  24  27
ENDBRANCH  23  24
ENDBRANCH  22  23
ENDBRANCH   2  22
TORSDOF 7
ENDMDL
