MODEL 1
REMARK VINA RESULT:      -6.9      0.000      0.000
REMARK  3 active torsions:
REMARK  status: ('A' for Active; 'I' for Inactive)
REMARK    1  A    between atoms: C_6  and  N_1 
REMARK    2  A    between atoms: C_5  and  C_6 
REMARK       I    between atoms: N_8  and  C_5 
REMARK    3  A    between atoms: C_10  and  N_8 
ROOT
ATOM      1  C   UNL d   1     -41.515-122.626 -51.738  0.00  0.00     0.297 C 
ATOM      2  N   UNL d   1     -41.489-122.152 -51.058  0.00  0.00    -0.207 NA
ATOM      3  O   UNL d   1     -41.838-123.380 -51.698  0.00  0.00    -0.264 OA
ENDROOT
BRANCH   1   4
ATOM      4  C   UNL d   1     -41.217-122.339 -52.450  0.00  0.00     0.145 C 
BRANCH   4   5
ATOM      5  N   UNL d   1     -41.316-122.770 -53.142  0.00  0.00    -0.282 N 
ATOM      6  C   UNL d   1     -41.123-123.566 -53.257  0.00  0.00     0.183 A 
ATOM      7  N   UNL d   1     -41.316-123.766 -54.033  0.00  0.00    -0.224 NA
ATOM      8  C   UNL d   1     -41.631-123.096 -54.402  0.00  0.00     0.099 A 
ATOM      9  C   UNL d   1     -41.630-122.481 -53.848  0.00  0.00     0.083 A 
ATOM     10  C   UNL d   1     -41.914-122.971 -55.165  0.00  0.00     0.021 A 
ATOM     11  C   UNL d   1     -41.917-121.741 -54.071  0.00  0.00     0.019 A 
ATOM     12  C   UNL d   1     -42.201-121.607 -54.824  0.00  0.00     0.002 A 
ATOM     13  C   UNL d   1     -42.203-122.226 -55.384  0.00  0.00     0.002 A 
ENDBRANCH   4   5
ENDBRANCH   1   4
BRANCH   2  14
ATOM     14  C   UNL d   1     -41.804-122.498 -50.375  0.00  0.00     0.085 A 
ATOM     15  C   UNL d   1     -41.313-122.899 -49.857  0.00  0.00     0.019 A 
ATOM     16  C   UNL d   1     -41.620-123.245 -49.176  0.00  0.00     0.002 A 
ATOM     17  C   UNL d   1     -41.123-123.649 -48.654  0.00  0.00     0.000 C 
ATOM     18  C   UNL d   1     -42.436-123.185 -49.016  0.00  0.00     0.000 A 
ATOM     19  C   UNL d   1     -42.927-122.782 -49.538  0.00  0.00     0.002 A 
ATOM     20  C   UNL d   1     -42.751-123.531 -48.333  0.00  0.00     0.000 C 
ATOM     21  C   UNL d   1     -42.612-122.436 -50.221  0.00  0.00     0.019 A 
ENDBRANCH   2  14
TORSDOF 3
ENDMDL
MODEL 2
REMARK VINA RESULT:      -6.4      0.748      4.795
REMARK  3 active torsions:
REMARK  status: ('A' for Active; 'I' for Inactive)
REMARK    1  A    between atoms: C_6  and  N_1 
REMARK    2  A    between atoms: C_5  and  C_6 
REMARK       I    between atoms: N_8  and  C_5 
REMARK    3  A    between atoms: C_10  and  N_8 
ROOT
ATOM      1  C   UNL d   1     -41.433-122.913 -51.605  0.00  0.00     0.297 C 
ATOM      2  N   UNL d   1     -41.126-122.386 -52.167  0.00  0.00    -0.207 NA
ATOM      3  O   UNL d   1     -41.905-123.541 -51.846  0.00  0.00    -0.264 OA
ENDROOT
BRANCH   1   4
ATOM      4  C   UNL d   1     -41.263-122.805 -50.806  0.00  0.00     0.145 C 
BRANCH   4   5
ATOM      5  N   UNL d   1     -41.868-122.811 -50.252  0.00  0.00    -0.282 N 
ATOM      6  C   UNL d   1     -42.654-122.588 -50.380  0.00  0.00     0.183 A 
ATOM      7  N   UNL d   1     -43.066-122.682 -49.672  0.00  0.00    -0.224 NA
ATOM      8  C   UNL d   1     -42.537-122.963 -49.101  0.00  0.00     0.099 A 
ATOM      9  C   UNL d   1     -41.796-123.043 -49.463  0.00  0.00     0.083 A 
ATOM     10  C   UNL d   1     -42.637-123.155 -48.307  0.00  0.00     0.021 A 
ATOM     11  C   UNL d   1     -41.160-123.316 -49.017  0.00  0.00     0.019 A 
ATOM     12  C   UNL d   1     -41.248-123.509 -48.228  0.00  0.00     0.002 A 
ATOM     13  C   UNL d   1     -41.994-123.430 -47.862  0.00  0.00     0.002 A 
ENDBRANCH   4   5
ENDBRANCH   1   4
BRANCH   2  14
ATOM     14  C   UNL d   1     -41.334-122.549 -52.951  0.00  0.00     0.085 A 
ATOM     15  C   UNL d   1     -41.747-121.992 -53.388  0.00  0.00     0.019 A 
ATOM     16  C   UNL d   1     -41.956-122.148 -54.170  0.00  0.00     0.002 A 
ATOM     17  C   UNL d   1     -42.373-121.586 -54.608  0.00  0.00     0.000 C 
ATOM     18  C   UNL d   1     -41.745-122.877 -54.514  0.00  0.00     0.000 A 
ATOM     19  C   UNL d   1     -41.330-123.434 -54.074  0.00  0.00     0.002 A 
ATOM     20  C   UNL d   1     -41.952-123.040 -55.299  0.00  0.00     0.000 C 
ATOM     21  C   UNL d   1     -41.123-123.271 -53.289  0.00  0.00     0.019 A 
ENDBRANCH   2  14
TORSDOF 3
ENDMDL
