MODEL 1
REMARK VINA RESULT:      33.7      0.000      0.000
REMARK  5 active torsions:
REMARK  status: ('A' for Active; 'I' for Inactive)
REMARK    1  A    between atoms: S_12  and  C_4 
REMARK    2  A    between atoms: C_7  and  C_5 
REMARK    3  A    between atoms: C_20  and  S_12 
REMARK    4  A    between atoms: C_14  and  C_20 
REMARK    5  A    between atoms: O_21  and  C_14 
ROOT
ATOM      1  C   UNL d   1     -50.551  25.242  33.356  0.00  0.00     0.095 A 
ATOM      2  C   UNL d   1     -51.218  26.519  33.336  0.00  0.00     0.108 A 
ATOM      3  N   UNL d   1     -51.992  25.304  33.339  0.00  0.00    -0.217 NA
ATOM      4  C   UNL d   1     -51.289  24.856  33.351  0.00  0.00     0.122 A 
ATOM      5  C   UNL d   1     -50.520  26.074  33.349  0.00  0.00     0.047 A 
ATOM      6  C   UNL d   1     -51.956  26.133  33.331  0.00  0.00     0.194 A 
ATOM      7  C   UNL d   1     -51.174  27.324  33.329  0.00  0.00     0.104 C 
ATOM      8  C   UNL d   1     -49.850  24.805  33.368  0.00  0.00     0.103 C 
ATOM      9  N   UNL d   1     -49.160  24.376  33.380  0.00  0.00    -0.191 NA
ATOM     10  N   UNL d   1     -51.137  28.117  33.322  0.00  0.00    -0.191 NA
ATOM     11  N   UNL d   1     -52.660  26.581  33.319  0.00  0.00    -0.126 N 
ENDROOT
BRANCH   5  12
ATOM     12  C   UNL d   1     -49.804  26.448  33.353  0.00  0.00     0.102 A 
ATOM     13  O   UNL d   1     -49.083  26.082  33.396  0.00  0.00    -0.305 OA
ATOM     14  C   UNL d   1     -48.493  26.682  33.385  0.00  0.00     0.123 A 
ATOM     15  C   UNL d   1     -48.871  27.374  33.337  0.00  0.00     0.029 A 
ATOM     16  C   UNL d   1     -49.664  27.259  33.317  0.00  0.00     0.027 A 
ENDBRANCH   5  12
BRANCH   4  17
ATOM     17  S   UNL d   1     -51.326  24.029  33.358  0.00  0.00    -0.061 SA
BRANCH  17  18
ATOM     18  C   UNL d   1     -52.027  23.653  33.308  0.00  0.00     0.105 C 
BRANCH  18  19
ATOM     19  C   UNL d   1     -52.531  23.663  33.917  0.00  0.00     0.303 C 
ATOM     20  O   UNL d   1     -52.391  23.586  34.447  0.00  0.00    -0.259 OA
BRANCH  19  21
ATOM     21  O   UNL d   1     -53.314  23.792  33.786  0.00  0.00    -0.295 OA
ATOM     22  C   UNL d   1     -53.854  23.242  34.000  0.00  0.00     0.185 C 
ENDBRANCH  19  21
ENDBRANCH  18  19
ENDBRANCH  17  18
ENDBRANCH   4  17
TORSDOF 5
ENDMDL
MODEL 2
REMARK VINA RESULT:      34.0      1.569      3.662
REMARK  5 active torsions:
REMARK  status: ('A' for Active; 'I' for Inactive)
REMARK    1  A    between atoms: S_12  and  C_4 
REMARK    2  A    between atoms: C_7  and  C_5 
REMARK    3  A    between atoms: C_20  and  S_12 
REMARK    4  A    between atoms: C_14  and  C_20 
REMARK    5  A    between atoms: O_21  and  C_14 
ROOT
ATOM      1  C   UNL d   1     -50.294  25.934  33.359  0.00  0.00     0.095 A 
ATOM      2  C   UNL d   1     -51.724  25.756  33.336  0.00  0.00     0.108 A 
ATOM      3  N   UNL d   1     -51.166  27.084  33.361  0.00  0.00    -0.217 NA
ATOM      4  C   UNL d   1     -50.397  26.761  33.368  0.00  0.00     0.122 A 
ATOM      5  C   UNL d   1     -50.960  25.436  33.344  0.00  0.00     0.047 A 
ATOM      6  C   UNL d   1     -51.827  26.582  33.345  0.00  0.00     0.194 A 
ATOM      7  C   UNL d   1     -52.360  25.261  33.321  0.00  0.00     0.104 C 
ATOM      8  C   UNL d   1     -49.535  25.607  33.366  0.00  0.00     0.103 C 
ATOM      9  N   UNL d   1     -48.790  25.284  33.373  0.00  0.00    -0.191 NA
ATOM     10  N   UNL d   1     -52.991  24.779  33.306  0.00  0.00    -0.191 NA
ATOM     11  N   UNL d   1     -52.596  26.905  33.338  0.00  0.00    -0.126 N 
ENDROOT
BRANCH   5  12
ATOM     12  C   UNL d   1     -50.860  24.634  33.335  0.00  0.00     0.102 A 
ATOM     13  O   UNL d   1     -50.147  24.250  33.309  0.00  0.00    -0.305 OA
ATOM     14  C   UNL d   1     -50.305  23.423  33.309  0.00  0.00     0.123 A 
ATOM     15  C   UNL d   1     -51.090  23.339  33.334  0.00  0.00     0.029 A 
ATOM     16  C   UNL d   1     -51.447  24.057  33.351  0.00  0.00     0.027 A 
ENDBRANCH   5  12
BRANCH   4  17
ATOM     17  S   UNL d   1     -49.738  27.262  33.384  0.00  0.00    -0.061 SA
BRANCH  17  18
ATOM     18  C   UNL d   1     -49.482  27.575  34.071  0.00  0.00     0.105 C 
BRANCH  18  19
ATOM     19  C   UNL d   1     -49.306  28.344  34.119  0.00  0.00     0.303 C 
ATOM     20  O   UNL d   1     -49.584  28.751  33.867  0.00  0.00    -0.259 OA
BRANCH  19  21
ATOM     21  O   UNL d   1     -48.678  28.583  34.561  0.00  0.00    -0.295 OA
ATOM     22  C   UNL d   1     -48.756  28.674  35.353  0.00  0.00     0.185 C 
ENDBRANCH  19  21
ENDBRANCH  18  19
ENDBRANCH  17  18
ENDBRANCH   4  17
TORSDOF 5
ENDMDL
