MODEL 1
REMARK VINA RESULT:      -5.7      0.000      0.000
REMARK  2 active torsions:
REMARK  status: ('A' for Active; 'I' for Inactive)
REMARK    1  A    between atoms: C_11  and  N_1 
REMARK    2  A    between atoms: C_16  and  C_11 
ROOT
ATOM      1  C   UNL d   1      57.894   0.564  30.236  0.00  0.00     0.086 C 
ENDROOT
BRANCH   1   2
ATOM      2  N   UNL d   1      58.600   0.240  29.967  0.00  0.00    -0.240 N 
ATOM      3  C   UNL d   1      58.694  -0.193  29.271  0.00  0.00     0.267 A 
ATOM      4  C   UNL d   1      59.492  -0.411  29.217  0.00  0.00     0.061 A 
ATOM      5  O   UNL d   1      58.108  -0.376  28.729  0.00  0.00    -0.267 OA
ATOM      6  C   UNL d   1      59.903  -0.840  28.654  0.00  0.00     0.005 A 
ATOM      7  C   UNL d   1      59.885  -0.113  29.877  0.00  0.00     0.061 A 
ATOM      8  C   UNL d   1      60.711  -0.971  28.751  0.00  0.00     0.000 A 
ATOM      9  C   UNL d   1      61.104  -0.675  29.408  0.00  0.00     0.000 A 
ATOM     10  C   UNL d   1      60.683  -0.242  29.974  0.00  0.00     0.005 A 
ATOM     11  C   UNL d   1      59.331   0.289  30.339  0.00  0.00     0.267 A 
ATOM     12  O   UNL d   1      59.490   0.675  31.056  0.00  0.00    -0.267 OA
ENDBRANCH   1   2
BRANCH   1  13
ATOM     13  C   UNL d   1      57.464   0.193  30.846  0.00  0.00     0.018 A 
ATOM     14  C   UNL d   1      57.111   0.653  31.432  0.00  0.00     0.003 A 
ATOM     15  C   UNL d   1      56.678   0.275  32.045  0.00  0.00     0.018 A 
ATOM     16  C   UNL d   1      56.270   0.574  32.696  0.00  0.00     0.019 A 
ATOM     17  C   UNL d   1      56.613  -0.550  32.053  0.00  0.00     0.064 A 
ATOM     18  C   UNL d   1      55.946  -0.059  33.116  0.00  0.00     0.064 A 
ATOM     19  C   UNL d   1      55.495  -0.008  33.804  0.00  0.00     0.019 C 
ATOM     20  N   UNL d   1      56.161  -0.750  32.715  0.00  0.00    -0.304 N 
ATOM     21  C   UNL d   1      55.952  -1.526  32.945  0.00  0.00     0.099 C 
ATOM     22  C   UNL d   1      56.969  -1.006  31.463  0.00  0.00     0.018 A 
ATOM     23  C   UNL d   1      57.393  -0.639  30.862  0.00  0.00     0.003 A 
ENDBRANCH   1  13
TORSDOF 2
ENDMDL
MODEL 2
REMARK VINA RESULT:      -5.4      0.928      1.497
REMARK  2 active torsions:
REMARK  status: ('A' for Active; 'I' for Inactive)
REMARK    1  A    between atoms: C_11  and  N_1 
REMARK    2  A    between atoms: C_16  and  C_11 
ROOT
ATOM      1  C   UNL d   1      58.027   0.109  29.907  0.00  0.00     0.086 C 
ENDROOT
BRANCH   1   2
ATOM      2  N   UNL d   1      58.667  -0.354  29.680  0.00  0.00    -0.240 N 
ATOM      3  C   UNL d   1      59.440  -0.086  29.578  0.00  0.00     0.267 A 
ATOM      4  C   UNL d   1      59.904  -0.734  29.350  0.00  0.00     0.061 A 
ATOM      5  O   UNL d   1      59.707   0.682  29.682  0.00  0.00    -0.267 OA
ATOM      6  C   UNL d   1      60.700  -0.801  29.174  0.00  0.00     0.005 A 
ATOM      7  C   UNL d   1      59.415  -1.397  29.312  0.00  0.00     0.061 A 
ATOM      8  C   UNL d   1      61.010  -1.534  28.959  0.00  0.00     0.000 A 
ATOM      9  C   UNL d   1      60.525  -2.195  28.921  0.00  0.00     0.000 A 
ATOM     10  C   UNL d   1      59.721  -2.122  29.100  0.00  0.00     0.005 A 
ATOM     11  C   UNL d   1      58.652  -1.159  29.517  0.00  0.00     0.267 A 
ATOM     12  O   UNL d   1      57.985  -1.652  29.551  0.00  0.00    -0.267 OA
ENDBRANCH   1   2
BRANCH   1  13
ATOM     13  C   UNL d   1      57.808   0.166  30.708  0.00  0.00     0.018 A 
ATOM     14  C   UNL d   1      57.137  -0.231  30.976  0.00  0.00     0.003 A 
ATOM     15  C   UNL d   1      56.920  -0.170  31.785  0.00  0.00     0.018 A 
ATOM     16  C   UNL d   1      56.294  -0.493  32.214  0.00  0.00     0.019 A 
ATOM     17  C   UNL d   1      57.381   0.284  32.302  0.00  0.00     0.064 A 
ATOM     18  C   UNL d   1      56.357  -0.245  32.998  0.00  0.00     0.064 A 
ATOM     19  C   UNL d   1      55.845  -0.441  33.614  0.00  0.00     0.019 C 
ATOM     20  N   UNL d   1      57.029   0.234  33.047  0.00  0.00    -0.304 N 
ATOM     21  C   UNL d   1      57.306   0.607  33.742  0.00  0.00     0.099 C 
ATOM     22  C   UNL d   1      58.053   0.680  32.028  0.00  0.00     0.018 A 
ATOM     23  C   UNL d   1      58.268   0.623  31.236  0.00  0.00     0.003 A 
ENDBRANCH   1  13
TORSDOF 2
ENDMDL
MODEL 3
REMARK VINA RESULT:      -4.6      9.029     10.064
REMARK  2 active torsions:
REMARK  status: ('A' for Active; 'I' for Inactive)
REMARK    1  A    between atoms: C_11  and  N_1 
REMARK    2  A    between atoms: C_16  and  C_11 
ROOT
ATOM      1  C   UNL d   1      59.372  -9.675  34.632  0.00  0.00     0.086 C 
ENDROOT
BRANCH   1   2
ATOM      2  N   UNL d   1      59.661  -9.000  35.002  0.00  0.00    -0.240 N 
ATOM      3  C   UNL d   1      60.445  -8.876  35.226  0.00  0.00     0.267 A 
ATOM      4  C   UNL d   1      60.490  -8.127  35.579  0.00  0.00     0.061 A 
ATOM      5  O   UNL d   1      61.070  -9.395  35.122  0.00  0.00    -0.267 OA
ATOM      6  C   UNL d   1      61.117  -7.713  35.902  0.00  0.00     0.005 A 
ATOM      7  C   UNL d   1      59.735  -7.795  35.571  0.00  0.00     0.061 A 
ATOM      8  C   UNL d   1      60.990  -6.962  36.219  0.00  0.00     0.000 A 
ATOM      9  C   UNL d   1      60.240  -6.630  36.212  0.00  0.00     0.000 A 
ATOM     10  C   UNL d   1      59.609  -7.053  35.884  0.00  0.00     0.005 A 
ATOM     11  C   UNL d   1      59.226  -8.337  35.214  0.00  0.00     0.267 A 
ATOM     12  O   UNL d   1      58.412  -8.226  35.091  0.00  0.00    -0.267 OA
ENDBRANCH   1   2
BRANCH   1  13
ATOM     13  C   UNL d   1      59.302  -9.705  33.802  0.00  0.00     0.018 A 
ATOM     14  C   UNL d   1      58.554  -9.717  33.457  0.00  0.00     0.003 A 
ATOM     15  C   UNL d   1      58.488  -9.747  32.620  0.00  0.00     0.018 A 
ATOM     16  C   UNL d   1      57.834  -9.765  32.118  0.00  0.00     0.019 A 
ATOM     17  C   UNL d   1      59.173  -9.765  32.155  0.00  0.00     0.064 A 
ATOM     18  C   UNL d   1      58.102  -9.794  31.338  0.00  0.00     0.064 A 
ATOM     19  C   UNL d   1      57.631  -9.818  30.662  0.00  0.00     0.019 C 
ATOM     20  N   UNL d   1      58.929  -9.793  31.366  0.00  0.00    -0.304 N 
ATOM     21  C   UNL d   1      59.434  -9.817  30.701  0.00  0.00     0.099 C 
ATOM     22  C   UNL d   1      59.921  -9.752  32.506  0.00  0.00     0.018 A 
ATOM     23  C   UNL d   1      59.988  -9.723  33.325  0.00  0.00     0.003 A 
ENDBRANCH   1  13
TORSDOF 2
ENDMDL
MODEL 4
REMARK VINA RESULT:      -4.3      1.372      4.251
REMARK  2 active torsions:
REMARK  status: ('A' for Active; 'I' for Inactive)
REMARK    1  A    between atoms: C_11  and  N_1 
REMARK    2  A    between atoms: C_16  and  C_11 
ROOT
ATOM      1  C   UNL d   1      58.449   0.682  30.135  0.00  0.00     0.086 C 
ENDROOT
BRANCH   1   2
ATOM      2  N   UNL d   1      58.040   0.674  30.848  0.00  0.00    -0.240 N 
ATOM      3  C   UNL d   1      58.385   0.675  31.597  0.00  0.00     0.267 A 
ATOM      4  C   UNL d   1      57.772   0.666  32.156  0.00  0.00     0.061 A 
ATOM      5  O   UNL d   1      59.187   0.682  31.765  0.00  0.00    -0.267 OA
ATOM      6  C   UNL d   1      57.779   0.662  32.974  0.00  0.00     0.005 A 
ATOM      7  C   UNL d   1      57.056   0.661  31.749  0.00  0.00     0.061 A 
ATOM      8  C   UNL d   1      57.067   0.653  33.388  0.00  0.00     0.000 A 
ATOM      9  C   UNL d   1      56.353   0.648  32.985  0.00  0.00     0.000 A 
ATOM     10  C   UNL d   1      56.351   0.652  32.158  0.00  0.00     0.005 A 
ATOM     11  C   UNL d   1      57.224   0.666  30.941  0.00  0.00     0.267 A 
ATOM     12  O   UNL d   1      56.663   0.663  30.331  0.00  0.00    -0.267 OA
ENDBRANCH   1   2
BRANCH   1  13
ATOM     13  C   UNL d   1      58.785  -0.018  29.832  0.00  0.00     0.018 A 
ATOM     14  C   UNL d   1      58.295  -0.647  29.623  0.00  0.00     0.003 A 
ATOM     15  C   UNL d   1      58.638  -1.351  29.318  0.00  0.00     0.018 A 
ATOM     16  C   UNL d   1      58.305  -2.061  29.064  0.00  0.00     0.019 A 
ATOM     17  C   UNL d   1      59.460  -1.404  29.233  0.00  0.00     0.064 A 
ATOM     18  C   UNL d   1      58.913  -2.563  28.819  0.00  0.00     0.064 A 
ATOM     19  C   UNL d   1      58.824  -3.328  28.524  0.00  0.00     0.019 C 
ATOM     20  N   UNL d   1      59.623  -2.152  28.925  0.00  0.00    -0.304 N 
ATOM     21  C   UNL d   1      60.383  -2.451  28.747  0.00  0.00     0.099 C 
ATOM     22  C   UNL d   1      59.947  -0.770  29.445  0.00  0.00     0.018 A 
ATOM     23  C   UNL d   1      59.614  -0.080  29.743  0.00  0.00     0.003 A 
ENDBRANCH   1  13
TORSDOF 2
ENDMDL
