MODEL 1
REMARK VINA RESULT:      -5.2      0.000      0.000
REMARK  4 active torsions:
REMARK  status: ('A' for Active; 'I' for Inactive)
REMARK    1  A    between atoms: C_2  and  C_1 
REMARK    2  A    between atoms: C_16  and  C_4 
REMARK    3  A    between atoms: C_28  and  C_15 
REMARK    4  A    between atoms: N_17  and  C_16 
ROOT
ATOM      1  C   UNL d   1     -46.334  12.038  23.324  0.00  0.00     0.098 A 
ATOM      2  C   UNL d   1     -48.270  13.583  23.164  0.00  0.00     0.079 A 
ATOM      3  C   UNL d   1     -46.864  13.352  23.081  0.00  0.00     0.062 A 
ATOM      4  C   UNL d   1     -46.216  12.845  23.133  0.00  0.00     0.202 A 
ATOM      5  C   UNL d   1     -47.638  13.075  23.217  0.00  0.00     0.108 A 
ATOM      6  C   UNL d   1     -47.109  11.760  23.460  0.00  0.00     0.129 A 
ATOM      7  O   UNL d   1     -47.763  12.276  23.407  0.00  0.00    -0.305 OA
ATOM      8  C   UNL d   1     -48.151  14.375  22.976  0.00  0.00     0.199 A 
ATOM      9  C   UNL d   1     -46.741  14.146  22.893  0.00  0.00     0.008 A 
ATOM     10  C   UNL d   1     -47.386  14.649  22.842  0.00  0.00     0.039 A 
ATOM     11  O   UNL d   1     -45.457  13.122  22.999  0.00  0.00    -0.286 OA
ATOM     12  O   UNL d   1     -48.786  14.891  22.922  0.00  0.00    -0.286 OA
ENDROOT
BRANCH   1  13
ATOM     13  C   UNL d   1     -45.690  11.525  23.377  0.00  0.00     0.153 A 
ATOM     14  N   UNL d   1     -44.894  11.730  23.267  0.00  0.00    -0.227 NA
ATOM     15  C   UNL d   1     -44.441  11.044  23.372  0.00  0.00     0.099 A 
ATOM     16  C   UNL d   1     -43.633  10.920  23.330  0.00  0.00     0.021 A 
ATOM     17  C   UNL d   1     -44.946  10.428  23.543  0.00  0.00     0.083 A 
ATOM     18  C   UNL d   1     -43.327  10.165  23.462  0.00  0.00     0.002 A 
ATOM     19  C   UNL d   1     -43.833   9.544  23.634  0.00  0.00     0.002 A 
ATOM     20  C   UNL d   1     -44.656   9.676  23.676  0.00  0.00     0.019 A 
ATOM     21  N   UNL d   1     -45.730  10.722  23.548  0.00  0.00    -0.288 N 
ATOM     22  C   UNL d   1     -46.421  10.294  23.695  0.00  0.00     0.101 C 
ENDBRANCH   1  13
BRANCH  10  23
ATOM     23  C   UNL d   1     -47.266  15.452  22.652  0.00  0.00     0.003 C 
ATOM     24  C   UNL d   1     -47.016  15.670  21.894  0.00  0.00     0.000 C 
ENDBRANCH  10  23
BRANCH   2  25
ATOM     25  C   UNL d   1     -49.035  13.309  23.298  0.00  0.00     0.086 C 
BRANCH  25  26
ATOM     26  N   UNL d   1     -49.538  13.174  22.669  0.00  0.00    -0.300 N 
ATOM     27  C   UNL d   1     -50.196  13.670  22.546  0.00  0.00     0.100 A 
ATOM     28  C   UNL d   1     -50.705  13.522  21.898  0.00  0.00     0.100 A 
ATOM     29  N   UNL d   1     -50.558  12.894  21.386  0.00  0.00    -0.299 N 
ATOM     30  C   UNL d   1     -49.898  12.403  21.515  0.00  0.00     0.100 A 
ATOM     31  C   UNL d   1     -51.064  12.751  20.745  0.00  0.00     0.100 C 
ATOM     32  C   UNL d   1     -49.392  12.544  22.153  0.00  0.00     0.100 A 
ENDBRANCH  25  26
ENDBRANCH   2  25
TORSDOF 4
ENDMDL
MODEL 2
REMARK VINA RESULT:      -4.0      7.577      9.799
REMARK  4 active torsions:
REMARK  status: ('A' for Active; 'I' for Inactive)
REMARK    1  A    between atoms: C_2  and  C_1 
REMARK    2  A    between atoms: C_16  and  C_4 
REMARK    3  A    between atoms: C_28  and  C_15 
REMARK    4  A    between atoms: N_17  and  C_16 
ROOT
ATOM      1  C   UNL d   1     -39.120  14.676  18.336  0.00  0.00     0.098 A 
ATOM      2  C   UNL d   1     -39.947  15.331  20.583  0.00  0.00     0.079 A 
ATOM      3  C   UNL d   1     -40.134  14.628  19.354  0.00  0.00     0.062 A 
ATOM      4  C   UNL d   1     -39.865  14.407  18.607  0.00  0.00     0.202 A 
ATOM      5  C   UNL d   1     -39.674  15.118  19.847  0.00  0.00     0.108 A 
ATOM      6  C   UNL d   1     -38.660  15.166  18.829  0.00  0.00     0.129 A 
ATOM      7  O   UNL d   1     -38.933  15.389  19.586  0.00  0.00    -0.305 OA
ATOM      8  C   UNL d   1     -40.680  15.065  20.845  0.00  0.00     0.199 A 
ATOM      9  C   UNL d   1     -40.869  14.360  19.614  0.00  0.00     0.008 A 
ATOM     10  C   UNL d   1     -41.134  14.581  20.358  0.00  0.00     0.039 A 
ATOM     11  O   UNL d   1     -40.321  13.926  18.125  0.00  0.00    -0.286 OA
ATOM     12  O   UNL d   1     -40.960  15.277  21.587  0.00  0.00    -0.286 OA
ENDROOT
BRANCH   1  13
ATOM     13  C   UNL d   1     -38.845  14.458  17.589  0.00  0.00     0.153 A 
ATOM     14  N   UNL d   1     -38.668  13.686  17.342  0.00  0.00    -0.227 NA
ATOM     15  C   UNL d   1     -38.412  13.727  16.554  0.00  0.00     0.099 A 
ATOM     16  C   UNL d   1     -38.168  13.143  16.036  0.00  0.00     0.021 A 
ATOM     17  C   UNL d   1     -38.432  14.508  16.320  0.00  0.00     0.083 A 
ATOM     18  C   UNL d   1     -37.939  13.345  15.269  0.00  0.00     0.002 A 
ATOM     19  C   UNL d   1     -37.958  14.129  15.031  0.00  0.00     0.002 A 
ATOM     20  C   UNL d   1     -38.208  14.721  15.563  0.00  0.00     0.019 A 
ATOM     21  N   UNL d   1     -38.702  14.971  16.963  0.00  0.00    -0.288 N 
ATOM     22  C   UNL d   1     -38.808  15.790  16.976  0.00  0.00     0.101 C 
ENDBRANCH   1  13
BRANCH  10  23
ATOM     23  C   UNL d   1     -41.877  14.312  20.625  0.00  0.00     0.003 C 
ATOM     24  C   UNL d   1     -42.003  13.508  20.773  0.00  0.00     0.000 C 
ENDBRANCH  10  23
BRANCH   2  25
ATOM     25  C   UNL d   1     -39.493  15.814  21.070  0.00  0.00     0.086 C 
BRANCH  25  26
ATOM     26  N   UNL d   1     -39.107  15.498  21.717  0.00  0.00    -0.300 N 
ATOM     27  C   UNL d   1     -38.432  15.021  21.609  0.00  0.00     0.100 A 
ATOM     28  C   UNL d   1     -38.045  14.702  22.279  0.00  0.00     0.100 A 
ATOM     29  N   UNL d   1     -38.326  14.856  23.037  0.00  0.00    -0.299 N 
ATOM     30  C   UNL d   1     -39.001  15.334  23.136  0.00  0.00     0.100 A 
ATOM     31  C   UNL d   1     -37.940  14.538  23.698  0.00  0.00     0.100 C 
ATOM     32  C   UNL d   1     -39.388  15.652  22.480  0.00  0.00     0.100 A 
ENDBRANCH  25  26
ENDBRANCH   2  25
TORSDOF 4
ENDMDL
MODEL 3
REMARK VINA RESULT:      -2.5      1.390      2.421
REMARK  4 active torsions:
REMARK  status: ('A' for Active; 'I' for Inactive)
REMARK    1  A    between atoms: C_2  and  C_1 
REMARK    2  A    between atoms: C_16  and  C_4 
REMARK    3  A    between atoms: C_28  and  C_15 
REMARK    4  A    between atoms: N_17  and  C_16 
ROOT
ATOM      1  C   UNL d   1     -46.854  11.880  23.480  0.00  0.00     0.098 A 
ATOM      2  C   UNL d   1     -49.046  13.035  23.627  0.00  0.00     0.079 A 
ATOM      3  C   UNL d   1     -48.289  11.827  23.543  0.00  0.00     0.062 A 
ATOM      4  C   UNL d   1     -47.565  11.437  23.494  0.00  0.00     0.202 A 
ATOM      5  C   UNL d   1     -48.327  12.659  23.579  0.00  0.00     0.108 A 
ATOM      6  C   UNL d   1     -46.891  12.712  23.516  0.00  0.00     0.129 A 
ATOM      7  O   UNL d   1     -47.626  13.106  23.566  0.00  0.00    -0.305 OA
ATOM      8  C   UNL d   1     -49.742  12.597  23.641  0.00  0.00     0.199 A 
ATOM      9  C   UNL d   1     -48.985  11.385  23.556  0.00  0.00     0.008 A 
ATOM     10  C   UNL d   1     -49.705  11.775  23.605  0.00  0.00     0.039 A 
ATOM     11  O   UNL d   1     -47.533  10.620  23.459  0.00  0.00    -0.286 OA
ATOM     12  O   UNL d   1     -50.470  12.972  23.689  0.00  0.00    -0.286 OA
ENDROOT
BRANCH   1  13
ATOM     13  C   UNL d   1     -46.125  11.495  23.431  0.00  0.00     0.153 A 
ATOM     14  N   UNL d   1     -45.962  10.727  23.698  0.00  0.00    -0.227 NA
ATOM     15  C   UNL d   1     -45.164  10.570  23.537  0.00  0.00     0.099 A 
ATOM     16  C   UNL d   1     -44.706   9.907  23.678  0.00  0.00     0.021 A 
ATOM     17  C   UNL d   1     -44.841  11.227  23.178  0.00  0.00     0.083 A 
ATOM     18  C   UNL d   1     -43.912   9.902  23.455  0.00  0.00     0.002 A 
ATOM     19  C   UNL d   1     -43.585  10.561  23.094  0.00  0.00     0.002 A 
ATOM     20  C   UNL d   1     -44.056  11.235  22.953  0.00  0.00     0.019 A 
ATOM     21  N   UNL d   1     -45.439  11.811  23.109  0.00  0.00    -0.288 N 
ATOM     22  C   UNL d   1     -45.361  12.564  22.780  0.00  0.00     0.101 C 
ENDBRANCH   1  13
BRANCH  10  23
ATOM     23  C   UNL d   1     -50.411  11.332  23.619  0.00  0.00     0.003 C 
ATOM     24  C   UNL d   1     -50.396  10.515  23.490  0.00  0.00     0.000 C 
ENDBRANCH  10  23
BRANCH   2  25
ATOM     25  C   UNL d   1     -49.083  13.856  23.663  0.00  0.00     0.086 C 
BRANCH  25  26
ATOM     26  N   UNL d   1     -49.473  14.275  23.079  0.00  0.00    -0.300 N 
ATOM     27  C   UNL d   1     -49.228  14.212  22.286  0.00  0.00     0.100 A 
ATOM     28  C   UNL d   1     -49.635  14.646  21.696  0.00  0.00     0.100 A 
ATOM     29  N   UNL d   1     -50.270  15.129  21.896  0.00  0.00    -0.299 N 
ATOM     30  C   UNL d   1     -50.509  15.186  22.692  0.00  0.00     0.100 A 
ATOM     31  C   UNL d   1     -50.670  15.556  21.309  0.00  0.00     0.100 C 
ATOM     32  C   UNL d   1     -50.112  14.761  23.279  0.00  0.00     0.100 A 
ENDBRANCH  25  26
ENDBRANCH   2  25
TORSDOF 4
ENDMDL
