MODEL 1
REMARK VINA RESULT:      -3.9      0.000      0.000
REMARK  8 active torsions:
REMARK  status: ('A' for Active; 'I' for Inactive)
REMARK    1  A    between atoms: C_3  and  C_1 
REMARK    2  A    between atoms: N_5  and  C_2 
REMARK    3  A    between atoms: N_4  and  C_3 
REMARK    4  A    between atoms: C_10  and  C_3 
REMARK    5  A    between atoms: C_13  and  N_4 
REMARK       I    between atoms: C_6  and  N_5 
REMARK    6  A    between atoms: C_8  and  C_13 
REMARK    7  A    between atoms: O_16  and  C_8 
REMARK    8  A    between atoms: C_21  and  O_16 
ROOT
ATOM      1  C   UNL d   1     -48.106  13.354  22.699  0.00  0.00     0.083 C 
ENDROOT
BRANCH   1   2
ATOM      2  C   UNL d   1     -48.804  13.791  22.651  0.00  0.00     0.036 A 
ATOM      3  C   UNL d   1     -49.364  13.628  22.086  0.00  0.00     0.086 A 
ATOM      4  C   UNL d   1     -50.062  14.065  22.038  0.00  0.00     0.020 A 
ATOM      5  C   UNL d   1     -50.199  14.666  22.556  0.00  0.00     0.008 A 
ATOM      6  C   UNL d   1     -49.625  14.848  23.151  0.00  0.00     0.035 A 
ATOM      7  C   UNL d   1     -48.932  14.400  23.184  0.00  0.00     0.010 A 
ATOM      8 BR   UNL d   1     -49.755  15.472  23.697  0.00  0.00    -0.049 Br
BRANCH   3   9
ATOM      9  N   UNL d   1     -49.225  12.998  21.540  0.00  0.00    -0.208 NA
ATOM     10  C   UNL d   1     -49.864  12.644  21.149  0.00  0.00     0.279 C 
ATOM     11  O   UNL d   1     -49.731  12.044  20.629  0.00  0.00    -0.265 OA
ATOM     12  C   UNL d   1     -50.631  12.892  21.282  0.00  0.00     0.068 C 
ENDBRANCH   3   9
ENDBRANCH   1   2
BRANCH   1  13
ATOM     13  N   UNL d   1     -48.114  12.561  22.885  0.00  0.00    -0.238 NA
BRANCH  13  14
ATOM     14  C   UNL d   1     -47.742  12.321  23.587  0.00  0.00     0.167 C 
BRANCH  14  15
ATOM     15  C   UNL d   1     -47.501  11.517  23.651  0.00  0.00     0.320 C 
ATOM     16  O   UNL d   1     -48.097  10.917  23.671  0.00  0.00    -0.257 OA
BRANCH  15  17
ATOM     17  O   UNL d   1     -46.704  11.309  23.692  0.00  0.00    -0.270 OA
BRANCH  17  18
ATOM     18  C   UNL d   1     -46.489  10.540  23.677  0.00  0.00     0.126 C 
ATOM     19  C   UNL d   1     -45.697  10.302  23.696  0.00  0.00     0.029 C 
ENDBRANCH  17  18
ENDBRANCH  15  17
ENDBRANCH  14  15
ENDBRANCH  13  14
ENDBRANCH   1  13
BRANCH   1  20
ATOM     20  C   UNL d   1     -47.386  13.723  22.557  0.00  0.00     0.018 A 
ATOM     21  C   UNL d   1     -47.100  14.304  23.068  0.00  0.00     0.002 A 
ATOM     22  C   UNL d   1     -46.388  14.682  22.944  0.00  0.00     0.000 A 
ATOM     23  C   UNL d   1     -45.931  14.457  22.255  0.00  0.00     0.000 A 
ATOM     24  C   UNL d   1     -46.211  13.877  21.740  0.00  0.00     0.000 A 
ATOM     25  C   UNL d   1     -46.935  13.510  21.889  0.00  0.00     0.002 A 
ENDBRANCH   1  20
TORSDOF 8
ENDMDL
MODEL 2
REMARK VINA RESULT:      -3.8      2.074      4.138
REMARK  8 active torsions:
REMARK  status: ('A' for Active; 'I' for Inactive)
REMARK    1  A    between atoms: C_3  and  C_1 
REMARK    2  A    between atoms: N_5  and  C_2 
REMARK    3  A    between atoms: N_4  and  C_3 
REMARK    4  A    between atoms: C_10  and  C_3 
REMARK    5  A    between atoms: C_13  and  N_4 
REMARK       I    between atoms: C_6  and  N_5 
REMARK    6  A    between atoms: C_8  and  C_13 
REMARK    7  A    between atoms: O_16  and  C_8 
REMARK    8  A    between atoms: C_21  and  O_16 
ROOT
ATOM      1  C   UNL d   1     -48.217  13.281  22.538  0.00  0.00     0.083 C 
ENDROOT
BRANCH   1   2
ATOM      2  C   UNL d   1     -47.614  12.786  22.806  0.00  0.00     0.036 A 
ATOM      3  C   UNL d   1     -46.835  13.016  22.770  0.00  0.00     0.086 A 
ATOM      4  C   UNL d   1     -46.232  12.520  23.037  0.00  0.00     0.020 A 
ATOM      5  C   UNL d   1     -46.408  11.795  23.341  0.00  0.00     0.008 A 
ATOM      6  C   UNL d   1     -47.215  11.542  23.384  0.00  0.00     0.035 A 
ATOM      7  C   UNL d   1     -47.805  12.051  23.112  0.00  0.00     0.010 A 
ATOM      8 BR   UNL d   1     -47.412  10.789  23.698  0.00  0.00    -0.049 Br
BRANCH   3   9
ATOM      9  N   UNL d   1     -46.646  13.775  22.453  0.00  0.00    -0.208 NA
ATOM     10  C   UNL d   1     -45.870  13.938  22.211  0.00  0.00     0.279 C 
ATOM     11  O   UNL d   1     -45.689  14.662  21.909  0.00  0.00    -0.265 OA
ATOM     12  C   UNL d   1     -45.280  13.375  22.274  0.00  0.00     0.068 C 
ENDBRANCH   3   9
ENDBRANCH   1   2
BRANCH   1  13
ATOM     13  N   UNL d   1     -48.262  14.060  22.773  0.00  0.00    -0.238 NA
BRANCH  13  14
ATOM     14  C   UNL d   1     -49.013  14.374  22.939  0.00  0.00     0.167 C 
BRANCH  14  15
ATOM     15  C   UNL d   1     -49.069  15.201  23.087  0.00  0.00     0.320 C 
ATOM     16  O   UNL d   1     -48.586  15.727  22.632  0.00  0.00    -0.257 OA
BRANCH  15  17
ATOM     17  O   UNL d   1     -49.581  15.501  23.659  0.00  0.00    -0.270 OA
BRANCH  17  18
ATOM     18  C   UNL d   1     -50.232  15.910  23.441  0.00  0.00     0.126 C 
ATOM     19  C   UNL d   1     -50.990  15.704  23.697  0.00  0.00     0.029 C 
ENDBRANCH  17  18
ENDBRANCH  15  17
ENDBRANCH  14  15
ENDBRANCH  13  14
ENDBRANCH   1  13
BRANCH   1  20
ATOM     20  C   UNL d   1     -48.786  12.986  22.025  0.00  0.00     0.018 A 
ATOM     21  C   UNL d   1     -49.445  12.579  22.311  0.00  0.00     0.002 A 
ATOM     22  C   UNL d   1     -50.020  12.279  21.817  0.00  0.00     0.000 A 
ATOM     23  C   UNL d   1     -49.924  12.396  20.974  0.00  0.00     0.000 A 
ATOM     24  C   UNL d   1     -49.268  12.802  20.681  0.00  0.00     0.000 A 
ATOM     25  C   UNL d   1     -48.700  13.096  21.203  0.00  0.00     0.002 A 
ENDBRANCH   1  20
TORSDOF 8
ENDMDL
MODEL 3
REMARK VINA RESULT:      -1.7      1.650      2.835
REMARK  8 active torsions:
REMARK  status: ('A' for Active; 'I' for Inactive)
REMARK    1  A    between atoms: C_3  and  C_1 
REMARK    2  A    between atoms: N_5  and  C_2 
REMARK    3  A    between atoms: N_4  and  C_3 
REMARK    4  A    between atoms: C_10  and  C_3 
REMARK    5  A    between atoms: C_13  and  N_4 
REMARK       I    between atoms: C_6  and  N_5 
REMARK    6  A    between atoms: C_8  and  C_13 
REMARK    7  A    between atoms: O_16  and  C_8 
REMARK    8  A    between atoms: C_21  and  O_16 
ROOT
ATOM      1  C   UNL d   1     -49.002  13.811  22.689  0.00  0.00     0.083 C 
ENDROOT
BRANCH   1   2
ATOM      2  C   UNL d   1     -49.394  13.332  22.143  0.00  0.00     0.036 A 
ATOM      3  C   UNL d   1     -49.489  12.536  22.275  0.00  0.00     0.086 A 
ATOM      4  C   UNL d   1     -49.880  12.057  21.729  0.00  0.00     0.020 A 
ATOM      5  C   UNL d   1     -50.176  12.375  21.051  0.00  0.00     0.008 A 
ATOM      6  C   UNL d   1     -50.085  13.203  20.900  0.00  0.00     0.035 A 
ATOM      7  C   UNL d   1     -49.691  13.667  21.457  0.00  0.00     0.010 A 
ATOM      8 BR   UNL d   1     -50.389  13.548  20.197  0.00  0.00    -0.049 Br
BRANCH   3   9
ATOM      9  N   UNL d   1     -49.180  12.197  22.984  0.00  0.00    -0.208 NA
ATOM     10  C   UNL d   1     -49.030  11.383  23.020  0.00  0.00     0.279 C 
ATOM     11  O   UNL d   1     -48.735  11.061  23.697  0.00  0.00    -0.265 OA
ATOM     12  C   UNL d   1     -49.176  10.897  22.380  0.00  0.00     0.068 C 
ENDBRANCH   3   9
ENDBRANCH   1   2
BRANCH   1  13
ATOM     13  N   UNL d   1     -48.240  13.648  22.927  0.00  0.00    -0.238 NA
BRANCH  13  14
ATOM     14  C   UNL d   1     -47.617  13.942  22.463  0.00  0.00     0.167 C 
BRANCH  14  15
ATOM     15  C   UNL d   1     -46.836  13.880  22.770  0.00  0.00     0.320 C 
ATOM     16  O   UNL d   1     -46.731  13.866  23.610  0.00  0.00    -0.257 OA
BRANCH  15  17
ATOM     17  O   UNL d   1     -46.180  13.832  22.271  0.00  0.00    -0.270 OA
BRANCH  17  18
ATOM     18  C   UNL d   1     -45.646  13.246  22.366  0.00  0.00     0.126 C 
ATOM     19  C   UNL d   1     -45.102  13.043  21.778  0.00  0.00     0.029 C 
ENDBRANCH  17  18
ENDBRANCH  15  17
ENDBRANCH  14  15
ENDBRANCH  13  14
ENDBRANCH   1  13
BRANCH   1  20
ATOM     20  C   UNL d   1     -49.386  14.466  23.002  0.00  0.00     0.018 A 
ATOM     21  C   UNL d   1     -50.115  14.389  23.381  0.00  0.00     0.002 A 
ATOM     22  C   UNL d   1     -50.512  15.027  23.698  0.00  0.00     0.000 A 
ATOM     23  C   UNL d   1     -50.148  15.799  23.628  0.00  0.00     0.000 A 
ATOM     24  C   UNL d   1     -49.419  15.883  23.250  0.00  0.00     0.000 A 
ATOM     25  C   UNL d   1     -49.038  15.221  22.938  0.00  0.00     0.002 A 
ENDBRANCH   1  20
TORSDOF 8
ENDMDL
MODEL 4
REMARK VINA RESULT:      -1.6      8.447     10.308
REMARK  8 active torsions:
REMARK  status: ('A' for Active; 'I' for Inactive)
REMARK    1  A    between atoms: C_3  and  C_1 
REMARK    2  A    between atoms: N_5  and  C_2 
REMARK    3  A    between atoms: N_4  and  C_3 
REMARK    4  A    between atoms: C_10  and  C_3 
REMARK    5  A    between atoms: C_13  and  N_4 
REMARK       I    between atoms: C_6  and  N_5 
REMARK    6  A    between atoms: C_8  and  C_13 
REMARK    7  A    between atoms: O_16  and  C_8 
REMARK    8  A    between atoms: C_21  and  O_16 
ROOT
ATOM      1  C   UNL d   1     -39.347  14.422  18.465  0.00  0.00     0.083 C 
ENDROOT
BRANCH   1   2
ATOM      2  C   UNL d   1     -39.099  14.461  17.679  0.00  0.00     0.036 A 
ATOM      3  C   UNL d   1     -38.748  13.823  17.317  0.00  0.00     0.086 A 
ATOM      4  C   UNL d   1     -38.500  13.861  16.531  0.00  0.00     0.020 A 
ATOM      5  C   UNL d   1     -38.604  14.537  16.107  0.00  0.00     0.008 A 
ATOM      6  C   UNL d   1     -38.968  15.210  16.470  0.00  0.00     0.035 A 
ATOM      7  C   UNL d   1     -39.210  15.154  17.257  0.00  0.00     0.010 A 
ATOM      8 BR   UNL d   1     -39.082  15.921  16.039  0.00  0.00    -0.049 Br
BRANCH   3   9
ATOM      9  N   UNL d   1     -38.637  13.111  17.758  0.00  0.00    -0.208 NA
ATOM     10  C   UNL d   1     -38.339  12.436  17.381  0.00  0.00     0.279 C 
ATOM     11  O   UNL d   1     -38.233  11.757  17.802  0.00  0.00    -0.265 OA
ATOM     12  C   UNL d   1     -38.148  12.444  16.587  0.00  0.00     0.068 C 
ENDBRANCH   3   9
ENDBRANCH   1   2
BRANCH   1  13
ATOM     13  N   UNL d   1     -40.048  14.061  18.671  0.00  0.00    -0.238 NA
BRANCH  13  14
ATOM     14  C   UNL d   1     -40.687  14.546  18.884  0.00  0.00     0.167 C 
BRANCH  14  15
ATOM     15  C   UNL d   1     -41.262  14.231  19.411  0.00  0.00     0.320 C 
ATOM     16  O   UNL d   1     -41.247  13.400  19.575  0.00  0.00    -0.257 OA
BRANCH  15  17
ATOM     17  O   UNL d   1     -41.831  14.712  19.766  0.00  0.00    -0.270 OA
BRANCH  17  18
ATOM     18  C   UNL d   1     -41.850  14.791  20.560  0.00  0.00     0.126 C 
ATOM     19  C   UNL d   1     -41.890  15.529  20.930  0.00  0.00     0.029 C 
ENDBRANCH  17  18
ENDBRANCH  15  17
ENDBRANCH  14  15
ENDBRANCH  13  14
ENDBRANCH   1  13
BRANCH   1  20
ATOM     20  C   UNL d   1     -38.880  14.753  19.053  0.00  0.00     0.018 A 
ATOM     21  C   UNL d   1     -38.472  14.276  19.589  0.00  0.00     0.002 A 
ATOM     22  C   UNL d   1     -38.003  14.586  20.180  0.00  0.00     0.000 A 
ATOM     23  C   UNL d   1     -37.941  15.439  20.235  0.00  0.00     0.000 A 
ATOM     24  C   UNL d   1     -38.347  15.922  19.703  0.00  0.00     0.000 A 
ATOM     25  C   UNL d   1     -38.814  15.582  19.114  0.00  0.00     0.002 A 
ENDBRANCH   1  20
TORSDOF 8
ENDMDL
MODEL 5
REMARK VINA RESULT:      -1.4      1.266      3.599
REMARK  8 active torsions:
REMARK  status: ('A' for Active; 'I' for Inactive)
REMARK    1  A    between atoms: C_3  and  C_1 
REMARK    2  A    between atoms: N_5  and  C_2 
REMARK    3  A    between atoms: N_4  and  C_3 
REMARK    4  A    between atoms: C_10  and  C_3 
REMARK    5  A    between atoms: C_13  and  N_4 
REMARK       I    between atoms: C_6  and  N_5 
REMARK    6  A    between atoms: C_8  and  C_13 
REMARK    7  A    between atoms: O_16  and  C_8 
REMARK    8  A    between atoms: C_21  and  O_16 
ROOT
ATOM      1  C   UNL d   1     -48.225  13.399  22.594  0.00  0.00     0.083 C 
ENDROOT
BRANCH   1   2
ATOM      2  C   UNL d   1     -47.438  13.215  22.759  0.00  0.00     0.036 A 
ATOM      3  C   UNL d   1     -47.235  12.505  23.099  0.00  0.00     0.086 A 
ATOM      4  C   UNL d   1     -46.448  12.320  23.264  0.00  0.00     0.020 A 
ATOM      5  C   UNL d   1     -45.864  12.846  23.089  0.00  0.00     0.008 A 
ATOM      6  C   UNL d   1     -46.060  13.590  22.735  0.00  0.00     0.035 A 
ATOM      7  C   UNL d   1     -46.852  13.757  22.577  0.00  0.00     0.010 A 
ATOM      8 BR   UNL d   1     -45.461  14.147  22.547  0.00  0.00    -0.049 Br
BRANCH   3   9
ATOM      9  N   UNL d   1     -47.845  11.950  23.284  0.00  0.00    -0.208 NA
ATOM     10  C   UNL d   1     -47.643  11.182  23.520  0.00  0.00     0.279 C 
ATOM     11  O   UNL d   1     -48.224  10.653  23.697  0.00  0.00    -0.265 OA
ATOM     12  C   UNL d   1     -46.862  10.948  23.577  0.00  0.00     0.068 C 
ENDBRANCH   3   9
ENDBRANCH   1   2
BRANCH   1  13
ATOM     13  N   UNL d   1     -48.712  12.873  22.206  0.00  0.00    -0.238 NA
BRANCH  13  14
ATOM     14  C   UNL d   1     -48.960  13.065  21.438  0.00  0.00     0.167 C 
BRANCH  14  15
ATOM     15  C   UNL d   1     -49.540  12.574  21.078  0.00  0.00     0.320 C 
ATOM     16  O   UNL d   1     -49.314  12.103  20.411  0.00  0.00    -0.257 OA
BRANCH  15  17
ATOM     17  O   UNL d   1     -50.315  12.544  21.360  0.00  0.00    -0.270 OA
BRANCH  17  18
ATOM     18  C   UNL d   1     -50.928  12.669  20.863  0.00  0.00     0.126 C 
ATOM     19  C   UNL d   1     -51.060  13.399  20.498  0.00  0.00     0.029 C 
ENDBRANCH  17  18
ENDBRANCH  15  17
ENDBRANCH  14  15
ENDBRANCH  13  14
ENDBRANCH   1  13
BRANCH   1  20
ATOM     20  C   UNL d   1     -48.527  14.127  22.823  0.00  0.00     0.018 A 
ATOM     21  C   UNL d   1     -48.305  14.820  22.433  0.00  0.00     0.002 A 
ATOM     22  C   UNL d   1     -48.594  15.552  22.646  0.00  0.00     0.000 A 
ATOM     23  C   UNL d   1     -49.147  15.590  23.299  0.00  0.00     0.000 A 
ATOM     24  C   UNL d   1     -49.373  14.901  23.693  0.00  0.00     0.000 A 
ATOM     25  C   UNL d   1     -49.066  14.172  23.458  0.00  0.00     0.002 A 
ENDBRANCH   1  20
TORSDOF 8
ENDMDL
