MODEL 1
REMARK VINA RESULT:      -2.6      0.000      0.000
REMARK  1 active torsions:
REMARK  status: ('A' for Active; 'I' for Inactive)
REMARK    1  A    between atoms: N_3  and  C_1 
ROOT
ATOM      1  C   UNL d   1      32.984  20.955 -22.284  0.00  0.00     0.110 A 
ATOM      2  C   UNL d   1      32.722  21.223 -21.537  0.00  0.00     0.212 A 
ATOM      3  C   UNL d   1      32.721  22.031 -21.372  0.00  0.00     0.046 A 
ATOM      4  C   UNL d   1      33.241  21.503 -22.852  0.00  0.00     0.056 A 
ATOM      5  S   UNL d   1      33.235  22.317 -22.673  0.00  0.00    -0.085 SA
ATOM      6  C   UNL d   1      32.977  22.576 -21.938  0.00  0.00     0.033 A 
ATOM      7  C   UNL d   1      32.464  22.300 -20.637  0.00  0.00     0.004 A 
ATOM      8  O   UNL d   1      32.468  20.683 -20.971  0.00  0.00    -0.285 OA
ATOM      9  C   UNL d   1      32.973  23.382 -21.766  0.00  0.00     0.007 A 
ATOM     10  C   UNL d   1      32.460  23.096 -20.465  0.00  0.00     0.000 A 
ATOM     11  C   UNL d   1      32.718  23.648 -21.038  0.00  0.00     0.001 A 
ATOM     12  C   UNL d   1      32.204  23.370 -19.734  0.00  0.00     0.000 C 
ENDROOT
BRANCH   1  13
ATOM     13  N   UNL d   1      32.989  20.146 -22.458  0.00  0.00    -0.301 N 
ATOM     14  C   UNL d   1      32.753  19.884 -23.192  0.00  0.00     0.080 A 
ATOM     15  C   UNL d   1      32.756  19.075 -23.372  0.00  0.00     0.018 A 
ATOM     16  C   UNL d   1      32.519  18.812 -24.111  0.00  0.00     0.002 A 
ATOM     17  C   UNL d   1      32.998  18.534 -22.802  0.00  0.00     0.003 A 
ATOM     18  C   UNL d   1      32.522  18.006 -24.287  0.00  0.00     0.000 A 
ATOM     19  C   UNL d   1      32.766  17.463 -23.715  0.00  0.00     0.000 A 
ATOM     20  C   UNL d   1      33.005  17.728 -22.969  0.00  0.00     0.000 A 
ATOM     21  C   UNL d   1      33.241  18.795 -22.045  0.00  0.00     0.019 A 
ATOM     22  C   UNL d   1      33.233  19.601 -21.883  0.00  0.00     0.080 A 
ENDBRANCH   1  13
TORSDOF 1
ENDMDL
MODEL 2
REMARK VINA RESULT:      -2.3      1.149      4.597
REMARK  1 active torsions:
REMARK  status: ('A' for Active; 'I' for Inactive)
REMARK    1  A    between atoms: N_3  and  C_1 
ROOT
ATOM      1  C   UNL d   1      32.908  19.726 -22.442  0.00  0.00     0.110 A 
ATOM      2  C   UNL d   1      32.586  19.492 -23.177  0.00  0.00     0.212 A 
ATOM      3  C   UNL d   1      32.597  18.695 -23.390  0.00  0.00     0.046 A 
ATOM      4  C   UNL d   1      33.236  19.158 -21.934  0.00  0.00     0.056 A 
ATOM      5  S   UNL d   1      33.241  18.355 -22.161  0.00  0.00    -0.085 SA
ATOM      6  C   UNL d   1      32.923  18.129 -22.884  0.00  0.00     0.033 A 
ATOM      7  C   UNL d   1      32.281  18.459 -24.113  0.00  0.00     0.004 A 
ATOM      8  O   UNL d   1      32.261  20.053 -23.682  0.00  0.00    -0.285 OA
ATOM      9  C   UNL d   1      32.931  17.335 -23.104  0.00  0.00     0.007 A 
ATOM     10  C   UNL d   1      32.287  17.675 -24.332  0.00  0.00     0.000 A 
ATOM     11  C   UNL d   1      32.618  17.101 -23.820  0.00  0.00     0.001 A 
ATOM     12  C   UNL d   1      31.974  17.434 -25.051  0.00  0.00     0.000 C 
ENDROOT
BRANCH   1  13
ATOM     13  N   UNL d   1      32.901  20.523 -22.220  0.00  0.00    -0.301 N 
ATOM     14  C   UNL d   1      32.561  20.749 -21.515  0.00  0.00     0.080 A 
ATOM     15  C   UNL d   1      32.552  21.546 -21.288  0.00  0.00     0.018 A 
ATOM     16  C   UNL d   1      32.209  21.772 -20.578  0.00  0.00     0.002 A 
ATOM     17  C   UNL d   1      32.889  22.112 -21.780  0.00  0.00     0.003 A 
ATOM     18  C   UNL d   1      32.201  22.566 -20.354  0.00  0.00     0.000 A 
ATOM     19  C   UNL d   1      32.540  23.135 -20.848  0.00  0.00     0.000 A 
ATOM     20  C   UNL d   1      32.885  22.907 -21.564  0.00  0.00     0.000 A 
ATOM     21  C   UNL d   1      33.240  21.888 -22.505  0.00  0.00     0.019 A 
ATOM     22  C   UNL d   1      33.241  21.094 -22.716  0.00  0.00     0.080 A 
ENDBRANCH   1  13
TORSDOF 1
ENDMDL
MODEL 3
REMARK VINA RESULT:      -0.3      3.664      5.849
REMARK  1 active torsions:
REMARK  status: ('A' for Active; 'I' for Inactive)
REMARK    1  A    between atoms: N_3  and  C_1 
ROOT
ATOM      1  C   UNL d   1      30.678  16.782 -23.718  0.00  0.00     0.110 A 
ATOM      2  C   UNL d   1      29.891  16.874 -23.983  0.00  0.00     0.212 A 
ATOM      3  C   UNL d   1      29.289  16.431 -23.634  0.00  0.00     0.046 A 
ATOM      4  C   UNL d   1      30.848  16.246 -23.107  0.00  0.00     0.056 A 
ATOM      5  S   UNL d   1      30.230  15.804 -22.762  0.00  0.00    -0.085 SA
ATOM      6  C   UNL d   1      29.458  15.898 -23.026  0.00  0.00     0.033 A 
ATOM      7  C   UNL d   1      28.512  16.519 -23.892  0.00  0.00     0.004 A 
ATOM      8  O   UNL d   1      29.720  17.404 -24.588  0.00  0.00    -0.285 OA
ATOM      9  C   UNL d   1      28.852  15.459 -22.681  0.00  0.00     0.007 A 
ATOM     10  C   UNL d   1      27.911  16.086 -23.553  0.00  0.00     0.000 A 
ATOM     11  C   UNL d   1      28.082  15.546 -22.937  0.00  0.00     0.001 A 
ATOM     12  C   UNL d   1      27.135  16.169 -23.807  0.00  0.00     0.000 C 
ENDROOT
BRANCH   1  13
ATOM     13  N   UNL d   1      31.288  17.222 -24.062  0.00  0.00    -0.301 N 
ATOM     14  C   UNL d   1      31.413  17.994 -23.836  0.00  0.00     0.080 A 
ATOM     15  C   UNL d   1      32.023  18.440 -24.178  0.00  0.00     0.018 A 
ATOM     16  C   UNL d   1      32.148  19.217 -23.950  0.00  0.00     0.002 A 
ATOM     17  C   UNL d   1      32.504  18.097 -24.750  0.00  0.00     0.003 A 
ATOM     18  C   UNL d   1      32.756  19.659 -24.292  0.00  0.00     0.000 A 
ATOM     19  C   UNL d   1      33.239  19.315 -24.866  0.00  0.00     0.000 A 
ATOM     20  C   UNL d   1      33.112  18.530 -25.097  0.00  0.00     0.000 A 
ATOM     21  C   UNL d   1      32.381  17.305 -24.988  0.00  0.00     0.019 A 
ATOM     22  C   UNL d   1      31.773  16.877 -24.639  0.00  0.00     0.080 A 
ENDBRANCH   1  13
TORSDOF 1
ENDMDL
