MODEL 1
REMARK VINA RESULT:      89.0      0.000      0.000
REMARK  5 active torsions:
REMARK  status: ('A' for Active; 'I' for Inactive)
REMARK    1  A    between atoms: N_6  and  S_1 
REMARK    2  A    between atoms: C_11  and  S_1 
REMARK    3  A    between atoms: N_2  and  C_16 
REMARK       I    between atoms: C_9  and  N_8 
REMARK    4  A    between atoms: C_10  and  C_9 
REMARK    5  A    between atoms: C_16  and  C_10 
ROOT
ATOM      1  N   UNL d   1      61.096  46.563  50.417  0.00  0.00    -0.226 N 
ATOM      2  N   UNL d   1      60.558  48.099  50.664  0.00  0.00    -0.269 N 
ATOM      3  C   UNL d   1      60.280  48.866  50.789  0.00  0.00     0.267 C 
ATOM      4  C   UNL d   1      60.315  46.695  50.645  0.00  0.00     0.111 A 
ATOM      5  C   UNL d   1      61.621  47.205  50.309  0.00  0.00     0.111 A 
ATOM      6  C   UNL d   1      60.046  47.464  50.769  0.00  0.00     0.103 A 
ATOM      7  C   UNL d   1      61.352  47.975  50.433  0.00  0.00     0.103 A 
ATOM      8  O   UNL d   1      60.790  49.506  50.685  0.00  0.00    -0.267 OA
ENDROOT
BRANCH   3   9
ATOM      9  C   UNL d   1      59.500  48.989  51.017  0.00  0.00     0.082 C 
BRANCH   9  10
ATOM     10  C   UNL d   1      59.133  49.705  50.834  0.00  0.00     0.105 C 
BRANCH  10  11
ATOM     11  N   UNL d   1      58.349  49.705  50.568  0.00  0.00    -0.228 N 
ATOM     12  N   UNL d   1      58.096  49.704  49.783  0.00  0.00    -0.165 NA
ATOM     13  C   UNL d   1      57.271  49.705  49.771  0.00  0.00     0.103 A 
ATOM     14  C   UNL d   1      56.787  49.704  49.097  0.00  0.00     0.022 C 
ATOM     15  C   UNL d   1      57.007  49.706  50.553  0.00  0.00     0.037 A 
ATOM     16  C   UNL d   1      57.672  49.706  51.048  0.00  0.00     0.084 A 
ATOM     17  C   UNL d   1      56.222  49.707  50.799  0.00  0.00     0.003 C 
ATOM     18  C   UNL d   1      57.654  49.707  51.874  0.00  0.00     0.021 C 
ENDBRANCH  10  11
ENDBRANCH   9  10
ENDBRANCH   3   9
BRANCH   1  19
ATOM     19  S   UNL d   1      61.366  45.789  50.293  0.00  0.00     0.271 S 
ATOM     20  O   UNL d   1      60.885  45.520  50.918  0.00  0.00    -0.200 OA
ATOM     21  O   UNL d   1      61.843  46.055  49.674  0.00  0.00    -0.200 OA
BRANCH  19  22
ATOM     22  C   UNL d   1      61.639  45.011  50.168  0.00  0.00     0.104 A 
ATOM     23  C   UNL d   1      61.753  44.740  49.404  0.00  0.00     0.014 A 
ATOM     24  C   UNL d   1      62.023  43.971  49.276  0.00  0.00     0.012 A 
ATOM     25  C   UNL d   1      62.177  43.472  49.922  0.00  0.00     0.058 A 
ATOM     26  C   UNL d   1      62.061  43.748  50.700  0.00  0.00     0.012 A 
ATOM     27 CL   UNL d   1      62.447  42.702  49.798  0.00  0.00    -0.082 Cl
ATOM     28  C   UNL d   1      61.789  44.525  50.825  0.00  0.00     0.014 A 
ENDBRANCH  19  22
ENDBRANCH   1  19
TORSDOF 5
ENDMDL
