MODEL 1
REMARK VINA RESULT:      75.0      0.000      0.000
REMARK  5 active torsions:
REMARK  status: ('A' for Active; 'I' for Inactive)
REMARK    1  A    between atoms: C_2  and  C_1 
REMARK       I    between atoms: N_3  and  C_2 
REMARK    2  A    between atoms: C_6  and  N_3 
REMARK    3  A    between atoms: O_15  and  C_5 
REMARK    4  A    between atoms: O_17  and  C_11 
REMARK    5  A    between atoms: O_18  and  C_14 
ROOT
ATOM      1  C   UNL d   1     -55.356-101.375 -42.525  0.00  0.00     0.281 C 
ATOM      2  N   UNL d   1     -54.716-101.340 -43.067  0.00  0.00    -0.206 NA
ATOM      3  O   UNL d   1     -56.117-101.374 -42.797  0.00  0.00    -0.265 OA
ENDROOT
BRANCH   1   4
ATOM      4  C   UNL d   1     -55.203-101.410 -41.706  0.00  0.00     0.080 A 
ATOM      5  C   UNL d   1     -55.348-102.092 -41.283  0.00  0.00     0.007 A 
ATOM      6  C   UNL d   1     -55.205-102.151 -40.470  0.00  0.00     0.000 A 
ATOM      7  C   UNL d   1     -55.350-102.824 -40.064  0.00  0.00     0.000 A 
ATOM      8  C   UNL d   1     -54.896-101.477 -40.066  0.00  0.00     0.002 A 
ATOM      9  C   UNL d   1     -55.206-102.879 -39.257  0.00  0.00     0.000 A 
ATOM     10  C   UNL d   1     -54.897-102.205 -38.852  0.00  0.00     0.000 A 
ATOM     11  C   UNL d   1     -54.745-101.504 -39.271  0.00  0.00     0.000 A 
ATOM     12  C   UNL d   1     -54.743-100.773 -40.491  0.00  0.00     0.024 A 
ATOM     13  C   UNL d   1     -54.894-100.736 -41.301  0.00  0.00     0.099 A 
BRANCH  13  14
ATOM     14  O   UNL d   1     -54.742-100.035 -41.721  0.00  0.00    -0.328 OA
ATOM     15  C   UNL d   1     -55.071 -99.304 -41.453  0.00  0.00     0.181 C 
ENDBRANCH  13  14
ENDBRANCH   1   4
BRANCH   2  16
ATOM     16  C   UNL d   1     -54.868-101.305 -43.885  0.00  0.00     0.109 A 
ATOM     17  C   UNL d   1     -54.893-101.996 -44.303  0.00  0.00     0.045 A 
ATOM     18  C   UNL d   1     -55.043-101.942 -45.103  0.00  0.00     0.096 A 
ATOM     19  C   UNL d   1     -55.167-101.224 -45.480  0.00  0.00     0.026 A 
ATOM     20  C   UNL d   1     -55.138-100.546 -45.042  0.00  0.00     0.028 A 
ATOM     21  C   UNL d   1     -54.993-100.561 -44.253  0.00  0.00     0.112 A 
BRANCH  18  22
ATOM     22  O   UNL d   1     -55.073-102.647 -45.559  0.00  0.00    -0.328 OA
ATOM     23  C   UNL d   1     -55.750-102.846 -45.933  0.00  0.00     0.181 C 
ENDBRANCH  18  22
BRANCH  21  24
ATOM     24  O   UNL d   1     -54.967 -99.838 -43.816  0.00  0.00    -0.327 OA
ATOM     25  C   UNL d   1     -54.748 -99.138 -44.192  0.00  0.00     0.181 C 
ENDBRANCH  21  24
ENDBRANCH   2  16
TORSDOF 5
ENDMDL
