MODEL 1
REMARK VINA RESULT:       0.9      0.000      0.000
REMARK  2 active torsions:
REMARK  status: ('A' for Active; 'I' for Inactive)
REMARK    1  A    between atoms: C_13  and  C_2 
REMARK    2  A    between atoms: N_12  and  C_8 
ROOT
ATOM      1  N   UNL d   1     -41.507-121.523 -51.268  0.00  0.00    -0.301 N 
ATOM      2  C   UNL d   1     -41.745-122.482 -50.234  0.00  0.00     0.121 A 
ATOM      3  C   UNL d   1     -41.681-122.089 -51.830  0.00  0.00     0.092 A 
ATOM      4  C   UNL d   1     -41.651-121.896 -52.643  0.00  0.00     0.134 A 
ATOM      5  C   UNL d   1     -41.888-122.854 -51.600  0.00  0.00     0.060 A 
ATOM      6  C   UNL d   1     -41.538-121.717 -50.464  0.00  0.00     0.090 A 
ATOM      7  C   UNL d   1     -41.918-123.044 -50.811  0.00  0.00     0.204 A 
ATOM      8  C   UNL d   1     -41.826-122.465 -53.216  0.00  0.00     0.116 A 
ATOM      9  O   UNL d   1     -41.442-121.123 -52.875  0.00  0.00    -0.301 OA
ATOM     10  C   UNL d   1     -42.033-123.230 -52.987  0.00  0.00     0.158 A 
ATOM     11  C   UNL d   1     -42.061-123.413 -52.168  0.00  0.00     0.036 A 
ATOM     12  C   UNL d   1     -41.301-120.761 -51.497  0.00  0.00     0.089 A 
ATOM     13  O   UNL d   1     -42.127-123.817 -50.579  0.00  0.00    -0.286 OA
ATOM     14  C   UNL d   1     -41.267-120.559 -52.289  0.00  0.00     0.140 A 
ATOM     15  F   UNL d   1     -42.213-123.816 -53.555  0.00  0.00    -0.203 F 
ATOM     16  C   UNL d   1     -41.124-120.187 -50.923  0.00  0.00     0.021 C 
ENDROOT
BRANCH   8  17
ATOM     17  N   UNL d   1     -41.796-122.273 -54.019  0.00  0.00    -0.298 N 
ATOM     18  C   UNL d   1     -42.420-121.836 -54.361  0.00  0.00     0.100 A 
ATOM     19  C   UNL d   1     -42.375-121.649 -55.173  0.00  0.00     0.100 A 
ATOM     20  N   UNL d   1     -41.730-121.891 -55.628  0.00  0.00    -0.299 N 
ATOM     21  C   UNL d   1     -41.123-122.327 -55.255  0.00  0.00     0.100 A 
ATOM     22  C   UNL d   1     -41.695-121.701 -56.434  0.00  0.00     0.100 C 
ATOM     23  C   UNL d   1     -41.151-122.515 -54.473  0.00  0.00     0.100 A 
ENDBRANCH   8  17
BRANCH   2  24
ATOM     24  C   UNL d   1     -41.780-122.694 -49.426  0.00  0.00     0.215 C 
ATOM     25  O   UNL d   1     -42.468-122.554 -48.976  0.00  0.00    -0.644 OA
ATOM     26  O   UNL d   1     -41.131-123.045 -49.066  0.00  0.00    -0.644 OA
ENDBRANCH   2  24
TORSDOF 2
ENDMDL
MODEL 2
REMARK VINA RESULT:       2.1      1.586      4.411
REMARK  2 active torsions:
REMARK  status: ('A' for Active; 'I' for Inactive)
REMARK    1  A    between atoms: C_13  and  C_2 
REMARK    2  A    between atoms: N_12  and  C_8 
ROOT
ATOM      1  N   UNL d   1     -41.687-122.696 -53.545  0.00  0.00    -0.301 N 
ATOM      2  C   UNL d   1     -42.182-121.579 -54.288  0.00  0.00     0.121 A 
ATOM      3  C   UNL d   1     -41.896-122.323 -52.850  0.00  0.00     0.092 A 
ATOM      4  C   UNL d   1     -41.754-122.695 -52.115  0.00  0.00     0.134 A 
ATOM      5  C   UNL d   1     -42.249-121.578 -52.867  0.00  0.00     0.060 A 
ATOM      6  C   UNL d   1     -41.829-122.325 -54.271  0.00  0.00     0.090 A 
ATOM      7  C   UNL d   1     -42.389-121.213 -53.580  0.00  0.00     0.204 A 
ATOM      8  C   UNL d   1     -41.964-122.322 -51.407  0.00  0.00     0.116 A 
ATOM      9  O   UNL d   1     -41.397-123.449 -52.098  0.00  0.00    -0.301 OA
ATOM     10  C   UNL d   1     -42.317-121.577 -51.425  0.00  0.00     0.158 A 
ATOM     11  C   UNL d   1     -42.455-121.212 -52.168  0.00  0.00     0.036 A 
ATOM     12  C   UNL d   1     -41.335-123.439 -53.528  0.00  0.00     0.089 A 
ATOM     13  O   UNL d   1     -42.745-120.461 -53.597  0.00  0.00    -0.286 OA
ATOM     14  C   UNL d   1     -41.190-123.814 -52.815  0.00  0.00     0.140 A 
ATOM     15  F   UNL d   1     -42.535-121.188 -50.717  0.00  0.00    -0.203 F 
ATOM     16  C   UNL d   1     -41.123-123.815 -54.237  0.00  0.00     0.021 C 
ENDROOT
BRANCH   8  17
ATOM     17  N   UNL d   1     -41.823-122.691 -50.683  0.00  0.00    -0.298 N 
ATOM     18  C   UNL d   1     -42.252-123.379 -50.480  0.00  0.00     0.100 A 
ATOM     19  C   UNL d   1     -42.098-123.741 -49.744  0.00  0.00     0.100 A 
ATOM     20  N   UNL d   1     -41.536-123.427 -49.228  0.00  0.00    -0.299 N 
ATOM     21  C   UNL d   1     -41.123-122.738 -49.460  0.00  0.00     0.100 A 
ATOM     22  C   UNL d   1     -41.390-123.794 -48.499  0.00  0.00     0.100 C 
ATOM     23  C   UNL d   1     -41.260-122.378 -50.167  0.00  0.00     0.100 A 
ENDBRANCH   8  17
BRANCH   2  24
ATOM     24  C   UNL d   1     -42.332-121.191 -55.014  0.00  0.00     0.215 C 
ATOM     25  O   UNL d   1     -42.992-121.396 -55.481  0.00  0.00    -0.644 OA
ATOM     26  O   UNL d   1     -41.826-120.600 -55.274  0.00  0.00    -0.644 OA
ENDBRANCH   2  24
TORSDOF 2
ENDMDL
