MODEL 1
REMARK VINA RESULT:      -3.2      0.000      0.000
REMARK  2 active torsions:
REMARK  status: ('A' for Active; 'I' for Inactive)
REMARK       I    between atoms: C_6  and  N_7 
REMARK    1  A    between atoms: C_9  and  C_6 
REMARK    2  A    between atoms: N_7  and  C_13 
ROOT
ATOM      1  N   UNL d   1      28.669  16.575 -23.377  0.00  0.00    -0.169 NA
ATOM      2  C   UNL d   1      29.251  16.010 -23.249  0.00  0.00     0.282 A 
ATOM      3  C   UNL d   1      28.884  17.019 -24.032  0.00  0.00     0.282 A 
ATOM      4  C   UNL d   1      29.833  16.108 -23.833  0.00  0.00     0.064 A 
ATOM      5  C   UNL d   1      29.600  16.730 -24.310  0.00  0.00     0.063 A 
ATOM      6  C   UNL d   1      30.077  16.956 -24.946  0.00  0.00     0.006 A 
ATOM      7  C   UNL d   1      30.538  15.702 -23.976  0.00  0.00     0.024 A 
ATOM      8  O   UNL d   1      29.241  15.454 -22.642  0.00  0.00    -0.265 OA
ATOM      9  O   UNL d   1      28.460  17.646 -24.359  0.00  0.00    -0.265 OA
ATOM     10  C   UNL d   1      31.011  15.927 -24.608  0.00  0.00     0.085 A 
ATOM     11  C   UNL d   1      30.783  16.556 -25.097  0.00  0.00     0.019 A 
ENDROOT
BRANCH  10  12
ATOM     12  N   UNL d   1      31.716  15.521 -24.752  0.00  0.00    -0.208 NA
ATOM     13  C   UNL d   1      32.433  15.861 -24.541  0.00  0.00     0.279 C 
ATOM     14  O   UNL d   1      33.132  15.454 -24.686  0.00  0.00    -0.265 OA
BRANCH  13  15
ATOM     15  C   UNL d   1      32.456  16.597 -24.190  0.00  0.00     0.058 A 
ATOM     16  C   UNL d   1      32.513  16.651 -23.367  0.00  0.00     0.005 A 
ATOM     17  C   UNL d   1      32.537  17.386 -23.002  0.00  0.00     0.000 A 
ATOM     18  C   UNL d   1      32.504  18.080 -23.461  0.00  0.00     0.000 A 
ATOM     19  C   UNL d   1      32.447  18.022 -24.283  0.00  0.00     0.000 A 
ATOM     20  C   UNL d   1      32.528  18.828 -23.098  0.00  0.00     0.000 C 
ATOM     21  C   UNL d   1      32.424  17.280 -24.638  0.00  0.00     0.005 A 
ENDBRANCH  13  15
ENDBRANCH  10  12
TORSDOF 2
ENDMDL
MODEL 2
REMARK VINA RESULT:      -1.4      1.372      3.612
REMARK  2 active torsions:
REMARK  status: ('A' for Active; 'I' for Inactive)
REMARK       I    between atoms: C_6  and  N_7 
REMARK    1  A    between atoms: C_9  and  C_6 
REMARK    2  A    between atoms: N_7  and  C_13 
ROOT
ATOM      1  N   UNL d   1      32.752  16.726 -23.160  0.00  0.00    -0.169 NA
ATOM      2  C   UNL d   1      32.341  17.436 -23.196  0.00  0.00     0.282 A 
ATOM      3  C   UNL d   1      32.443  16.223 -23.729  0.00  0.00     0.282 A 
ATOM      4  C   UNL d   1      31.771  17.370 -23.796  0.00  0.00     0.064 A 
ATOM      5  C   UNL d   1      31.840  16.621 -24.118  0.00  0.00     0.063 A 
ATOM      6  C   UNL d   1      31.337  16.396 -24.734  0.00  0.00     0.006 A 
ATOM      7  C   UNL d   1      31.206  17.904 -24.076  0.00  0.00     0.024 A 
ATOM      8  O   UNL d   1      32.485  18.088 -22.714  0.00  0.00    -0.265 OA
ATOM      9  O   UNL d   1      32.690  15.453 -23.888  0.00  0.00    -0.265 OA
ATOM     10  C   UNL d   1      30.708  17.679 -24.687  0.00  0.00     0.085 A 
ATOM     11  C   UNL d   1      30.770  16.923 -25.020  0.00  0.00     0.019 A 
ENDROOT
BRANCH  10  12
ATOM     12  N   UNL d   1      30.143  18.212 -24.968  0.00  0.00    -0.208 NA
ATOM     13  C   UNL d   1      29.346  18.082 -24.816  0.00  0.00     0.279 C 
ATOM     14  O   UNL d   1      28.788  18.615 -25.096  0.00  0.00    -0.265 OA
BRANCH  13  15
ATOM     15  C   UNL d   1      29.107  17.429 -24.389  0.00  0.00     0.058 A 
ATOM     16  C   UNL d   1      28.858  17.526 -23.607  0.00  0.00     0.005 A 
ATOM     17  C   UNL d   1      28.615  16.877 -23.168  0.00  0.00     0.000 A 
ATOM     18  C   UNL d   1      28.619  16.117 -23.510  0.00  0.00     0.000 A 
ATOM     19  C   UNL d   1      28.869  16.025 -24.292  0.00  0.00     0.000 A 
ATOM     20  C   UNL d   1      28.374  15.455 -23.072  0.00  0.00     0.000 C 
ATOM     21  C   UNL d   1      29.110  16.683 -24.723  0.00  0.00     0.005 A 
ENDBRANCH  13  15
ENDBRANCH  10  12
TORSDOF 2
ENDMDL
MODEL 3
REMARK VINA RESULT:      -0.7      1.308      1.966
REMARK  2 active torsions:
REMARK  status: ('A' for Active; 'I' for Inactive)
REMARK       I    between atoms: C_6  and  N_7 
REMARK    1  A    between atoms: C_9  and  C_6 
REMARK    2  A    between atoms: N_7  and  C_13 
ROOT
ATOM      1  N   UNL d   1      28.451  16.720 -24.077  0.00  0.00    -0.169 NA
ATOM      2  C   UNL d   1      28.796  17.458 -23.978  0.00  0.00     0.282 A 
ATOM      3  C   UNL d   1      28.980  16.244 -24.484  0.00  0.00     0.282 A 
ATOM      4  C   UNL d   1      29.549  17.437 -24.329  0.00  0.00     0.064 A 
ATOM      5  C   UNL d   1      29.654  16.687 -24.637  0.00  0.00     0.063 A 
ATOM      6  C   UNL d   1      30.361  16.502 -25.023  0.00  0.00     0.006 A 
ATOM      7  C   UNL d   1      30.137  18.013 -24.397  0.00  0.00     0.024 A 
ATOM      8  O   UNL d   1      28.441  18.096 -23.595  0.00  0.00    -0.265 OA
ATOM      9  O   UNL d   1      28.863  15.458 -24.703  0.00  0.00    -0.265 OA
ATOM     10  C   UNL d   1      30.838  17.828 -24.781  0.00  0.00     0.085 A 
ATOM     11  C   UNL d   1      30.954  17.071 -25.096  0.00  0.00     0.019 A 
ENDROOT
BRANCH  10  12
ATOM     12  N   UNL d   1      31.427  18.403 -24.849  0.00  0.00    -0.208 NA
ATOM     13  C   UNL d   1      32.162  18.279 -24.506  0.00  0.00     0.279 C 
ATOM     14  O   UNL d   1      32.745  18.853 -24.577  0.00  0.00    -0.265 OA
BRANCH  13  15
ATOM     15  C   UNL d   1      32.317  17.590 -24.096  0.00  0.00     0.058 A 
ATOM     16  C   UNL d   1      32.644  16.945 -24.498  0.00  0.00     0.005 A 
ATOM     17  C   UNL d   1      32.804  16.247 -24.097  0.00  0.00     0.000 A 
ATOM     18  C   UNL d   1      32.638  16.187 -23.283  0.00  0.00     0.000 A 
ATOM     19  C   UNL d   1      32.312  16.834 -22.885  0.00  0.00     0.000 A 
ATOM     20  C   UNL d   1      32.798  15.484 -22.870  0.00  0.00     0.000 C 
ATOM     21  C   UNL d   1      32.155  17.529 -23.298  0.00  0.00     0.005 A 
ENDBRANCH  13  15
ENDBRANCH  10  12
TORSDOF 2
ENDMDL
