MODEL 1
REMARK VINA RESULT:      66.6      0.000      0.000
REMARK  5 active torsions:
REMARK  status: ('A' for Active; 'I' for Inactive)
REMARK    1  A    between atoms: N_2  and  C_1 
REMARK       I    between atoms: C_7  and  N_2 
REMARK    2  A    between atoms: C_21  and  N_3 
REMARK    3  A    between atoms: C_8  and  C_7 
REMARK       I    between atoms: C_12  and  N_13 
REMARK    4  A    between atoms: N_13  and  C_14 
REMARK    5  A    between atoms: C_20  and  C_21 
ROOT
ATOM      1  C   UNL d   1     -55.053-100.961 -42.803  0.00  0.00     0.182 A 
ATOM      2  N   UNL d   1     -55.195-101.768 -42.794  0.00  0.00    -0.285 N 
ATOM      3  S   UNL d   1     -54.903-100.722 -42.029  0.00  0.00    -0.048 SA
ATOM      4  C   UNL d   1     -54.953-101.387 -41.541  0.00  0.00     0.050 A 
ATOM      5  C   UNL d   1     -55.134-102.037 -42.016  0.00  0.00     0.072 A 
ATOM      6  C   UNL d   1     -54.857-101.484 -40.729  0.00  0.00     0.027 A 
ATOM      7  C   UNL d   1     -55.220-102.784 -41.679  0.00  0.00     0.020 A 
ATOM      8  C   UNL d   1     -54.942-102.230 -40.392  0.00  0.00     0.085 A 
ATOM      9  C   UNL d   1     -55.124-102.880 -40.867  0.00  0.00     0.021 A 
ENDROOT
BRANCH   1  10
ATOM     10  N   UNL d   1     -55.061-100.480 -43.473  0.00  0.00    -0.183 NA
ATOM     11  C   UNL d   1     -55.743-100.059 -43.663  0.00  0.00     0.287 C 
ATOM     12  O   UNL d   1     -56.410-100.123 -43.183  0.00  0.00    -0.265 OA
BRANCH  11  13
ATOM     13  C   UNL d   1     -55.758 -99.576 -44.331  0.00  0.00     0.087 A 
ATOM     14  S   UNL d   1     -56.425 -99.209 -44.657  0.00  0.00    -0.082 SA
ATOM     15  C   UNL d   1     -56.193 -98.777 -45.322  0.00  0.00     0.036 A 
ATOM     16  C   UNL d   1     -55.378 -98.877 -45.408  0.00  0.00     0.008 A 
ATOM     17  C   UNL d   1     -55.105 -99.367 -44.802  0.00  0.00     0.012 A 
ENDBRANCH  11  13
ENDBRANCH   1  10
BRANCH   2  18
ATOM     18  C   UNL d   1     -55.370-102.241 -43.450  0.00  0.00     0.082 C 
BRANCH  18  19
ATOM     19  C   UNL d   1     -54.780-102.448 -43.984  0.00  0.00     0.019 C 
ATOM     20  C   UNL d   1     -54.974-102.665 -44.752  0.00  0.00     0.002 C 
ENDBRANCH  18  19
ENDBRANCH   2  18
BRANCH   8  21
ATOM     21  N   UNL d   1     -54.846-102.331 -39.568  0.00  0.00    -0.208 NA
ATOM     22  C   UNL d   1     -54.807-101.678 -39.081  0.00  0.00     0.279 C 
ATOM     23  O   UNL d   1     -54.711-101.780 -38.269  0.00  0.00    -0.265 OA
ATOM     24  C   UNL d   1     -54.861-100.914 -39.389  0.00  0.00     0.068 C 
ENDBRANCH   8  21
TORSDOF 5
ENDMDL
