MODEL 1
REMARK VINA RESULT:      31.2      0.000      0.000
REMARK  1 active torsions:
REMARK  status: ('A' for Active; 'I' for Inactive)
REMARK    1  A    between atoms: C_10  and  C_4 
ROOT
ATOM      1  N   UNL d   1      57.419  49.519  49.803  0.00  0.00    -0.202 N 
ATOM      2  C   UNL d   1      57.885  49.506  50.484  0.00  0.00     0.166 A 
ATOM      3  N   UNL d   1      57.928  49.596  49.147  0.00  0.00    -0.163 NA
ATOM      4  C   UNL d   1      58.683  49.577  50.250  0.00  0.00     0.055 A 
ATOM      5  C   UNL d   1      56.595  49.458  49.865  0.00  0.00     0.143 A 
ATOM      6  C   UNL d   1      58.695  49.631  49.432  0.00  0.00     0.104 A 
ATOM      7  N   UNL d   1      57.533  49.434  51.222  0.00  0.00    -0.227 NA
ATOM      8  C   UNL d   1      56.242  49.385  50.609  0.00  0.00     0.050 A 
ATOM      9  C   UNL d   1      56.714  49.373  51.294  0.00  0.00     0.086 A 
ATOM     10 CL   UNL d   1      56.127  49.470  49.187  0.00  0.00    -0.061 Cl
ATOM     11  C   UNL d   1      59.373  49.707  48.969  0.00  0.00     0.023 C 
ATOM     12  C   UNL d   1      56.362  49.301  52.033  0.00  0.00     0.021 C 
ENDROOT
BRANCH   4  13
ATOM     13  C   UNL d   1      59.338  49.589  50.753  0.00  0.00     0.004 A 
ATOM     14  C   UNL d   1      59.232  49.691  51.565  0.00  0.00     0.001 A 
ATOM     15  C   UNL d   1      59.886  49.703  52.063  0.00  0.00     0.011 A 
ATOM     16  C   UNL d   1      60.646  49.614  51.757  0.00  0.00     0.058 A 
ATOM     17  C   UNL d   1      60.754  49.512  50.949  0.00  0.00     0.011 A 
ATOM     18 CL   UNL d   1      61.295  49.626  52.256  0.00  0.00    -0.082 Cl
ATOM     19  C   UNL d   1      60.102  49.499  50.441  0.00  0.00     0.001 A 
ENDBRANCH   4  13
TORSDOF 1
ENDMDL
MODEL 2
REMARK VINA RESULT:      34.2      1.064      1.974
REMARK  1 active torsions:
REMARK  status: ('A' for Active; 'I' for Inactive)
REMARK    1  A    between atoms: C_10  and  C_4 
ROOT
ATOM      1  N   UNL d   1      57.407  49.679  51.365  0.00  0.00    -0.202 N 
ATOM      2  C   UNL d   1      57.973  49.685  50.764  0.00  0.00     0.166 A 
ATOM      3  N   UNL d   1      57.810  49.676  52.095  0.00  0.00    -0.163 NA
ATOM      4  C   UNL d   1      58.727  49.685  51.122  0.00  0.00     0.055 A 
ATOM      5  C   UNL d   1      56.601  49.678  51.174  0.00  0.00     0.143 A 
ATOM      6  C   UNL d   1      58.613  49.679  51.934  0.00  0.00     0.104 A 
ATOM      7  N   UNL d   1      57.737  49.690  49.977  0.00  0.00    -0.227 NA
ATOM      8  C   UNL d   1      56.366  49.683  50.381  0.00  0.00     0.050 A 
ATOM      9  C   UNL d   1      56.938  49.689  49.777  0.00  0.00     0.086 A 
ATOM     10 CL   UNL d   1      56.034  49.672  51.771  0.00  0.00    -0.061 Cl
ATOM     11  C   UNL d   1      59.213  49.677  52.500  0.00  0.00     0.023 C 
ATOM     12  C   UNL d   1      56.703  49.694  48.990  0.00  0.00     0.021 C 
ENDROOT
BRANCH   4  13
ATOM     13  C   UNL d   1      59.452  49.691  50.728  0.00  0.00     0.004 A 
ATOM     14  C   UNL d   1      59.473  49.685  49.903  0.00  0.00     0.001 A 
ATOM     15  C   UNL d   1      60.196  49.690  49.513  0.00  0.00     0.011 A 
ATOM     16  C   UNL d   1      60.902  49.701  49.940  0.00  0.00     0.058 A 
ATOM     17  C   UNL d   1      60.883  49.707  50.762  0.00  0.00     0.011 A 
ATOM     18 CL   UNL d   1      61.620  49.706  49.548  0.00  0.00    -0.082 Cl
ATOM     19  C   UNL d   1      60.160  49.702  51.161  0.00  0.00     0.001 A 
ENDBRANCH   4  13
TORSDOF 1
ENDMDL
