MODEL 1
REMARK VINA RESULT:      -3.0      0.000      0.000
REMARK  1 active torsions:
REMARK  status: ('A' for Active; 'I' for Inactive)
REMARK    1  A    between atoms: C_6  and  C_1 
ROOT
ATOM      1  C   UNL d   1      31.010  16.852 -24.014  0.00  0.00     0.111 A 
ATOM      2  N   UNL d   1      30.855  16.195 -23.540  0.00  0.00    -0.239 NA
ATOM      3  S   UNL d   1      30.293  17.118 -24.346  0.00  0.00    -0.066 SA
ATOM      4  C   UNL d   1      30.046  16.051 -23.577  0.00  0.00     0.088 A 
ATOM      5  C   UNL d   1      29.702  16.616 -24.070  0.00  0.00     0.049 A 
ATOM      6  C   UNL d   1      29.568  15.470 -23.220  0.00  0.00     0.020 A 
ATOM      7  C   UNL d   1      28.882  16.596 -24.203  0.00  0.00     0.008 A 
ATOM      8  C   UNL d   1      28.402  16.017 -23.848  0.00  0.00     0.001 A 
ATOM      9  C   UNL d   1      28.746  15.453 -23.355  0.00  0.00     0.002 A 
ENDROOT
BRANCH   1  10
ATOM     10  C   UNL d   1      31.709  17.223 -24.170  0.00  0.00     0.025 A 
ATOM     11  C   UNL d   1      32.103  17.707 -23.598  0.00  0.00     0.023 A 
ATOM     12  C   UNL d   1      32.801  18.073 -23.763  0.00  0.00     0.103 A 
ATOM     13  N   UNL d   1      33.148  18.534 -23.172  0.00  0.00    -0.148 N 
ATOM     14  C   UNL d   1      33.149  17.967 -24.536  0.00  0.00     0.021 A 
ATOM     15  C   UNL d   1      32.779  17.503 -25.097  0.00  0.00     0.002 A 
ATOM     16  C   UNL d   1      32.068  17.140 -24.905  0.00  0.00     0.002 A 
ENDBRANCH   1  10
TORSDOF 1
ENDMDL
MODEL 2
REMARK VINA RESULT:      -2.9      1.144      3.640
REMARK  1 active torsions:
REMARK  status: ('A' for Active; 'I' for Inactive)
REMARK    1  A    between atoms: C_6  and  C_1 
ROOT
ATOM      1  C   UNL d   1      30.781  16.825 -24.118  0.00  0.00     0.111 A 
ATOM      2  N   UNL d   1      31.015  17.587 -24.331  0.00  0.00    -0.239 NA
ATOM      3  S   UNL d   1      31.385  16.477 -23.661  0.00  0.00    -0.066 SA
ATOM      4  C   UNL d   1      31.762  17.713 -24.010  0.00  0.00     0.088 A 
ATOM      5  C   UNL d   1      31.988  17.034 -23.599  0.00  0.00     0.049 A 
ATOM      6  C   UNL d   1      32.275  18.369 -24.036  0.00  0.00     0.020 A 
ATOM      7  C   UNL d   1      32.726  17.015 -23.218  0.00  0.00     0.008 A 
ATOM      8  C   UNL d   1      33.241  17.667 -23.243  0.00  0.00     0.001 A 
ATOM      9  C   UNL d   1      33.014  18.346 -23.653  0.00  0.00     0.002 A 
ENDROOT
BRANCH   1  10
ATOM     10  C   UNL d   1      30.100  16.428 -24.289  0.00  0.00     0.025 A 
ATOM     11  C   UNL d   1      29.380  16.559 -23.862  0.00  0.00     0.023 A 
ATOM     12  C   UNL d   1      28.705  16.158 -24.040  0.00  0.00     0.103 A 
ATOM     13  N   UNL d   1      28.028  16.319 -23.595  0.00  0.00    -0.148 N 
ATOM     14  C   UNL d   1      28.720  15.588 -24.676  0.00  0.00     0.021 A 
ATOM     15  C   UNL d   1      29.408  15.453 -25.095  0.00  0.00     0.002 A 
ATOM     16  C   UNL d   1      30.083  15.874 -24.895  0.00  0.00     0.002 A 
ENDBRANCH   1  10
TORSDOF 1
ENDMDL
MODEL 3
REMARK VINA RESULT:      -2.6      3.749      5.372
REMARK  1 active torsions:
REMARK  status: ('A' for Active; 'I' for Inactive)
REMARK    1  A    between atoms: C_6  and  C_1 
ROOT
ATOM      1  C   UNL d   1      33.013  20.707 -21.921  0.00  0.00     0.111 A 
ATOM      2  N   UNL d   1      33.054  20.736 -22.744  0.00  0.00    -0.239 NA
ATOM      3  S   UNL d   1      33.054  19.910 -21.679  0.00  0.00    -0.066 SA
ATOM      4  C   UNL d   1      33.119  19.962 -23.014  0.00  0.00     0.088 A 
ATOM      5  C   UNL d   1      33.119  19.457 -22.362  0.00  0.00     0.049 A 
ATOM      6  C   UNL d   1      33.180  19.645 -23.782  0.00  0.00     0.020 A 
ATOM      7  C   UNL d   1      33.180  18.637 -22.482  0.00  0.00     0.008 A 
ATOM      8  C   UNL d   1      33.241  18.317 -23.247  0.00  0.00     0.001 A 
ATOM      9  C   UNL d   1      33.241  18.822 -23.898  0.00  0.00     0.002 A 
ENDROOT
BRANCH   1  10
ATOM     10  C   UNL d   1      32.945  21.307 -21.385  0.00  0.00     0.025 A 
ATOM     11  C   UNL d   1      32.574  22.044 -21.576  0.00  0.00     0.023 A 
ATOM     12  C   UNL d   1      32.511  22.637 -21.035  0.00  0.00     0.103 A 
ATOM     13  N   UNL d   1      32.140  23.338 -21.268  0.00  0.00    -0.148 N 
ATOM     14  C   UNL d   1      32.828  22.516 -20.252  0.00  0.00     0.021 A 
ATOM     15  C   UNL d   1      33.189  21.809 -20.056  0.00  0.00     0.002 A 
ATOM     16  C   UNL d   1      33.241  21.220 -20.624  0.00  0.00     0.002 A 
ENDBRANCH   1  10
TORSDOF 1
ENDMDL
MODEL 4
REMARK VINA RESULT:      -2.4      3.170      4.926
REMARK  1 active torsions:
REMARK  status: ('A' for Active; 'I' for Inactive)
REMARK    1  A    between atoms: C_6  and  C_1 
ROOT
ATOM      1  C   UNL d   1      33.070  19.904 -22.529  0.00  0.00     0.111 A 
ATOM      2  N   UNL d   1      32.881  19.900 -21.725  0.00  0.00    -0.239 NA
ATOM      3  S   UNL d   1      33.235  20.687 -22.761  0.00  0.00    -0.066 SA
ATOM      4  C   UNL d   1      32.928  20.677 -21.459  0.00  0.00     0.088 A 
ATOM      5  C   UNL d   1      33.145  21.159 -22.093  0.00  0.00     0.049 A 
ATOM      6  C   UNL d   1      32.801  21.016 -20.709  0.00  0.00     0.020 A 
ATOM      7  C   UNL d   1      33.233  21.976 -21.973  0.00  0.00     0.008 A 
ATOM      8  C   UNL d   1      33.107  22.318 -21.226  0.00  0.00     0.001 A 
ATOM      9  C   UNL d   1      32.889  21.836 -20.592  0.00  0.00     0.002 A 
ENDROOT
BRANCH   1  10
ATOM     10  C   UNL d   1      33.106  19.292 -23.053  0.00  0.00     0.025 A 
ATOM     11  C   UNL d   1      33.049  18.483 -22.809  0.00  0.00     0.023 A 
ATOM     12  C   UNL d   1      33.086  17.878 -23.339  0.00  0.00     0.103 A 
ATOM     13  N   UNL d   1      33.026  17.105 -23.054  0.00  0.00    -0.148 N 
ATOM     14  C   UNL d   1      33.185  18.062 -24.167  0.00  0.00     0.021 A 
ATOM     15  C   UNL d   1      33.241  18.839 -24.416  0.00  0.00     0.002 A 
ATOM     16  C   UNL d   1      33.200  19.437 -23.856  0.00  0.00     0.002 A 
ENDBRANCH   1  10
TORSDOF 1
ENDMDL
MODEL 5
REMARK VINA RESULT:      -2.4      1.320      3.647
REMARK  1 active torsions:
REMARK  status: ('A' for Active; 'I' for Inactive)
REMARK    1  A    between atoms: C_6  and  C_1 
ROOT
ATOM      1  C   UNL d   1      31.939  17.529 -24.080  0.00  0.00     0.111 A 
ATOM      2  N   UNL d   1      32.176  17.777 -23.329  0.00  0.00    -0.239 NA
ATOM      3  S   UNL d   1      32.164  18.107 -24.636  0.00  0.00    -0.066 SA
ATOM      4  C   UNL d   1      32.548  18.505 -23.418  0.00  0.00     0.088 A 
ATOM      5  C   UNL d   1      32.540  18.708 -24.217  0.00  0.00     0.049 A 
ATOM      6  C   UNL d   1      32.898  19.021 -22.865  0.00  0.00     0.020 A 
ATOM      7  C   UNL d   1      32.883  19.425 -24.460  0.00  0.00     0.008 A 
ATOM      8  C   UNL d   1      33.233  19.942 -23.912  0.00  0.00     0.001 A 
ATOM      9  C   UNL d   1      33.241  19.739 -23.112  0.00  0.00     0.002 A 
ENDROOT
BRANCH   1  10
ATOM     10  C   UNL d   1      31.553  16.857 -24.303  0.00  0.00     0.025 A 
ATOM     11  C   UNL d   1      30.718  16.760 -24.203  0.00  0.00     0.023 A 
ATOM     12  C   UNL d   1      30.341  16.085 -24.429  0.00  0.00     0.103 A 
ATOM     13  N   UNL d   1      29.525  16.036 -24.311  0.00  0.00    -0.148 N 
ATOM     14  C   UNL d   1      30.799  15.454 -24.777  0.00  0.00     0.021 A 
ATOM     15  C   UNL d   1      31.606  15.535 -24.879  0.00  0.00     0.002 A 
ATOM     16  C   UNL d   1      31.967  16.232 -24.641  0.00  0.00     0.002 A 
ENDBRANCH   1  10
TORSDOF 1
ENDMDL
MODEL 6
REMARK VINA RESULT:      -2.2      1.288      3.558
REMARK  1 active torsions:
REMARK  status: ('A' for Active; 'I' for Inactive)
REMARK    1  A    between atoms: C_6  and  C_1 
ROOT
ATOM      1  C   UNL d   1      30.514  16.140 -23.952  0.00  0.00     0.111 A 
ATOM      2  N   UNL d   1      31.030  15.842 -23.382  0.00  0.00    -0.239 NA
ATOM      3  S   UNL d   1      30.961  16.500 -24.556  0.00  0.00    -0.066 SA
ATOM      4  C   UNL d   1      31.795  16.015 -23.629  0.00  0.00     0.088 A 
ATOM      5  C   UNL d   1      31.753  16.417 -24.348  0.00  0.00     0.049 A 
ATOM      6  C   UNL d   1      32.539  15.856 -23.289  0.00  0.00     0.020 A 
ATOM      7  C   UNL d   1      32.455  16.658 -24.722  0.00  0.00     0.008 A 
ATOM      8  C   UNL d   1      33.198  16.501 -24.386  0.00  0.00     0.001 A 
ATOM      9  C   UNL d   1      33.240  16.099 -23.667  0.00  0.00     0.002 A 
ENDROOT
BRANCH   1  10
ATOM     10  C   UNL d   1      29.708  16.120 -23.979  0.00  0.00     0.025 A 
ATOM     11  C   UNL d   1      29.228  16.721 -23.624  0.00  0.00     0.023 A 
ATOM     12  C   UNL d   1      28.424  16.693 -23.656  0.00  0.00     0.103 A 
ATOM     13  N   UNL d   1      27.998  17.301 -23.295  0.00  0.00    -0.148 N 
ATOM     14  C   UNL d   1      28.051  16.039 -24.059  0.00  0.00     0.021 A 
ATOM     15  C   UNL d   1      28.503  15.453 -24.406  0.00  0.00     0.002 A 
ATOM     16  C   UNL d   1      29.320  15.504 -24.360  0.00  0.00     0.002 A 
ENDBRANCH   1  10
TORSDOF 1
ENDMDL
MODEL 7
REMARK VINA RESULT:      -1.3      1.920      2.861
REMARK  1 active torsions:
REMARK  status: ('A' for Active; 'I' for Inactive)
REMARK    1  A    between atoms: C_6  and  C_1 
ROOT
ATOM      1  C   UNL d   1      32.760  18.242 -23.223  0.00  0.00     0.111 A 
ATOM      2  N   UNL d   1      33.224  17.570 -23.099  0.00  0.00    -0.239 NA
ATOM      3  S   UNL d   1      32.051  18.012 -23.594  0.00  0.00    -0.066 SA
ATOM      4  C   UNL d   1      32.805  16.926 -23.391  0.00  0.00     0.088 A 
ATOM      5  C   UNL d   1      32.086  17.196 -23.694  0.00  0.00     0.049 A 
ATOM      6  C   UNL d   1      32.985  16.113 -23.421  0.00  0.00     0.020 A 
ATOM      7  C   UNL d   1      31.553  16.652 -24.026  0.00  0.00     0.008 A 
ATOM      8  C   UNL d   1      31.730  15.841 -24.058  0.00  0.00     0.001 A 
ATOM      9  C   UNL d   1      32.448  15.570 -23.755  0.00  0.00     0.002 A 
ENDROOT
BRANCH   1  10
ATOM     10  C   UNL d   1      32.911  19.013 -23.041  0.00  0.00     0.025 A 
ATOM     11  C   UNL d   1      32.899  19.301 -22.245  0.00  0.00     0.023 A 
ATOM     12  C   UNL d   1      33.051  20.073 -22.073  0.00  0.00     0.103 A 
ATOM     13  N   UNL d   1      33.028  20.307 -21.281  0.00  0.00    -0.148 N 
ATOM     14  C   UNL d   1      33.227  20.611 -22.712  0.00  0.00     0.021 A 
ATOM     15  C   UNL d   1      33.241  20.345 -23.485  0.00  0.00     0.002 A 
ATOM     16  C   UNL d   1      33.083  19.554 -23.635  0.00  0.00     0.002 A 
ENDBRANCH   1  10
TORSDOF 1
ENDMDL
