MODEL 1
REMARK VINA RESULT:      43.7      0.000      0.000
REMARK  2 active torsions:
REMARK  status: ('A' for Active; 'I' for Inactive)
REMARK       I    between atoms: N_2  and  C_1 
REMARK    1  A    between atoms: C_3  and  C_1 
REMARK    2  A    between atoms: C_4  and  N_2 
ROOT
ATOM      1  C   UNL d   1      13.979  13.064  -2.689  0.00  0.00     0.059 A 
ATOM      2  C   UNL d   1      14.411  13.416  -2.083  0.00  0.00     0.025 A 
ATOM      3  C   UNL d   1      14.576  12.987  -1.388  0.00  0.00     0.099 A 
ATOM      4  N   UNL d   1      15.009  13.339  -0.778  0.00  0.00    -0.241 NA
ATOM      5  N   UNL d   1      14.462  11.780  -0.628  0.00  0.00    -0.241 NA
ATOM      6  C   UNL d   1      14.306  12.212  -1.307  0.00  0.00     0.099 A 
ATOM      7  C   UNL d   1      13.708  12.285  -2.609  0.00  0.00     0.006 A 
ATOM      8  C   UNL d   1      13.870  11.860  -1.922  0.00  0.00     0.021 A 
ATOM      9  C   UNL d   1      15.169  12.907  -0.090  0.00  0.00     0.120 A 
ATOM     10  C   UNL d   1      14.897  12.132  -0.015  0.00  0.00     0.120 A 
ENDROOT
BRANCH   1  11
ATOM     11  C   UNL d   1      13.817  13.489  -3.376  0.00  0.00     0.281 C 
ATOM     12  N   UNL d   1      13.830  14.314  -3.365  0.00  0.00    -0.189 NA
ATOM     13  O   UNL d   1      13.641  13.088  -4.074  0.00  0.00    -0.265 OA
BRANCH  12  14
ATOM     14  C   UNL d   1      13.668  14.737  -4.052  0.00  0.00     0.166 A 
ATOM     15  N   UNL d   1      12.937  14.646  -4.425  0.00  0.00    -0.225 NA
ATOM     16  C   UNL d   1      12.773  15.071  -5.115  0.00  0.00     0.107 A 
ATOM     17  C   UNL d   1      13.339  15.583  -5.428  0.00  0.00     0.054 A 
ATOM     18  C   UNL d   1      14.070  15.671  -5.050  0.00  0.00     0.011 A 
ATOM     19 BR   UNL d   1      13.177  16.008  -6.115  0.00  0.00    -0.048 Br
ATOM     20  C   UNL d   1      14.231  15.247  -4.363  0.00  0.00     0.039 A 
ENDBRANCH  12  14
ENDBRANCH   1  11
TORSDOF 2
ENDMDL
MODEL 2
REMARK VINA RESULT:      44.2      2.443      3.680
REMARK  2 active torsions:
REMARK  status: ('A' for Active; 'I' for Inactive)
REMARK       I    between atoms: N_2  and  C_1 
REMARK    1  A    between atoms: C_3  and  C_1 
REMARK    2  A    between atoms: C_4  and  N_2 
ROOT
ATOM      1  C   UNL d   1      14.085  13.349  -2.514  0.00  0.00     0.059 A 
ATOM      2  C   UNL d   1      13.870  13.609  -3.266  0.00  0.00     0.025 A 
ATOM      3  C   UNL d   1      13.500  13.084  -3.796  0.00  0.00     0.099 A 
ATOM      4  N   UNL d   1      13.283  13.343  -4.550  0.00  0.00    -0.241 NA
ATOM      5  N   UNL d   1      12.987  11.779  -4.083  0.00  0.00    -0.241 NA
ATOM      6  C   UNL d   1      13.350  12.305  -3.569  0.00  0.00     0.099 A 
ATOM      7  C   UNL d   1      13.935  12.567  -2.286  0.00  0.00     0.006 A 
ATOM      8  C   UNL d   1      13.569  12.047  -2.810  0.00  0.00     0.021 A 
ATOM      9  C   UNL d   1      12.916  12.816  -5.072  0.00  0.00     0.120 A 
ATOM     10  C   UNL d   1      12.769  12.038  -4.841  0.00  0.00     0.120 A 
ENDROOT
BRANCH   1  11
ATOM     11  C   UNL d   1      14.450  13.869  -1.991  0.00  0.00     0.281 C 
ATOM     12  N   UNL d   1      14.409  14.683  -2.119  0.00  0.00    -0.189 NA
ATOM     13  O   UNL d   1      14.858  13.574  -1.338  0.00  0.00    -0.265 OA
BRANCH  12  14
ATOM     14  C   UNL d   1      14.775  15.202  -1.594  0.00  0.00     0.166 A 
ATOM     15  N   UNL d   1      14.969  14.945  -0.835  0.00  0.00    -0.225 NA
ATOM     16  C   UNL d   1      15.336  15.466  -0.307  0.00  0.00     0.107 A 
ATOM     17  C   UNL d   1      15.507  16.238  -0.542  0.00  0.00     0.054 A 
ATOM     18  C   UNL d   1      15.310  16.490  -1.305  0.00  0.00     0.011 A 
ATOM     19 BR   UNL d   1      15.873  16.758  -0.018  0.00  0.00    -0.048 Br
ATOM     20  C   UNL d   1      14.944  15.971  -1.828  0.00  0.00     0.039 A 
ENDBRANCH  12  14
ENDBRANCH   1  11
TORSDOF 2
ENDMDL
MODEL 3
REMARK VINA RESULT:      45.6      2.242      3.106
REMARK  2 active torsions:
REMARK  status: ('A' for Active; 'I' for Inactive)
REMARK       I    between atoms: N_2  and  C_1 
REMARK    1  A    between atoms: C_3  and  C_1 
REMARK    2  A    between atoms: C_4  and  N_2 
ROOT
ATOM      1  C   UNL d   1      14.442  15.214  -2.654  0.00  0.00     0.059 A 
ATOM      2  C   UNL d   1      14.636  14.957  -1.896  0.00  0.00     0.025 A 
ATOM      3  C   UNL d   1      14.926  15.500  -1.335  0.00  0.00     0.099 A 
ATOM      4  N   UNL d   1      15.120  15.243  -0.573  0.00  0.00    -0.241 NA
ATOM      5  N   UNL d   1      15.304  16.837  -0.994  0.00  0.00    -0.241 NA
ATOM      6  C   UNL d   1      15.019  16.294  -1.538  0.00  0.00     0.099 A 
ATOM      7  C   UNL d   1      14.536  16.012  -2.859  0.00  0.00     0.006 A 
ATOM      8  C   UNL d   1      14.823  16.550  -2.304  0.00  0.00     0.021 A 
ATOM      9  C   UNL d   1      15.408  15.788  -0.021  0.00  0.00     0.120 A 
ATOM     10  C   UNL d   1      15.500  16.581  -0.229  0.00  0.00     0.120 A 
ENDROOT
BRANCH   1  11
ATOM     11  C   UNL d   1      14.156  14.677  -3.208  0.00  0.00     0.281 C 
ATOM     12  N   UNL d   1      13.917  13.924  -2.969  0.00  0.00    -0.189 NA
ATOM     13  O   UNL d   1      14.108  14.893  -4.002  0.00  0.00    -0.265 OA
BRANCH  12  14
ATOM     14  C   UNL d   1      13.630  13.388  -3.524  0.00  0.00     0.166 A 
ATOM     15  N   UNL d   1      13.210  13.663  -4.179  0.00  0.00    -0.225 NA
ATOM     16  C   UNL d   1      12.922  13.125  -4.737  0.00  0.00     0.107 A 
ATOM     17  C   UNL d   1      13.055  12.317  -4.637  0.00  0.00     0.054 A 
ATOM     18  C   UNL d   1      13.477  12.046  -3.979  0.00  0.00     0.011 A 
ATOM     19 BR   UNL d   1      12.769  11.779  -5.192  0.00  0.00    -0.048 Br
ATOM     20  C   UNL d   1      13.763  12.584  -3.425  0.00  0.00     0.039 A 
ENDBRANCH  12  14
ENDBRANCH   1  11
TORSDOF 2
ENDMDL
