MODEL 1
REMARK VINA RESULT:      43.0      0.000      0.000
REMARK  5 active torsions:
REMARK  status: ('A' for Active; 'I' for Inactive)
REMARK    1  A    between atoms: C_10  and  C_4 
REMARK    2  A    between atoms: C_19  and  N_5 
REMARK       I    between atoms: N_11  and  C_10 
REMARK    3  A    between atoms: C_22  and  C_19 
REMARK    4  A    between atoms: C_26  and  C_22 
REMARK    5  A    between atoms: O_23  and  C_26 
ROOT
ATOM      1  C   UNL d   1      46.374 -18.116  42.383  0.00  0.00     0.154 A 
ATOM      2  C   UNL d   1      46.248 -17.645  41.717  0.00  0.00     0.093 A 
ATOM      3  N   UNL d   1      46.503 -18.909  42.302  0.00  0.00    -0.210 NA
ATOM      4  C   UNL d   1      46.242 -17.014  43.188  0.00  0.00     0.122 A 
ATOM      5  N   UNL d   1      46.370 -17.801  43.111  0.00  0.00    -0.286 N 
ATOM      6  C   UNL d   1      46.251 -17.961  40.975  0.00  0.00     0.269 A 
ATOM      7  N   UNL d   1      46.381 -18.758  40.905  0.00  0.00    -0.258 N 
ATOM      8  C   UNL d   1      46.507 -19.229  41.571  0.00  0.00     0.152 A 
ATOM      9  C   UNL d   1      46.118 -16.551  42.533  0.00  0.00     0.030 A 
ATOM     10  C   UNL d   1      46.383 -19.067  40.162  0.00  0.00     0.084 A 
ATOM     11  O   UNL d   1      46.124 -17.490  40.310  0.00  0.00    -0.266 OA
ATOM     12  C   UNL d   1      46.635 -20.009  41.493  0.00  0.00     0.038 A 
ATOM     13  C   UNL d   1      46.514 -19.859  40.101  0.00  0.00     0.019 A 
ATOM     14  C   UNL d   1      46.640 -20.330  40.766  0.00  0.00     0.005 A 
ENDROOT
BRANCH   4  15
ATOM     15  C   UNL d   1      46.238 -16.692  43.935  0.00  0.00     0.281 C 
ATOM     16  N   UNL d   1      45.868 -15.953  44.056  0.00  0.00    -0.267 N 
ATOM     17  C   UNL d   1      45.863 -15.619  44.823  0.00  0.00     0.110 A 
ATOM     18  C   UNL d   1      45.508 -15.554  43.414  0.00  0.00     0.110 A 
ATOM     19  C   UNL d   1      45.493 -14.878  44.949  0.00  0.00     0.142 A 
ATOM     20  O   UNL d   1      45.131 -14.473  44.312  0.00  0.00    -0.300 OA
ATOM     21  C   UNL d   1      45.139 -14.812  43.545  0.00  0.00     0.142 A 
ATOM     22  O   UNL d   1      46.595 -17.093  44.557  0.00  0.00    -0.265 OA
ENDBRANCH   4  15
BRANCH   5  23
ATOM     23  C   UNL d   1      46.499 -18.284  43.778  0.00  0.00     0.084 C 
BRANCH  23  24
ATOM     24  C   UNL d   1      45.959 -18.887  43.968  0.00  0.00     0.045 C 
BRANCH  24  25
ATOM     25  C   UNL d   1      46.162 -19.455  44.543  0.00  0.00     0.118 C 
BRANCH  25  26
ATOM     26  O   UNL d   1      45.580 -19.976  44.827  0.00  0.00    -0.326 OA
ATOM     27  C   UNL d   1      44.984 -20.259  44.310  0.00  0.00     0.181 C 
ENDBRANCH  25  26
ENDBRANCH  24  25
ENDBRANCH  23  24
ENDBRANCH   5  23
TORSDOF 5
ENDMDL
