MODEL 1
REMARK VINA RESULT:      26.7      0.000      0.000
REMARK  5 active torsions:
REMARK  status: ('A' for Active; 'I' for Inactive)
REMARK    1  A    between atoms: C_14  and  N_1 
REMARK    2  A    between atoms: C_13  and  C_3 
REMARK    3  A    between atoms: C_4  and  S_11 
REMARK    4  A    between atoms: S_11  and  C_13 
REMARK    5  A    between atoms: C_15  and  C_14 
ROOT
ATOM      1  S   UNL d   1      13.355  11.822  -3.505  0.00  0.00    -0.058 SA
ENDROOT
BRANCH   1   2
ATOM      2  C   UNL d   1      13.563  11.815  -2.716  0.00  0.00     0.141 A 
ATOM      3  N   UNL d   1      14.338  11.825  -2.426  0.00  0.00    -0.232 NA
ATOM      4  C   UNL d   1      14.295  11.813  -1.608  0.00  0.00     0.088 A 
ATOM      5  C   UNL d   1      14.864  11.815  -1.015  0.00  0.00     0.020 A 
ATOM      6  C   UNL d   1      13.495  11.795  -1.397  0.00  0.00     0.049 A 
ATOM      7  C   UNL d   1      14.656  11.800  -0.235  0.00  0.00     0.002 A 
ATOM      8  C   UNL d   1      13.857  11.782  -0.024  0.00  0.00     0.001 A 
ATOM      9  C   UNL d   1      13.271  11.779  -0.596  0.00  0.00     0.008 A 
ATOM     10  S   UNL d   1      13.056  11.796  -2.088  0.00  0.00    -0.060 SA
ENDBRANCH   1   2
BRANCH   1  11
ATOM     11  C   UNL d   1      13.000  12.499  -3.825  0.00  0.00     0.077 C 
BRANCH  11  12
ATOM     12  C   UNL d   1      13.137  12.692  -4.611  0.00  0.00     0.178 A 
ATOM     13  N   UNL d   1      13.177  13.467  -4.826  0.00  0.00    -0.264 N 
ATOM     14  C   UNL d   1      13.318  13.485  -5.639  0.00  0.00     0.227 A 
ATOM     15  N   UNL d   1      13.359  12.728  -5.889  0.00  0.00    -0.117 NA
ATOM     16  S   UNL d   1      13.410  14.179  -6.153  0.00  0.00    -0.036 SA
ATOM     17  N   UNL d   1      13.251  12.240  -5.278  0.00  0.00    -0.127 NA
BRANCH  13  18
ATOM     18  C   UNL d   1      13.094  14.166  -4.337  0.00  0.00     0.084 C 
BRANCH  18  19
ATOM     19  C   UNL d   1      13.594  14.817  -4.479  0.00  0.00     0.019 C 
ATOM     20  C   UNL d   1      13.668  15.417  -3.905  0.00  0.00     0.002 C 
ENDBRANCH  18  19
ENDBRANCH  13  18
ENDBRANCH  11  12
ENDBRANCH   1  11
TORSDOF 5
ENDMDL
