MODEL 1
REMARK VINA RESULT:      -7.6      0.000      0.000
REMARK  3 active torsions:
REMARK  status: ('A' for Active; 'I' for Inactive)
REMARK    1  A    between atoms: S_11  and  C_7 
REMARK    2  A    between atoms: C_12  and  S_11 
REMARK    3  A    between atoms: C_14  and  C_12 
ROOT
ATOM      1  N   UNL d   1     -46.424  12.283  23.213  0.00  0.00    -0.167 N 
ATOM      2  C   UNL d   1     -45.911  12.845  22.908  0.00  0.00     0.220 A 
ATOM      3  C   UNL d   1     -46.158  11.519  23.394  0.00  0.00     0.301 A 
ATOM      4  S   UNL d   1     -46.343  13.540  22.789  0.00  0.00    -0.019 SA
ATOM      5  N   UNL d   1     -47.167  12.618  23.285  0.00  0.00    -0.147 NA
ATOM      6  N   UNL d   1     -45.120  12.656  22.778  0.00  0.00    -0.121 NA
ATOM      7  C   UNL d   1     -47.117  13.396  23.022  0.00  0.00     0.163 A 
ATOM      8  N   UNL d   1     -44.843  11.902  22.954  0.00  0.00    -0.141 NA
ATOM      9  C   UNL d   1     -45.360  11.337  23.260  0.00  0.00     0.161 A 
ATOM     10  O   UNL d   1     -46.670  10.959  23.698  0.00  0.00    -0.263 OA
ATOM     11  C   UNL d   1     -45.086  10.581  23.437  0.00  0.00     0.028 C 
ENDROOT
BRANCH   7  12
ATOM     12  S   UNL d   1     -47.736  13.941  22.997  0.00  0.00    -0.059 SA
BRANCH  12  13
ATOM     13  C   UNL d   1     -48.268  13.936  22.372  0.00  0.00     0.037 C 
BRANCH  13  14
ATOM     14  C   UNL d   1     -48.972  14.367  22.430  0.00  0.00     0.006 A 
ATOM     15  C   UNL d   1     -49.671  14.057  22.121  0.00  0.00     0.001 A 
ATOM     16  C   UNL d   1     -50.373  14.476  22.174  0.00  0.00     0.000 A 
ATOM     17  C   UNL d   1     -51.064  14.168  21.869  0.00  0.00     0.000 C 
ATOM     18  C   UNL d   1     -50.382  15.218  22.539  0.00  0.00     0.000 A 
ATOM     19  C   UNL d   1     -49.686  15.533  22.849  0.00  0.00     0.000 A 
ATOM     20  C   UNL d   1     -48.981  15.110  22.795  0.00  0.00     0.001 A 
ENDBRANCH  13  14
ENDBRANCH  12  13
ENDBRANCH   7  12
TORSDOF 3
ENDMDL
MODEL 2
REMARK VINA RESULT:      -7.4      1.652      1.925
REMARK  3 active torsions:
REMARK  status: ('A' for Active; 'I' for Inactive)
REMARK    1  A    between atoms: S_11  and  C_7 
REMARK    2  A    between atoms: C_12  and  S_11 
REMARK    3  A    between atoms: C_14  and  C_12 
ROOT
ATOM      1  N   UNL d   1     -45.980  11.260  23.385  0.00  0.00    -0.167 N 
ATOM      2  C   UNL d   1     -45.866  12.034  23.138  0.00  0.00     0.220 A 
ATOM      3  C   UNL d   1     -45.341  10.735  23.447  0.00  0.00     0.301 A 
ATOM      4  S   UNL d   1     -46.603  12.407  23.136  0.00  0.00    -0.019 SA
ATOM      5  N   UNL d   1     -46.776  11.147  23.536  0.00  0.00    -0.147 NA
ATOM      6  N   UNL d   1     -45.110  12.299  22.948  0.00  0.00    -0.121 NA
ATOM      7  C   UNL d   1     -47.162  11.858  23.382  0.00  0.00     0.163 A 
ATOM      8  N   UNL d   1     -44.468  11.790  23.004  0.00  0.00    -0.141 NA
ATOM      9  C   UNL d   1     -44.583  11.012  23.252  0.00  0.00     0.161 A 
ATOM     10  O   UNL d   1     -45.455   9.964  23.692  0.00  0.00    -0.263 OA
ATOM     11  C   UNL d   1     -43.942  10.498  23.311  0.00  0.00     0.028 C 
ENDROOT
BRANCH   7  12
ATOM     12  S   UNL d   1     -47.972  11.997  23.460  0.00  0.00    -0.059 SA
BRANCH  12  13
ATOM     13  C   UNL d   1     -48.502  11.682  22.918  0.00  0.00     0.037 C 
BRANCH  13  14
ATOM     14  C   UNL d   1     -49.297  11.910  22.943  0.00  0.00     0.006 A 
ATOM     15  C   UNL d   1     -49.625  12.328  22.312  0.00  0.00     0.001 A 
ATOM     16  C   UNL d   1     -50.411  12.558  22.328  0.00  0.00     0.000 A 
ATOM     17  C   UNL d   1     -50.734  12.972  21.703  0.00  0.00     0.000 C 
ATOM     18  C   UNL d   1     -50.882  12.370  22.981  0.00  0.00     0.000 A 
ATOM     19  C   UNL d   1     -50.559  11.952  23.615  0.00  0.00     0.000 A 
ATOM     20  C   UNL d   1     -49.768  11.722  23.597  0.00  0.00     0.001 A 
ENDBRANCH  13  14
ENDBRANCH  12  13
ENDBRANCH   7  12
TORSDOF 3
ENDMDL
MODEL 3
REMARK VINA RESULT:      -7.1      1.076      1.193
REMARK  3 active torsions:
REMARK  status: ('A' for Active; 'I' for Inactive)
REMARK    1  A    between atoms: S_11  and  C_7 
REMARK    2  A    between atoms: C_12  and  S_11 
REMARK    3  A    between atoms: C_14  and  C_12 
ROOT
ATOM      1  N   UNL d   1     -45.812  12.910  22.674  0.00  0.00    -0.167 N 
ATOM      2  C   UNL d   1     -46.205  12.447  23.226  0.00  0.00     0.220 A 
ATOM      3  C   UNL d   1     -45.046  12.713  22.424  0.00  0.00     0.301 A 
ATOM      4  S   UNL d   1     -46.947  12.789  23.355  0.00  0.00    -0.019 SA
ATOM      5  N   UNL d   1     -46.298  13.532  22.459  0.00  0.00    -0.147 NA
ATOM      6  N   UNL d   1     -45.841  11.779  23.539  0.00  0.00    -0.121 NA
ATOM      7  C   UNL d   1     -47.001  13.457  22.881  0.00  0.00     0.163 A 
ATOM      8  N   UNL d   1     -45.083  11.572  23.300  0.00  0.00    -0.141 NA
ATOM      9  C   UNL d   1     -44.687  12.037  22.745  0.00  0.00     0.161 A 
ATOM     10  O   UNL d   1     -44.655  13.174  21.874  0.00  0.00    -0.263 OA
ATOM     11  C   UNL d   1     -43.927  11.834  22.502  0.00  0.00     0.028 C 
ENDROOT
BRANCH   7  12
ATOM     12  S   UNL d   1     -47.649  13.965  22.837  0.00  0.00    -0.059 SA
BRANCH  12  13
ATOM     13  C   UNL d   1     -48.400  13.668  22.691  0.00  0.00     0.037 C 
BRANCH  13  14
ATOM     14  C   UNL d   1     -49.045  14.186  22.649  0.00  0.00     0.006 A 
ATOM     15  C   UNL d   1     -49.726  13.962  22.241  0.00  0.00     0.001 A 
ATOM     16  C   UNL d   1     -50.368  14.468  22.194  0.00  0.00     0.000 A 
ATOM     17  C   UNL d   1     -51.043  14.246  21.790  0.00  0.00     0.000 C 
ATOM     18  C   UNL d   1     -50.336  15.210  22.558  0.00  0.00     0.000 A 
ATOM     19  C   UNL d   1     -49.657  15.438  22.967  0.00  0.00     0.000 A 
ATOM     20  C   UNL d   1     -49.011  14.928  23.013  0.00  0.00     0.001 A 
ENDBRANCH  13  14
ENDBRANCH  12  13
ENDBRANCH   7  12
TORSDOF 3
ENDMDL
MODEL 4
REMARK VINA RESULT:      -6.6      2.216      4.841
REMARK  3 active torsions:
REMARK  status: ('A' for Active; 'I' for Inactive)
REMARK    1  A    between atoms: S_11  and  C_7 
REMARK    2  A    between atoms: C_12  and  S_11 
REMARK    3  A    between atoms: C_14  and  C_12 
ROOT
ATOM      1  N   UNL d   1     -49.389  14.490  23.191  0.00  0.00    -0.167 N 
ATOM      2  C   UNL d   1     -49.728  13.753  23.305  0.00  0.00     0.220 A 
ATOM      3  C   UNL d   1     -49.828  15.183  23.311  0.00  0.00     0.301 A 
ATOM      4  S   UNL d   1     -49.151  13.184  23.142  0.00  0.00    -0.019 SA
ATOM      5  N   UNL d   1     -48.610  14.388  22.960  0.00  0.00    -0.147 NA
ATOM      6  N   UNL d   1     -50.515  13.692  23.542  0.00  0.00    -0.121 NA
ATOM      7  C   UNL d   1     -48.464  13.579  22.929  0.00  0.00     0.163 A 
ATOM      8  N   UNL d   1     -50.961  14.371  23.664  0.00  0.00    -0.141 NA
ATOM      9  C   UNL d   1     -50.620  15.113  23.549  0.00  0.00     0.161 A 
ATOM     10  O   UNL d   1     -49.489  15.918  23.197  0.00  0.00    -0.263 OA
ATOM     11  C   UNL d   1     -51.063  15.795  23.671  0.00  0.00     0.028 C 
ENDROOT
BRANCH   7  12
ATOM     12  S   UNL d   1     -47.749  13.223  22.721  0.00  0.00    -0.059 SA
BRANCH  12  13
ATOM     13  C   UNL d   1     -47.079  13.334  23.183  0.00  0.00     0.037 C 
BRANCH  13  14
ATOM     14  C   UNL d   1     -46.373  12.953  22.979  0.00  0.00     0.006 A 
ATOM     15  C   UNL d   1     -46.203  12.209  23.290  0.00  0.00     0.001 A 
ATOM     16  C   UNL d   1     -45.507  11.824  23.094  0.00  0.00     0.000 A 
ATOM     17  C   UNL d   1     -45.339  11.087  23.403  0.00  0.00     0.000 C 
ATOM     18  C   UNL d   1     -44.969  12.184  22.579  0.00  0.00     0.000 A 
ATOM     19  C   UNL d   1     -45.134  12.928  22.265  0.00  0.00     0.000 A 
ATOM     20  C   UNL d   1     -45.835  13.314  22.464  0.00  0.00     0.001 A 
ENDBRANCH  13  14
ENDBRANCH  12  13
ENDBRANCH   7  12
TORSDOF 3
ENDMDL
MODEL 5
REMARK VINA RESULT:      -5.8      8.495      9.383
REMARK  3 active torsions:
REMARK  status: ('A' for Active; 'I' for Inactive)
REMARK    1  A    between atoms: S_11  and  C_7 
REMARK    2  A    between atoms: C_12  and  S_11 
REMARK    3  A    between atoms: C_14  and  C_12 
ROOT
ATOM      1  N   UNL d   1     -40.074  15.023  18.804  0.00  0.00    -0.167 N 
ATOM      2  C   UNL d   1     -40.575  14.396  18.972  0.00  0.00     0.220 A 
ATOM      3  C   UNL d   1     -39.982  15.297  18.027  0.00  0.00     0.301 A 
ATOM      4  S   UNL d   1     -40.542  14.261  19.786  0.00  0.00    -0.019 SA
ATOM      5  N   UNL d   1     -39.730  15.279  19.501  0.00  0.00    -0.147 NA
ATOM      6  N   UNL d   1     -40.995  14.030  18.366  0.00  0.00    -0.121 NA
ATOM      7  C   UNL d   1     -40.020  14.807  20.110  0.00  0.00     0.163 A 
ATOM      8  N   UNL d   1     -40.914  14.291  17.591  0.00  0.00    -0.141 NA
ATOM      9  C   UNL d   1     -40.410  14.922  17.423  0.00  0.00     0.161 A 
ATOM     10  O   UNL d   1     -39.483  15.922  17.859  0.00  0.00    -0.263 OA
ATOM     11  C   UNL d   1     -40.325  15.187  16.648  0.00  0.00     0.028 C 
ENDROOT
BRANCH   7  12
ATOM     12  S   UNL d   1     -39.823  14.869  20.908  0.00  0.00    -0.059 SA
BRANCH  12  13
ATOM     13  C   UNL d   1     -39.163  14.482  21.205  0.00  0.00     0.037 C 
BRANCH  13  14
ATOM     14  C   UNL d   1     -38.992  14.523  22.013  0.00  0.00     0.006 A 
ATOM     15  C   UNL d   1     -38.889  13.830  22.448  0.00  0.00     0.001 A 
ATOM     16  C   UNL d   1     -38.720  13.861  23.249  0.00  0.00     0.000 A 
ATOM     17  C   UNL d   1     -38.617  13.173  23.678  0.00  0.00     0.000 C 
ATOM     18  C   UNL d   1     -38.652  14.593  23.627  0.00  0.00     0.000 A 
ATOM     19  C   UNL d   1     -38.755  15.289  23.197  0.00  0.00     0.000 A 
ATOM     20  C   UNL d   1     -38.925  15.256  22.392  0.00  0.00     0.001 A 
ENDBRANCH  13  14
ENDBRANCH  12  13
ENDBRANCH   7  12
TORSDOF 3
ENDMDL
MODEL 6
REMARK VINA RESULT:      -5.3      2.068      4.893
REMARK  3 active torsions:
REMARK  status: ('A' for Active; 'I' for Inactive)
REMARK    1  A    between atoms: S_11  and  C_7 
REMARK    2  A    between atoms: C_12  and  S_11 
REMARK    3  A    between atoms: C_14  and  C_12 
ROOT
ATOM      1  N   UNL d   1     -49.441  13.305  22.493  0.00  0.00    -0.167 N 
ATOM      2  C   UNL d   1     -49.763  13.071  23.210  0.00  0.00     0.220 A 
ATOM      3  C   UNL d   1     -49.855  13.816  21.988  0.00  0.00     0.301 A 
ATOM      4  S   UNL d   1     -49.219  12.568  23.576  0.00  0.00    -0.019 SA
ATOM      5  N   UNL d   1     -48.706  12.956  22.409  0.00  0.00    -0.147 NA
ATOM      6  N   UNL d   1     -50.506  13.343  23.437  0.00  0.00    -0.121 NA
ATOM      7  C   UNL d   1     -48.569  12.499  23.080  0.00  0.00     0.163 A 
ATOM      8  N   UNL d   1     -50.928  13.850  22.947  0.00  0.00    -0.141 NA
ATOM      9  C   UNL d   1     -50.604  14.085  22.226  0.00  0.00     0.161 A 
ATOM     10  O   UNL d   1     -49.534  14.049  21.274  0.00  0.00    -0.263 OA
ATOM     11  C   UNL d   1     -51.022  14.593  21.731  0.00  0.00     0.028 C 
ENDROOT
BRANCH   7  12
ATOM     12  S   UNL d   1     -47.894  12.049  23.230  0.00  0.00    -0.059 SA
BRANCH  12  13
ATOM     13  C   UNL d   1     -47.163  12.412  23.319  0.00  0.00     0.037 C 
BRANCH  13  14
ATOM     14  C   UNL d   1     -46.475  11.952  23.320  0.00  0.00     0.006 A 
ATOM     15  C   UNL d   1     -45.796  12.229  22.942  0.00  0.00     0.001 A 
ATOM     16  C   UNL d   1     -45.110  11.780  22.938  0.00  0.00     0.000 A 
ATOM     17  C   UNL d   1     -44.438  12.055  22.563  0.00  0.00     0.000 C 
ATOM     18  C   UNL d   1     -45.096  11.045  23.315  0.00  0.00     0.000 A 
ATOM     19  C   UNL d   1     -45.773  10.765  23.695  0.00  0.00     0.000 A 
ATOM     20  C   UNL d   1     -46.461  11.217  23.698  0.00  0.00     0.001 A 
ENDBRANCH  13  14
ENDBRANCH  12  13
ENDBRANCH   7  12
TORSDOF 3
ENDMDL
MODEL 7
REMARK VINA RESULT:      -5.3      8.840     10.198
REMARK  3 active torsions:
REMARK  status: ('A' for Active; 'I' for Inactive)
REMARK    1  A    between atoms: S_11  and  C_7 
REMARK    2  A    between atoms: C_12  and  S_11 
REMARK    3  A    between atoms: C_14  and  C_12 
ROOT
ATOM      1  N   UNL d   1     -38.462  14.600  16.961  0.00  0.00    -0.167 N 
ATOM      2  C   UNL d   1     -38.425  15.387  16.732  0.00  0.00     0.220 A 
ATOM      3  C   UNL d   1     -38.301  13.992  16.421  0.00  0.00     0.301 A 
ATOM      4  S   UNL d   1     -38.613  15.848  17.392  0.00  0.00    -0.019 SA
ATOM      5  N   UNL d   1     -38.670  14.566  17.752  0.00  0.00    -0.147 NA
ATOM      6  N   UNL d   1     -38.226  15.582  15.958  0.00  0.00    -0.121 NA
ATOM      7  C   UNL d   1     -38.764  15.339  18.018  0.00  0.00     0.163 A 
ATOM      8  N   UNL d   1     -38.064  14.991  15.412  0.00  0.00    -0.141 NA
ATOM      9  C   UNL d   1     -38.101  14.199  15.642  0.00  0.00     0.161 A 
ATOM     10  O   UNL d   1     -38.338  13.209  16.649  0.00  0.00    -0.263 OA
ATOM     11  C   UNL d   1     -37.940  13.603  15.098  0.00  0.00     0.028 C 
ENDROOT
BRANCH   7  12
ATOM     12  S   UNL d   1     -38.973  15.567  18.783  0.00  0.00    -0.059 SA
BRANCH  12  13
ATOM     13  C   UNL d   1     -39.511  15.123  19.216  0.00  0.00     0.037 C 
BRANCH  13  14
ATOM     14  C   UNL d   1     -39.752  15.387  19.963  0.00  0.00     0.006 A 
ATOM     15  C   UNL d   1     -40.552  15.524  20.111  0.00  0.00     0.001 A 
ATOM     16  C   UNL d   1     -40.800  15.785  20.846  0.00  0.00     0.000 A 
ATOM     17  C   UNL d   1     -41.593  15.921  20.992  0.00  0.00     0.000 C 
ATOM     18  C   UNL d   1     -40.247  15.913  21.447  0.00  0.00     0.000 A 
ATOM     19  C   UNL d   1     -39.446  15.777  21.304  0.00  0.00     0.000 A 
ATOM     20  C   UNL d   1     -39.198  15.514  20.563  0.00  0.00     0.001 A 
ENDBRANCH  13  14
ENDBRANCH  12  13
ENDBRANCH   7  12
TORSDOF 3
ENDMDL
