MODEL 1
REMARK VINA RESULT:      -4.5      0.000      0.000
REMARK  4 active torsions:
REMARK  status: ('A' for Active; 'I' for Inactive)
REMARK    1  A    between atoms: C_3  and  N_1 
REMARK       I    between atoms: C_2  and  N_5 
REMARK       I    between atoms: N_4  and  C_2 
REMARK    2  A    between atoms: C_17  and  N_4 
REMARK    3  A    between atoms: N_5  and  C_16 
REMARK    4  A    between atoms: C_8  and  C_9 
ROOT
ATOM      1  C   UNL d   1      57.489  -0.640  30.878  0.00  0.00     0.369 C 
ATOM      2  N   UNL d   1      56.745  -0.837  31.226  0.00  0.00    -0.191 NA
ATOM      3  N   UNL d   1      57.722  -0.981  30.188  0.00  0.00    -0.191 NA
ATOM      4  O   UNL d   1      57.954  -0.094  31.272  0.00  0.00    -0.242 OA
ENDROOT
BRANCH   3   5
ATOM      5  C   UNL d   1      58.475  -0.758  29.870  0.00  0.00     0.086 A 
ATOM      6  C   UNL d   1      58.583  -0.009  29.536  0.00  0.00     0.021 A 
ATOM      7  C   UNL d   1      59.311   0.222  29.223  0.00  0.00     0.025 A 
ATOM      8  C   UNL d   1      59.920  -0.325  29.259  0.00  0.00     0.127 A 
ATOM      9  C   UNL d   1      59.847  -1.099  29.592  0.00  0.00     0.025 A 
ATOM     10  C   UNL d   1      59.102  -1.286  29.892  0.00  0.00     0.021 A 
BRANCH   8  11
ATOM     11  N   UNL d   1      60.693  -0.077  28.925  0.00  0.00    -0.114 N 
ATOM     12  O   UNL d   1      61.116  -0.610  28.460  0.00  0.00    -0.532 OA
ATOM     13  O   UNL d   1      60.989   0.682  29.078  0.00  0.00    -0.532 OA
ENDBRANCH   8  11
ENDBRANCH   3   5
BRANCH   2  14
ATOM     14  C   UNL d   1      56.494  -0.496  31.932  0.00  0.00     0.086 A 
ATOM     15  C   UNL d   1      56.378   0.320  31.976  0.00  0.00     0.019 A 
ATOM     16  C   UNL d   1      56.131   0.657  32.669  0.00  0.00     0.005 A 
ATOM     17  C   UNL d   1      55.986   0.192  33.362  0.00  0.00     0.039 A 
ATOM     18  C   UNL d   1      56.106  -0.616  33.301  0.00  0.00     0.005 A 
ATOM     19  C   UNL d   1      56.359  -0.959  32.590  0.00  0.00     0.019 A 
BRANCH  17  20
ATOM     20  C   UNL d   1      55.742   0.502  34.058  0.00  0.00     0.196 C 
ATOM     21  O   UNL d   1      56.272   0.661  34.642  0.00  0.00    -0.287 OA
ATOM     22  C   UNL d   1      54.951   0.664  34.191  0.00  0.00     0.045 C 
ENDBRANCH  17  20
ENDBRANCH   2  14
TORSDOF 4
ENDMDL
MODEL 2
REMARK VINA RESULT:      -4.4      1.055      5.206
REMARK  4 active torsions:
REMARK  status: ('A' for Active; 'I' for Inactive)
REMARK    1  A    between atoms: C_3  and  N_1 
REMARK       I    between atoms: C_2  and  N_5 
REMARK       I    between atoms: N_4  and  C_2 
REMARK    2  A    between atoms: C_17  and  N_4 
REMARK    3  A    between atoms: N_5  and  C_16 
REMARK    4  A    between atoms: C_8  and  C_9 
ROOT
ATOM      1  C   UNL d   1      57.183  -0.304  31.184  0.00  0.00     0.369 C 
ATOM      2  N   UNL d   1      57.438  -0.519  30.407  0.00  0.00    -0.191 NA
ATOM      3  N   UNL d   1      56.461  -0.532  31.456  0.00  0.00    -0.191 NA
ATOM      4  O   UNL d   1      57.698   0.142  31.637  0.00  0.00    -0.242 OA
ENDROOT
BRANCH   3   5
ATOM      5  C   UNL d   1      56.242  -0.296  32.240  0.00  0.00     0.086 A 
ATOM      6  C   UNL d   1      55.886   0.439  32.371  0.00  0.00     0.021 A 
ATOM      7  C   UNL d   1      55.667   0.682  33.129  0.00  0.00     0.025 A 
ATOM      8  C   UNL d   1      55.818   0.160  33.743  0.00  0.00     0.127 A 
ATOM      9  C   UNL d   1      56.179  -0.598  33.648  0.00  0.00     0.025 A 
ATOM     10  C   UNL d   1      56.381  -0.798  32.873  0.00  0.00     0.021 A 
BRANCH   8  11
ATOM     11  N   UNL d   1      55.584   0.421  34.548  0.00  0.00    -0.114 N 
ATOM     12  O   UNL d   1      54.785   0.415  34.753  0.00  0.00    -0.532 OA
ATOM     13  O   UNL d   1      56.160   0.669  35.091  0.00  0.00    -0.532 OA
ENDBRANCH   8  11
ENDBRANCH   3   5
BRANCH   2  14
ATOM     14  C   UNL d   1      58.173  -0.292  30.115  0.00  0.00     0.086 A 
ATOM     15  C   UNL d   1      58.270   0.455  29.780  0.00  0.00     0.019 A 
ATOM     16  C   UNL d   1      58.992   0.679  29.492  0.00  0.00     0.005 A 
ATOM     17  C   UNL d   1      59.663   0.163  29.525  0.00  0.00     0.039 A 
ATOM     18  C   UNL d   1      59.550  -0.575  29.861  0.00  0.00     0.005 A 
ATOM     19  C   UNL d   1      58.809  -0.802  30.155  0.00  0.00     0.019 A 
BRANCH  17  20
ATOM     20  C   UNL d   1      60.387   0.363  29.247  0.00  0.00     0.196 C 
ATOM     21  O   UNL d   1      60.569   0.257  28.471  0.00  0.00    -0.287 OA
ATOM     22  C   UNL d   1      60.955   0.676  29.746  0.00  0.00     0.045 C 
ENDBRANCH  17  20
ENDBRANCH   2  14
TORSDOF 4
ENDMDL
MODEL 3
REMARK VINA RESULT:      -4.0      1.427      5.264
REMARK  4 active torsions:
REMARK  status: ('A' for Active; 'I' for Inactive)
REMARK    1  A    between atoms: C_3  and  N_1 
REMARK       I    between atoms: C_2  and  N_5 
REMARK       I    between atoms: N_4  and  C_2 
REMARK    2  A    between atoms: C_17  and  N_4 
REMARK    3  A    between atoms: N_5  and  C_16 
REMARK    4  A    between atoms: C_8  and  C_9 
ROOT
ATOM      1  C   UNL d   1      57.820  -0.305  30.487  0.00  0.00     0.369 C 
ATOM      2  N   UNL d   1      58.129  -0.315  29.701  0.00  0.00    -0.191 NA
ATOM      3  N   UNL d   1      57.268   0.238  30.704  0.00  0.00    -0.191 NA
ATOM      4  O   UNL d   1      58.107  -0.867  31.009  0.00  0.00    -0.242 OA
ENDROOT
BRANCH   3   5
ATOM      5  C   UNL d   1      56.983   0.215  31.503  0.00  0.00     0.086 A 
ATOM      6  C   UNL d   1      56.350  -0.278  31.706  0.00  0.00     0.021 A 
ATOM      7  C   UNL d   1      56.062  -0.311  32.479  0.00  0.00     0.025 A 
ATOM      8  C   UNL d   1      56.432   0.167  33.032  0.00  0.00     0.127 A 
ATOM      9  C   UNL d   1      57.080   0.682  32.862  0.00  0.00     0.025 A 
ATOM     10  C   UNL d   1      57.334   0.682  32.076  0.00  0.00     0.021 A 
BRANCH   8  11
ATOM     11  N   UNL d   1      56.123   0.130  33.854  0.00  0.00    -0.114 N 
ATOM     12  O   UNL d   1      56.652   0.199  34.482  0.00  0.00    -0.532 OA
ATOM     13  O   UNL d   1      55.312   0.028  33.990  0.00  0.00    -0.532 OA
ENDBRANCH   8  11
ENDBRANCH   3   5
BRANCH   2  14
ATOM     14  C   UNL d   1      58.695  -0.864  29.465  0.00  0.00     0.086 A 
ATOM     15  C   UNL d   1      59.482  -0.633  29.376  0.00  0.00     0.019 A 
ATOM     16  C   UNL d   1      60.038  -1.172  29.144  0.00  0.00     0.005 A 
ATOM     17  C   UNL d   1      59.837  -1.979  28.987  0.00  0.00     0.039 A 
ATOM     18  C   UNL d   1      59.051  -2.192  29.079  0.00  0.00     0.005 A 
ATOM     19  C   UNL d   1      58.482  -1.639  29.317  0.00  0.00     0.019 A 
BRANCH  17  20
ATOM     20  C   UNL d   1      60.369  -2.530  28.756  0.00  0.00     0.196 C 
ATOM     21  O   UNL d   1      60.198  -3.313  28.816  0.00  0.00    -0.287 OA
ATOM     22  C   UNL d   1      61.098  -2.309  28.455  0.00  0.00     0.045 C 
ENDBRANCH  17  20
ENDBRANCH   2  14
TORSDOF 4
ENDMDL
