MODEL 1
REMARK VINA RESULT:      -6.1      0.000      0.000
REMARK  2 active torsions:
REMARK  status: ('A' for Active; 'I' for Inactive)
REMARK    1  A    between atoms: C_7  and  N_2 
REMARK    2  A    between atoms: C_9  and  C_5 
ROOT
ATOM      1  C   UNL d   1     -41.453-122.201 -51.805  0.00  0.00     0.208 A 
ATOM      2  N   UNL d   1     -41.667-122.950 -51.524  0.00  0.00    -0.266 N 
ATOM      3  N   UNL d   1     -41.461-122.053 -52.612  0.00  0.00    -0.199 NA
ATOM      4  N   UNL d   1     -41.893-123.390 -52.867  0.00  0.00    -0.206 NA
ATOM      5  C   UNL d   1     -41.679-122.641 -53.148  0.00  0.00     0.167 A 
ATOM      6  C   UNL d   1     -41.884-123.535 -52.056  0.00  0.00     0.186 A 
ATOM      7  S   UNL d   1     -41.232-121.598 -51.288  0.00  0.00    -0.038 SA
ENDROOT
BRANCH   2   8
ATOM      8  C   UNL d   1     -41.660-123.099 -50.725  0.00  0.00     0.068 A 
ATOM      9  C   UNL d   1     -41.144-123.633 -50.419  0.00  0.00     0.018 A 
ATOM     10  C   UNL d   1     -41.123-123.800 -49.589  0.00  0.00     0.002 A 
ATOM     11  C   UNL d   1     -41.643-123.403 -49.097  0.00  0.00     0.000 A 
ATOM     12  C   UNL d   1     -42.174-122.855 -49.409  0.00  0.00     0.002 A 
ATOM     13  C   UNL d   1     -41.637-123.555 -48.275  0.00  0.00     0.000 C 
ATOM     14  C   UNL d   1     -42.181-122.702 -50.233  0.00  0.00     0.018 A 
ENDBRANCH   2   8
BRANCH   5  15
ATOM     15  C   UNL d   1     -41.684-122.487 -53.938  0.00  0.00     0.036 A 
ATOM     16  C   UNL d   1     -42.242-121.966 -54.259  0.00  0.00     0.003 A 
ATOM     17  C   UNL d   1     -42.254-121.804 -55.062  0.00  0.00     0.000 A 
ATOM     18  C   UNL d   1     -41.693-122.169 -55.569  0.00  0.00     0.000 A 
ATOM     19  C   UNL d   1     -41.136-122.687 -55.258  0.00  0.00     0.000 A 
ATOM     20  C   UNL d   1     -41.123-122.853 -54.444  0.00  0.00     0.003 A 
ENDBRANCH   5  15
TORSDOF 2
ENDMDL
MODEL 2
REMARK VINA RESULT:      -5.1      0.579      4.417
REMARK  2 active torsions:
REMARK  status: ('A' for Active; 'I' for Inactive)
REMARK    1  A    between atoms: C_7  and  N_2 
REMARK    2  A    between atoms: C_9  and  C_5 
ROOT
ATOM      1  C   UNL d   1     -41.417-122.246 -51.509  0.00  0.00     0.208 A 
ATOM      2  N   UNL d   1     -41.631-122.849 -52.035  0.00  0.00    -0.266 N 
ATOM      3  N   UNL d   1     -41.459-122.378 -50.701  0.00  0.00    -0.199 NA
ATOM      4  N   UNL d   1     -41.926-123.708 -50.928  0.00  0.00    -0.206 NA
ATOM      5  C   UNL d   1     -41.712-123.105 -50.403  0.00  0.00     0.167 A 
ATOM      6  C   UNL d   1     -41.883-123.571 -51.740  0.00  0.00     0.186 A 
ATOM      7  S   UNL d   1     -41.161-121.512 -51.784  0.00  0.00    -0.038 SA
ENDROOT
BRANCH   2   8
ATOM      8  C   UNL d   1     -41.590-122.720 -52.837  0.00  0.00     0.068 A 
ATOM      9  C   UNL d   1     -41.177-123.226 -53.305  0.00  0.00     0.018 A 
ATOM     10  C   UNL d   1     -41.123-123.107 -54.142  0.00  0.00     0.002 A 
ATOM     11  C   UNL d   1     -41.505-122.460 -54.470  0.00  0.00     0.000 A 
ATOM     12  C   UNL d   1     -41.930-121.941 -53.990  0.00  0.00     0.002 A 
ATOM     13  C   UNL d   1     -41.464-122.327 -55.294  0.00  0.00     0.000 C 
ATOM     14  C   UNL d   1     -41.972-122.074 -53.165  0.00  0.00     0.018 A 
ENDBRANCH   2   8
BRANCH   5  15
ATOM     15  C   UNL d   1     -41.750-123.225 -49.609  0.00  0.00     0.036 A 
ATOM     16  C   UNL d   1     -42.391-122.935 -49.172  0.00  0.00     0.003 A 
ATOM     17  C   UNL d   1     -42.437-123.054 -48.363  0.00  0.00     0.000 A 
ATOM     18  C   UNL d   1     -41.827-123.475 -47.968  0.00  0.00     0.000 A 
ATOM     19  C   UNL d   1     -41.188-123.766 -48.394  0.00  0.00     0.000 A 
ATOM     20  C   UNL d   1     -41.140-123.647 -49.214  0.00  0.00     0.003 A 
ENDBRANCH   5  15
TORSDOF 2
ENDMDL
