MODEL 1
REMARK VINA RESULT:      -0.1      0.000      0.000
REMARK  4 active torsions:
REMARK  status: ('A' for Active; 'I' for Inactive)
REMARK    1  A    between atoms: C_3  and  C_1 
REMARK    2  A    between atoms: N_5  and  C_3 
REMARK    3  A    between atoms: C_10  and  C_3 
REMARK    4  A    between atoms: C_7  and  N_5 
ROOT
ATOM      1  C   UNL d   1      31.627  17.284 -24.170  0.00  0.00     0.086 C 
ENDROOT
BRANCH   1   2
ATOM      2  C   UNL d   1      30.843  17.133 -23.904  0.00  0.00     0.058 A 
ATOM      3  C   UNL d   1      30.220  17.479 -24.335  0.00  0.00     0.214 A 
ATOM      4  C   UNL d   1      29.454  17.325 -24.067  0.00  0.00     0.120 A 
ATOM      5  O   UNL d   1      30.363  17.952 -24.996  0.00  0.00    -0.285 OA
ATOM      6  N   UNL d   1      28.813  17.674 -24.500  0.00  0.00    -0.241 NA
ATOM      7  C   UNL d   1      29.311  16.853 -23.406  0.00  0.00     0.021 A 
ATOM      8  C   UNL d   1      28.047  17.520 -24.233  0.00  0.00     0.099 A 
ATOM      9  C   UNL d   1      27.904  17.048 -23.572  0.00  0.00     0.021 A 
ATOM     10  C   UNL d   1      28.527  16.729 -23.178  0.00  0.00     0.003 A 
ATOM     11  C   UNL d   1      29.934  16.534 -23.013  0.00  0.00     0.002 A 
ATOM     12  C   UNL d   1      30.700  16.661 -23.243  0.00  0.00     0.005 A 
ENDBRANCH   1   2
BRANCH   1  13
ATOM     13  N   UNL d   1      31.870  18.062 -24.332  0.00  0.00    -0.227 NA
BRANCH  13  14
ATOM     14  C   UNL d   1      32.206  18.528 -23.766  0.00  0.00     0.162 A 
ATOM     15  N   UNL d   1      32.293  18.239 -22.998  0.00  0.00    -0.225 NA
ATOM     16  C   UNL d   1      32.635  18.703 -22.404  0.00  0.00     0.101 A 
ATOM     17  C   UNL d   1      32.885  19.459 -22.606  0.00  0.00     0.021 A 
ATOM     18  C   UNL d   1      32.798  19.748 -23.373  0.00  0.00     0.005 A 
ATOM     19  C   UNL d   1      32.462  19.281 -23.940  0.00  0.00     0.039 A 
ENDBRANCH  13  14
ENDBRANCH   1  13
BRANCH   1  20
ATOM     20  C   UNL d   1      32.158  16.681 -24.272  0.00  0.00     0.018 A 
ATOM     21  C   UNL d   1      32.507  16.567 -24.993  0.00  0.00     0.002 A 
ATOM     22  C   UNL d   1      33.049  15.953 -25.097  0.00  0.00     0.000 A 
ATOM     23  C   UNL d   1      33.241  15.453 -24.480  0.00  0.00     0.000 A 
ATOM     24  C   UNL d   1      32.879  15.576 -23.748  0.00  0.00     0.000 A 
ATOM     25  C   UNL d   1      32.338  16.190 -23.644  0.00  0.00     0.002 A 
ENDBRANCH   1  20
TORSDOF 4
ENDMDL
MODEL 2
REMARK VINA RESULT:       0.8      1.214      3.777
REMARK  4 active torsions:
REMARK  status: ('A' for Active; 'I' for Inactive)
REMARK    1  A    between atoms: C_3  and  C_1 
REMARK    2  A    between atoms: N_5  and  C_3 
REMARK    3  A    between atoms: C_10  and  C_3 
REMARK    4  A    between atoms: C_7  and  N_5 
ROOT
ATOM      1  C   UNL d   1      31.897  18.090 -24.135  0.00  0.00     0.086 C 
ENDROOT
BRANCH   1   2
ATOM      2  C   UNL d   1      32.206  18.651 -23.588  0.00  0.00     0.058 A 
ATOM      3  C   UNL d   1      32.333  19.425 -23.865  0.00  0.00     0.214 A 
ATOM      4  C   UNL d   1      32.635  19.968 -23.322  0.00  0.00     0.120 A 
ATOM      5  O   UNL d   1      32.165  19.638 -24.644  0.00  0.00    -0.285 OA
ATOM      6  N   UNL d   1      32.769  20.760 -23.595  0.00  0.00    -0.241 NA
ATOM      7  C   UNL d   1      32.804  19.755 -22.542  0.00  0.00     0.021 A 
ATOM      8  C   UNL d   1      33.071  21.303 -23.052  0.00  0.00     0.099 A 
ATOM      9  C   UNL d   1      33.239  21.090 -22.273  0.00  0.00     0.021 A 
ATOM     10  C   UNL d   1      33.105  20.336 -22.037  0.00  0.00     0.003 A 
ATOM     11  C   UNL d   1      32.670  19.001 -22.306  0.00  0.00     0.002 A 
ATOM     12  C   UNL d   1      32.374  18.438 -22.809  0.00  0.00     0.005 A 
ENDBRANCH   1   2
BRANCH   1  13
ATOM     13  N   UNL d   1      32.407  17.695 -24.659  0.00  0.00    -0.227 NA
BRANCH  13  14
ATOM     14  C   UNL d   1      32.681  16.953 -24.504  0.00  0.00     0.162 A 
ATOM     15  N   UNL d   1      32.908  16.754 -23.737  0.00  0.00    -0.225 NA
ATOM     16  C   UNL d   1      33.192  15.997 -23.559  0.00  0.00     0.101 A 
ATOM     17  C   UNL d   1      33.241  15.453 -24.173  0.00  0.00     0.021 A 
ATOM     18  C   UNL d   1      33.014  15.652 -24.940  0.00  0.00     0.005 A 
ATOM     19  C   UNL d   1      32.739  16.395 -25.095  0.00  0.00     0.039 A 
ENDBRANCH  13  14
ENDBRANCH   1  13
BRANCH   1  20
ATOM     20  C   UNL d   1      31.104  17.924 -24.162  0.00  0.00     0.018 A 
ATOM     21  C   UNL d   1      30.758  17.505 -23.563  0.00  0.00     0.002 A 
ATOM     22  C   UNL d   1      29.951  17.336 -23.592  0.00  0.00     0.000 A 
ATOM     23  C   UNL d   1      29.490  17.586 -24.219  0.00  0.00     0.000 A 
ATOM     24  C   UNL d   1      29.852  18.013 -24.826  0.00  0.00     0.000 A 
ATOM     25  C   UNL d   1      30.659  18.182 -24.797  0.00  0.00     0.002 A 
ENDBRANCH   1  20
TORSDOF 4
ENDMDL
