MODEL 1
REMARK VINA RESULT:      11.1      0.000      0.000
REMARK  4 active torsions:
REMARK  status: ('A' for Active; 'I' for Inactive)
REMARK    1  A    between atoms: C_6  and  C_1 
REMARK    2  A    between atoms: C_7  and  C_5 
REMARK    3  A    between atoms: O_15  and  C_12 
REMARK    4  A    between atoms: C_16  and  O_15 
ROOT
ATOM      1  C   UNL d   1      45.716 -15.698  44.429  0.00  0.00     0.020 A 
ATOM      2  C   UNL d   1      44.969 -15.406  44.664  0.00  0.00     0.004 A 
ATOM      3  C   UNL d   1      46.312 -15.171  44.210  0.00  0.00     0.004 A 
ATOM      4  C   UNL d   1      45.441 -14.060  44.451  0.00  0.00     0.100 A 
ATOM      5  C   UNL d   1      44.832 -14.593  44.675  0.00  0.00     0.025 A 
ATOM      6  C   UNL d   1      46.175 -14.358  44.221  0.00  0.00     0.025 A 
ENDROOT
BRANCH   1   7
ATOM      7  C   UNL d   1      45.856 -16.514  44.417  0.00  0.00     0.105 A 
ATOM      8  C   UNL d   1      46.177 -17.418  43.452  0.00  0.00     0.048 A 
ATOM      9  C   UNL d   1      46.179 -17.994  43.999  0.00  0.00     0.169 A 
ATOM     10  N   UNL d   1      46.020 -17.832  44.753  0.00  0.00    -0.142 NA
ATOM     11  N   UNL d   1      45.859 -17.087  44.955  0.00  0.00    -0.148 NA
BRANCH   9  12
ATOM     12  C   UNL d   1      46.343 -18.738  43.779  0.00  0.00     0.231 C 
ATOM     13  O   UNL d   1      46.484 -19.287  44.330  0.00  0.00    -0.643 OA
ATOM     14  O   UNL d   1      46.365 -18.933  42.979  0.00  0.00    -0.643 OA
ENDBRANCH   9  12
ENDBRANCH   1   7
BRANCH   4  15
ATOM     15  O   UNL d   1      45.295 -13.240  44.465  0.00  0.00    -0.305 OA
BRANCH  15  16
ATOM     16  C   UNL d   1      45.571 -12.769  43.844  0.00  0.00     0.123 C 
ATOM     17  C   UNL d   1      45.156 -12.082  43.628  0.00  0.00     0.029 C 
ENDBRANCH  15  16
ENDBRANCH   4  15
TORSDOF 4
ENDMDL
MODEL 2
REMARK VINA RESULT:      13.2      1.165      4.431
REMARK  4 active torsions:
REMARK  status: ('A' for Active; 'I' for Inactive)
REMARK    1  A    between atoms: C_6  and  C_1 
REMARK    2  A    between atoms: C_7  and  C_5 
REMARK    3  A    between atoms: O_15  and  C_12 
REMARK    4  A    between atoms: C_16  and  O_15 
ROOT
ATOM      1  C   UNL d   1      45.761 -16.083  44.362  0.00  0.00     0.020 A 
ATOM      2  C   UNL d   1      45.554 -16.637  44.954  0.00  0.00     0.004 A 
ATOM      3  C   UNL d   1      46.147 -16.339  43.678  0.00  0.00     0.004 A 
ATOM      4  C   UNL d   1      46.129 -17.690  44.152  0.00  0.00     0.100 A 
ATOM      5  C   UNL d   1      45.736 -17.434  44.849  0.00  0.00     0.025 A 
ATOM      6  C   UNL d   1      46.329 -17.136  43.574  0.00  0.00     0.025 A 
ENDROOT
BRANCH   1   7
ATOM      7  C   UNL d   1      45.580 -15.282  44.464  0.00  0.00     0.105 A 
ATOM      8  C   UNL d   1      46.006 -14.122  43.894  0.00  0.00     0.048 A 
ATOM      9  C   UNL d   1      45.511 -13.715  44.365  0.00  0.00     0.169 A 
ATOM     10  N   UNL d   1      45.052 -14.090  44.884  0.00  0.00    -0.142 NA
ATOM     11  N   UNL d   1      45.092 -14.876  44.927  0.00  0.00    -0.148 NA
BRANCH   9  12
ATOM     12  C   UNL d   1      45.483 -12.925  44.308  0.00  0.00     0.231 C 
ATOM     13  O   UNL d   1      45.789 -12.480  44.884  0.00  0.00    -0.643 OA
ATOM     14  O   UNL d   1      45.134 -12.574  43.649  0.00  0.00    -0.643 OA
ENDBRANCH   9  12
ENDBRANCH   1   7
BRANCH   4  15
ATOM     15  O   UNL d   1      46.309 -18.497  44.054  0.00  0.00    -0.305 OA
BRANCH  15  16
ATOM     16  C   UNL d   1      45.926 -18.930  43.464  0.00  0.00     0.123 C 
ATOM     17  C   UNL d   1      46.365 -19.419  42.956  0.00  0.00     0.029 C 
ENDBRANCH  15  16
ENDBRANCH   4  15
TORSDOF 4
ENDMDL
