MODEL 1
REMARK VINA RESULT:      -4.0      0.000      0.000
REMARK  7 active torsions:
REMARK  status: ('A' for Active; 'I' for Inactive)
REMARK    1  A    between atoms: N_2  and  S_1 
REMARK    2  A    between atoms: C_3  and  S_1 
REMARK    3  A    between atoms: C_16  and  N_2 
REMARK    4  A    between atoms: C_4  and  C_10 
REMARK       I    between atoms: N_7  and  C_4 
REMARK    5  A    between atoms: C_17  and  N_7 
REMARK    6  A    between atoms: C_9  and  C_17 
REMARK    7  A    between atoms: O_23  and  C_20 
ROOT
ATOM      1  C   UNL d   1     -42.262-122.316 -50.481  0.00  0.00     0.058 A 
ATOM      2  C   UNL d   1     -41.500-121.915 -51.887  0.00  0.00     0.094 A 
ATOM      3  C   UNL d   1     -41.534-122.654 -50.669  0.00  0.00     0.006 A 
ATOM      4  C   UNL d   1     -42.610-121.776 -50.999  0.00  0.00     0.006 A 
ATOM      5  C   UNL d   1     -41.150-122.455 -51.373  0.00  0.00     0.020 A 
ATOM      6  C   UNL d   1     -42.234-121.571 -51.703  0.00  0.00     0.020 A 
ENDROOT
BRANCH   2   7
ATOM      7  N   UNL d   1     -41.125-121.714 -52.587  0.00  0.00    -0.158 NA
BRANCH   7   8
ATOM      8  S   UNL d   1     -41.372-122.056 -53.299  0.00  0.00     0.285 S 
ATOM      9  O   UNL d   1     -41.595-121.309 -53.580  0.00  0.00    -0.198 OA
ATOM     10  O   UNL d   1     -41.152-122.798 -53.025  0.00  0.00    -0.198 OA
BRANCH   8  11
ATOM     11  C   UNL d   1     -41.619-122.389 -54.008  0.00  0.00     0.107 A 
ATOM     12  C   UNL d   1     -42.105-121.960 -54.516  0.00  0.00     0.037 A 
ATOM     13  C   UNL d   1     -42.360-122.290 -55.235  0.00  0.00     0.095 A 
ATOM     14  C   UNL d   1     -42.121-123.053 -55.436  0.00  0.00     0.024 A 
ATOM     15  C   UNL d   1     -41.634-123.485 -54.929  0.00  0.00     0.003 A 
ATOM     16  C   UNL d   1     -41.382-123.154 -54.214  0.00  0.00     0.013 A 
BRANCH  13  17
ATOM     17  O   UNL d   1     -42.853-121.854 -55.751  0.00  0.00    -0.328 OA
ATOM     18  C   UNL d   1     -42.748-121.920 -56.572  0.00  0.00     0.181 C 
ENDBRANCH  13  17
ENDBRANCH   8  11
ENDBRANCH   7   8
ENDBRANCH   2   7
BRANCH   1  19
ATOM     19  C   UNL d   1     -42.651-122.516 -49.770  0.00  0.00     0.279 C 
ATOM     20  N   UNL d   1     -42.233-122.886 -49.167  0.00  0.00    -0.204 NA
ATOM     21  O   UNL d   1     -43.457-122.342 -49.672  0.00  0.00    -0.265 OA
BRANCH  20  22
ATOM     22  C   UNL d   1     -42.620-123.086 -48.459  0.00  0.00     0.127 C 
BRANCH  22  23
ATOM     23  C   UNL d   1     -42.185-123.131 -47.748  0.00  0.00     0.119 A 
ATOM     24  O   UNL d   1     -41.859-122.497 -47.341  0.00  0.00    -0.304 OA
ATOM     25  C   UNL d   1     -41.483-122.800 -46.676  0.00  0.00     0.123 A 
ATOM     26  C   UNL d   1     -41.579-123.609 -46.677  0.00  0.00     0.029 A 
ATOM     27  C   UNL d   1     -42.015-123.815 -47.343  0.00  0.00     0.028 A 
ENDBRANCH  22  23
ENDBRANCH  20  22
ENDBRANCH   1  19
TORSDOF 7
ENDMDL
