MODEL 1
REMARK VINA RESULT:      -3.6      0.000      0.000
REMARK  4 active torsions:
REMARK  status: ('A' for Active; 'I' for Inactive)
REMARK       I    between atoms: N_2  and  C_3 
REMARK    1  A    between atoms: C_3  and  C_8 
REMARK    2  A    between atoms: S_7  and  C_5 
REMARK    3  A    between atoms: C_10  and  C_6 
REMARK    4  A    between atoms: C_8  and  S_7 
ROOT
ATOM      1  N   UNL d   1      32.638  20.683 -20.963  0.00  0.00    -0.148 NA
ATOM      2  N   UNL d   1      32.787  19.947 -21.306  0.00  0.00    -0.141 NA
ATOM      3  C   UNL d   1      33.087  19.897 -22.070  0.00  0.00     0.133 A 
ATOM      4  C   UNL d   1      32.794  21.372 -21.393  0.00  0.00     0.103 A 
ATOM      5  C   UNL d   1      33.092  21.328 -22.154  0.00  0.00     0.023 A 
ATOM      6  C   UNL d   1      33.241  20.599 -22.498  0.00  0.00     0.029 A 
ENDROOT
BRANCH   3   7
ATOM      7  S   UNL d   1      33.232  19.166 -22.405  0.00  0.00    -0.061 SA
BRANCH   7   8
ATOM      8  C   UNL d   1      32.704  18.851 -22.952  0.00  0.00     0.098 C 
BRANCH   8   9
ATOM      9  C   UNL d   1      32.757  18.057 -23.165  0.00  0.00     0.271 C 
ATOM     10  N   UNL d   1      32.316  17.776 -23.803  0.00  0.00    -0.272 N 
ATOM     11  C   UNL d   1      32.366  16.991 -24.016  0.00  0.00     0.083 A 
ATOM     12  C   UNL d   1      31.828  18.294 -24.220  0.00  0.00     0.083 A 
ATOM     13  C   UNL d   1      31.934  16.703 -24.646  0.00  0.00     0.019 A 
ATOM     14  C   UNL d   1      31.436  17.214 -25.077  0.00  0.00     0.003 A 
ATOM     15  C   UNL d   1      31.390  18.009 -24.856  0.00  0.00     0.019 A 
ATOM     16  O   UNL d   1      33.240  17.544 -22.752  0.00  0.00    -0.266 OA
ENDBRANCH   8   9
ENDBRANCH   7   8
ENDBRANCH   3   7
BRANCH   4  17
ATOM     17  C   UNL d   1      32.646  22.108 -21.051  0.00  0.00     0.019 A 
ATOM     18  C   UNL d   1      32.138  22.647 -21.426  0.00  0.00     0.002 A 
ATOM     19  C   UNL d   1      31.989  23.387 -21.082  0.00  0.00     0.000 A 
ATOM     20  C   UNL d   1      32.348  23.592 -20.362  0.00  0.00     0.000 A 
ATOM     21  C   UNL d   1      32.848  23.061 -19.993  0.00  0.00     0.000 A 
ATOM     22  C   UNL d   1      33.004  22.319 -20.327  0.00  0.00     0.002 A 
ENDBRANCH   4  17
TORSDOF 4
ENDMDL
MODEL 2
REMARK VINA RESULT:      -2.9      1.352      5.339
REMARK  4 active torsions:
REMARK  status: ('A' for Active; 'I' for Inactive)
REMARK       I    between atoms: N_2  and  C_3 
REMARK    1  A    between atoms: C_3  and  C_8 
REMARK    2  A    between atoms: S_7  and  C_5 
REMARK    3  A    between atoms: C_10  and  C_6 
REMARK    4  A    between atoms: C_8  and  S_7 
ROOT
ATOM      1  N   UNL d   1      32.893  18.127 -22.550  0.00  0.00    -0.148 NA
ATOM      2  N   UNL d   1      33.083  18.922 -22.444  0.00  0.00    -0.141 NA
ATOM      3  C   UNL d   1      33.051  19.446 -23.078  0.00  0.00     0.133 A 
ATOM      4  C   UNL d   1      32.668  17.857 -23.299  0.00  0.00     0.103 A 
ATOM      5  C   UNL d   1      32.634  18.373 -23.934  0.00  0.00     0.023 A 
ATOM      6  C   UNL d   1      32.823  19.165 -23.832  0.00  0.00     0.029 A 
ENDROOT
BRANCH   3   7
ATOM      7  S   UNL d   1      33.240  20.233 -22.968  0.00  0.00    -0.061 SA
BRANCH   7   8
ATOM      8  C   UNL d   1      32.901  20.656 -22.349  0.00  0.00     0.098 C 
BRANCH   8   9
ATOM      9  C   UNL d   1      32.964  21.477 -22.329  0.00  0.00     0.271 C 
ATOM     10  N   UNL d   1      32.794  21.882 -21.631  0.00  0.00    -0.272 N 
ATOM     11  C   UNL d   1      32.855  22.695 -21.607  0.00  0.00     0.083 A 
ATOM     12  C   UNL d   1      32.563  21.459 -20.961  0.00  0.00     0.083 A 
ATOM     13  C   UNL d   1      32.689  23.104 -20.921  0.00  0.00     0.019 A 
ATOM     14  C   UNL d   1      32.454  22.691 -20.237  0.00  0.00     0.003 A 
ATOM     15  C   UNL d   1      32.394  21.867 -20.267  0.00  0.00     0.019 A 
ATOM     16  O   UNL d   1      33.193  21.896 -22.992  0.00  0.00    -0.266 OA
ENDBRANCH   8   9
ENDBRANCH   7   8
ENDBRANCH   3   7
BRANCH   4  17
ATOM     17  C   UNL d   1      32.478  17.062 -23.406  0.00  0.00     0.019 A 
ATOM     18  C   UNL d   1      31.691  16.836 -23.547  0.00  0.00     0.002 A 
ATOM     19  C   UNL d   1      31.500  16.037 -23.655  0.00  0.00     0.000 A 
ATOM     20  C   UNL d   1      32.094  15.458 -23.622  0.00  0.00     0.000 A 
ATOM     21  C   UNL d   1      32.868  15.679 -23.483  0.00  0.00     0.000 A 
ATOM     22  C   UNL d   1      33.071  16.475 -23.374  0.00  0.00     0.002 A 
ENDBRANCH   4  17
TORSDOF 4
ENDMDL
MODEL 3
REMARK VINA RESULT:      -1.3      1.725      5.552
REMARK  4 active torsions:
REMARK  status: ('A' for Active; 'I' for Inactive)
REMARK       I    between atoms: N_2  and  C_3 
REMARK    1  A    between atoms: C_3  and  C_8 
REMARK    2  A    between atoms: S_7  and  C_5 
REMARK    3  A    between atoms: C_10  and  C_6 
REMARK    4  A    between atoms: C_8  and  S_7 
ROOT
ATOM      1  N   UNL d   1      32.382  19.570 -21.734  0.00  0.00    -0.148 NA
ATOM      2  N   UNL d   1      32.475  20.320 -21.404  0.00  0.00    -0.141 NA
ATOM      3  C   UNL d   1      32.901  20.900 -21.802  0.00  0.00     0.133 A 
ATOM      4  C   UNL d   1      32.721  19.403 -22.470  0.00  0.00     0.103 A 
ATOM      5  C   UNL d   1      33.146  19.976 -22.871  0.00  0.00     0.023 A 
ATOM      6  C   UNL d   1      33.241  20.723 -22.546  0.00  0.00     0.029 A 
ENDROOT
BRANCH   3   7
ATOM      7  S   UNL d   1      32.991  21.642 -21.471  0.00  0.00    -0.061 SA
BRANCH   7   8
ATOM      8  C   UNL d   1      32.690  21.798 -20.722  0.00  0.00     0.098 C 
BRANCH   8   9
ATOM      9  C   UNL d   1      32.634  22.575 -20.455  0.00  0.00     0.271 C 
ATOM     10  N   UNL d   1      32.816  22.751 -19.670  0.00  0.00    -0.272 N 
ATOM     11  C   UNL d   1      32.762  23.519 -19.402  0.00  0.00     0.083 A 
ATOM     12  C   UNL d   1      33.053  22.145 -19.162  0.00  0.00     0.083 A 
ATOM     13  C   UNL d   1      32.941  23.702 -18.627  0.00  0.00     0.019 A 
ATOM     14  C   UNL d   1      33.181  23.102 -18.102  0.00  0.00     0.003 A 
ATOM     15  C   UNL d   1      33.234  22.325 -18.380  0.00  0.00     0.019 A 
ATOM     16  O   UNL d   1      32.400  23.175 -20.958  0.00  0.00    -0.266 OA
ENDBRANCH   8   9
ENDBRANCH   7   8
ENDBRANCH   3   7
BRANCH   4  17
ATOM     17  C   UNL d   1      32.628  18.653 -22.801  0.00  0.00     0.019 A 
ATOM     18  C   UNL d   1      33.174  18.051 -22.630  0.00  0.00     0.002 A 
ATOM     19  C   UNL d   1      33.081  17.297 -22.962  0.00  0.00     0.000 A 
ATOM     20  C   UNL d   1      32.441  17.141 -23.467  0.00  0.00     0.000 A 
ATOM     21  C   UNL d   1      31.903  17.733 -23.636  0.00  0.00     0.000 A 
ATOM     22  C   UNL d   1      31.987  18.490 -23.310  0.00  0.00     0.002 A 
ENDBRANCH   4  17
TORSDOF 4
ENDMDL
