MODEL 1
REMARK VINA RESULT:      -3.2      0.000      0.000
REMARK  4 active torsions:
REMARK  status: ('A' for Active; 'I' for Inactive)
REMARK    1  A    between atoms: C_2  and  C_1 
REMARK    2  A    between atoms: C_8  and  C_1 
REMARK    3  A    between atoms: C_9  and  C_2 
REMARK    4  A    between atoms: N_4  and  C_3 
ROOT
ATOM      1  C   UNL d   1      32.513  22.277 -21.024  0.00  0.00     0.064 A 
ATOM      2  C   UNL d   1      32.184  21.603 -20.686  0.00  0.00     0.018 A 
ATOM      3  C   UNL d   1      33.034  22.223 -21.673  0.00  0.00     0.018 A 
ATOM      4  C   UNL d   1      32.889  20.795 -21.637  0.00  0.00     0.000 A 
ATOM      5  C   UNL d   1      32.375  20.867 -20.995  0.00  0.00     0.002 A 
ATOM      6  C   UNL d   1      33.219  21.485 -21.976  0.00  0.00     0.002 A 
ENDROOT
BRANCH   4   7
ATOM      7  C   UNL d   1      33.080  20.057 -21.947  0.00  0.00     0.000 C 
BRANCH   7   8
ATOM      8  C   UNL d   1      32.888  19.882 -22.726  0.00  0.00     0.000 C 
BRANCH   8   9
ATOM      9  C   UNL d   1      32.967  19.107 -23.002  0.00  0.00     0.003 A 
ATOM     10  C   UNL d   1      32.841  18.979 -23.804  0.00  0.00     0.021 A 
ATOM     11  C   UNL d   1      32.913  18.205 -24.115  0.00  0.00     0.099 A 
ATOM     12  N   UNL d   1      33.111  17.574 -23.612  0.00  0.00    -0.242 NA
ATOM     13  C   UNL d   1      33.234  17.719 -22.808  0.00  0.00     0.099 A 
ATOM     14  C   UNL d   1      33.164  18.479 -22.499  0.00  0.00     0.021 A 
ENDBRANCH   8   9
ENDBRANCH   7   8
ENDBRANCH   4   7
BRANCH   1  15
ATOM     15  N   UNL d   1      32.326  23.033 -20.718  0.00  0.00    -0.301 N 
ATOM     16  C   UNL d   1      32.603  23.247 -19.968  0.00  0.00     0.100 C 
ATOM     17  C   UNL d   1      31.869  23.557 -21.165  0.00  0.00     0.100 C 
ENDBRANCH   1  15
TORSDOF 4
ENDMDL
MODEL 2
REMARK VINA RESULT:      -2.9      0.564      4.416
REMARK  4 active torsions:
REMARK  status: ('A' for Active; 'I' for Inactive)
REMARK    1  A    between atoms: C_2  and  C_1 
REMARK    2  A    between atoms: C_8  and  C_1 
REMARK    3  A    between atoms: C_9  and  C_2 
REMARK    4  A    between atoms: N_4  and  C_3 
ROOT
ATOM      1  C   UNL d   1      33.170  18.809 -23.138  0.00  0.00     0.064 A 
ATOM      2  C   UNL d   1      33.176  18.766 -22.316  0.00  0.00     0.018 A 
ATOM      3  C   UNL d   1      33.187  19.544 -23.530  0.00  0.00     0.018 A 
ATOM      4  C   UNL d   1      33.216  20.196 -22.252  0.00  0.00     0.000 A 
ATOM      5  C   UNL d   1      33.199  19.460 -21.880  0.00  0.00     0.002 A 
ATOM      6  C   UNL d   1      33.210  20.233 -23.088  0.00  0.00     0.002 A 
ENDROOT
BRANCH   4   7
ATOM      7  C   UNL d   1      33.238  20.893 -21.815  0.00  0.00     0.000 C 
BRANCH   7   8
ATOM      8  C   UNL d   1      32.537  21.229 -21.550  0.00  0.00     0.000 C 
BRANCH   8   9
ATOM      9  C   UNL d   1      32.562  21.909 -21.080  0.00  0.00     0.003 A 
ATOM     10  C   UNL d   1      32.333  22.617 -21.430  0.00  0.00     0.021 A 
ATOM     11  C   UNL d   1      32.347  23.323 -20.980  0.00  0.00     0.099 A 
ATOM     12  N   UNL d   1      32.591  23.303 -20.186  0.00  0.00    -0.242 NA
ATOM     13  C   UNL d   1      32.818  22.584 -19.849  0.00  0.00     0.099 A 
ATOM     14  C   UNL d   1      32.805  21.887 -20.289  0.00  0.00     0.021 A 
ENDBRANCH   8   9
ENDBRANCH   7   8
ENDBRANCH   4   7
BRANCH   1  15
ATOM     15  N   UNL d   1      33.147  18.108 -23.594  0.00  0.00    -0.301 N 
ATOM     16  C   UNL d   1      33.217  17.374 -23.216  0.00  0.00     0.100 C 
ATOM     17  C   UNL d   1      33.056  18.153 -24.414  0.00  0.00     0.100 C 
ENDBRANCH   1  15
TORSDOF 4
ENDMDL
MODEL 3
REMARK VINA RESULT:      -2.8      0.745      1.281
REMARK  4 active torsions:
REMARK  status: ('A' for Active; 'I' for Inactive)
REMARK    1  A    between atoms: C_2  and  C_1 
REMARK    2  A    between atoms: C_8  and  C_1 
REMARK    3  A    between atoms: C_9  and  C_2 
REMARK    4  A    between atoms: N_4  and  C_3 
ROOT
ATOM      1  C   UNL d   1      32.848  21.483 -21.419  0.00  0.00     0.064 A 
ATOM      2  C   UNL d   1      32.717  20.739 -21.090  0.00  0.00     0.018 A 
ATOM      3  C   UNL d   1      33.110  21.564 -22.206  0.00  0.00     0.018 A 
ATOM      4  C   UNL d   1      33.108  20.134 -22.328  0.00  0.00     0.000 A 
ATOM      5  C   UNL d   1      32.848  20.071 -21.547  0.00  0.00     0.002 A 
ATOM      6  C   UNL d   1      33.239  20.892 -22.656  0.00  0.00     0.002 A 
ENDROOT
BRANCH   4   7
ATOM      7  C   UNL d   1      33.240  19.464 -22.787  0.00  0.00     0.000 C 
BRANCH   7   8
ATOM      8  C   UNL d   1      32.600  19.026 -23.060  0.00  0.00     0.000 C 
BRANCH   8   9
ATOM      9  C   UNL d   1      32.731  18.370 -23.546  0.00  0.00     0.003 A 
ATOM     10  C   UNL d   1      32.558  17.630 -23.234  0.00  0.00     0.021 A 
ATOM     11  C   UNL d   1      32.679  16.946 -23.700  0.00  0.00     0.099 A 
ATOM     12  N   UNL d   1      32.974  17.020 -24.474  0.00  0.00    -0.242 NA
ATOM     13  C   UNL d   1      33.143  17.771 -24.773  0.00  0.00     0.099 A 
ATOM     14  C   UNL d   1      33.025  18.446 -24.316  0.00  0.00     0.021 A 
ENDBRANCH   8   9
ENDBRANCH   7   8
ENDBRANCH   4   7
BRANCH   1  15
ATOM     15  N   UNL d   1      32.718  22.171 -20.963  0.00  0.00    -0.301 N 
ATOM     16  C   UNL d   1      32.068  22.655 -21.134  0.00  0.00     0.100 C 
ATOM     17  C   UNL d   1      33.236  22.362 -20.348  0.00  0.00     0.100 C 
ENDBRANCH   1  15
TORSDOF 4
ENDMDL
MODEL 4
REMARK VINA RESULT:      -2.3      3.314      5.771
REMARK  4 active torsions:
REMARK  status: ('A' for Active; 'I' for Inactive)
REMARK    1  A    between atoms: C_2  and  C_1 
REMARK    2  A    between atoms: C_8  and  C_1 
REMARK    3  A    between atoms: C_9  and  C_2 
REMARK    4  A    between atoms: N_4  and  C_3 
ROOT
ATOM      1  C   UNL d   1      29.030  16.130 -23.836  0.00  0.00     0.064 A 
ATOM      2  C   UNL d   1      29.771  15.773 -23.875  0.00  0.00     0.018 A 
ATOM      3  C   UNL d   1      28.927  16.930 -24.043  0.00  0.00     0.018 A 
ATOM      4  C   UNL d   1      30.331  17.010 -24.331  0.00  0.00     0.000 A 
ATOM      5  C   UNL d   1      30.415  16.216 -24.122  0.00  0.00     0.002 A 
ATOM      6  C   UNL d   1      29.575  17.366 -24.289  0.00  0.00     0.002 A 
ENDROOT
BRANCH   4   7
ATOM      7  C   UNL d   1      30.977  17.455 -24.579  0.00  0.00     0.000 C 
BRANCH   7   8
ATOM      8  C   UNL d   1      31.617  17.558 -24.074  0.00  0.00     0.000 C 
BRANCH   8   9
ATOM      9  C   UNL d   1      32.156  18.168 -24.217  0.00  0.00     0.003 A 
ATOM     10  C   UNL d   1      32.461  18.562 -23.562  0.00  0.00     0.021 A 
ATOM     11  C   UNL d   1      33.009  19.184 -23.673  0.00  0.00     0.099 A 
ATOM     12  N   UNL d   1      33.240  19.400 -24.441  0.00  0.00    -0.242 NA
ATOM     13  C   UNL d   1      32.925  18.995 -25.089  0.00  0.00     0.099 A 
ATOM     14  C   UNL d   1      32.385  18.382 -24.983  0.00  0.00     0.021 A 
ENDBRANCH   8   9
ENDBRANCH   7   8
ENDBRANCH   4   7
BRANCH   1  15
ATOM     15  N   UNL d   1      28.365  15.688 -23.585  0.00  0.00    -0.301 N 
ATOM     16  C   UNL d   1      27.800  15.453 -24.143  0.00  0.00     0.100 C 
ATOM     17  C   UNL d   1      28.278  15.491 -22.787  0.00  0.00     0.100 C 
ENDBRANCH   1  15
TORSDOF 4
ENDMDL
MODEL 5
REMARK VINA RESULT:      -2.3      1.032      4.731
REMARK  4 active torsions:
REMARK  status: ('A' for Active; 'I' for Inactive)
REMARK    1  A    between atoms: C_2  and  C_1 
REMARK    2  A    between atoms: C_8  and  C_1 
REMARK    3  A    between atoms: C_9  and  C_2 
REMARK    4  A    between atoms: N_4  and  C_3 
ROOT
ATOM      1  C   UNL d   1      32.551  17.365 -23.709  0.00  0.00     0.064 A 
ATOM      2  C   UNL d   1      33.018  17.265 -23.038  0.00  0.00     0.018 A 
ATOM      3  C   UNL d   1      32.305  18.124 -23.951  0.00  0.00     0.018 A 
ATOM      4  C   UNL d   1      33.005  18.682 -22.829  0.00  0.00     0.000 A 
ATOM      5  C   UNL d   1      33.240  17.924 -22.604  0.00  0.00     0.002 A 
ATOM      6  C   UNL d   1      32.531  18.777 -23.512  0.00  0.00     0.002 A 
ENDROOT
BRANCH   4   7
ATOM      7  C   UNL d   1      33.229  19.343 -22.394  0.00  0.00     0.000 C 
BRANCH   7   8
ATOM      8  C   UNL d   1      32.693  19.956 -22.283  0.00  0.00     0.000 C 
BRANCH   8   9
ATOM      9  C   UNL d   1      32.872  20.563 -21.750  0.00  0.00     0.003 A 
ATOM     10  C   UNL d   1      33.055  20.345 -20.979  0.00  0.00     0.021 A 
ATOM     11  C   UNL d   1      33.240  20.936 -20.416  0.00  0.00     0.099 A 
ATOM     12  N   UNL d   1      33.237  21.736 -20.639  0.00  0.00    -0.242 NA
ATOM     13  C   UNL d   1      33.051  21.939 -21.418  0.00  0.00     0.099 A 
ATOM     14  C   UNL d   1      32.868  21.360 -21.975  0.00  0.00     0.021 A 
ENDBRANCH   8   9
ENDBRANCH   7   8
ENDBRANCH   4   7
BRANCH   1  15
ATOM     15  N   UNL d   1      32.318  16.701 -24.160  0.00  0.00    -0.301 N 
ATOM     16  C   UNL d   1      31.545  16.661 -24.454  0.00  0.00     0.100 C 
ATOM     17  C   UNL d   1      32.858  16.093 -24.308  0.00  0.00     0.100 C 
ENDBRANCH   1  15
TORSDOF 4
ENDMDL
MODEL 6
REMARK VINA RESULT:      -0.7      3.944      6.217
REMARK  4 active torsions:
REMARK  status: ('A' for Active; 'I' for Inactive)
REMARK    1  A    between atoms: C_2  and  C_1 
REMARK    2  A    between atoms: C_8  and  C_1 
REMARK    3  A    between atoms: C_9  and  C_2 
REMARK    4  A    between atoms: N_4  and  C_3 
ROOT
ATOM      1  C   UNL d   1      28.349  15.683 -23.685  0.00  0.00     0.064 A 
ATOM      2  C   UNL d   1      28.762  15.831 -22.989  0.00  0.00     0.018 A 
ATOM      3  C   UNL d   1      28.738  15.676 -24.422  0.00  0.00     0.018 A 
ATOM      4  C   UNL d   1      29.969  15.972 -23.747  0.00  0.00     0.000 A 
ATOM      5  C   UNL d   1      29.568  15.975 -23.025  0.00  0.00     0.002 A 
ATOM      6  C   UNL d   1      29.543  15.821 -24.451  0.00  0.00     0.002 A 
ENDROOT
BRANCH   4   7
ATOM      7  C   UNL d   1      30.779  16.117 -23.784  0.00  0.00     0.000 C 
BRANCH   7   8
ATOM      8  C   UNL d   1      31.058  16.754 -24.220  0.00  0.00     0.000 C 
BRANCH   8   9
ATOM      9  C   UNL d   1      31.794  17.084 -24.036  0.00  0.00     0.003 A 
ATOM     10  C   UNL d   1      31.802  17.865 -23.778  0.00  0.00     0.021 A 
ATOM     11  C   UNL d   1      32.530  18.228 -23.584  0.00  0.00     0.099 A 
ATOM     12  N   UNL d   1      33.238  17.798 -23.653  0.00  0.00    -0.242 NA
ATOM     13  C   UNL d   1      33.213  17.014 -23.914  0.00  0.00     0.099 A 
ATOM     14  C   UNL d   1      32.498  16.654 -24.106  0.00  0.00     0.021 A 
ENDBRANCH   8   9
ENDBRANCH   7   8
ENDBRANCH   4   7
BRANCH   1  15
ATOM     15  N   UNL d   1      27.526  15.535 -23.661  0.00  0.00    -0.301 N 
ATOM     16  C   UNL d   1      27.105  15.459 -24.370  0.00  0.00     0.100 C 
ATOM     17  C   UNL d   1      27.142  15.465 -22.932  0.00  0.00     0.100 C 
ENDBRANCH   1  15
TORSDOF 4
ENDMDL
MODEL 7
REMARK VINA RESULT:      -0.5      1.984      3.340
REMARK  4 active torsions:
REMARK  status: ('A' for Active; 'I' for Inactive)
REMARK    1  A    between atoms: C_2  and  C_1 
REMARK    2  A    between atoms: C_8  and  C_1 
REMARK    3  A    between atoms: C_9  and  C_2 
REMARK    4  A    between atoms: N_4  and  C_3 
ROOT
ATOM      1  C   UNL d   1      32.951  22.782 -17.880  0.00  0.00     0.064 A 
ATOM      2  C   UNL d   1      33.100  22.027 -18.172  0.00  0.00     0.018 A 
ATOM      3  C   UNL d   1      32.829  23.426 -18.395  0.00  0.00     0.018 A 
ATOM      4  C   UNL d   1      33.009  22.538 -19.508  0.00  0.00     0.000 A 
ATOM      5  C   UNL d   1      33.128  21.911 -18.983  0.00  0.00     0.002 A 
ATOM      6  C   UNL d   1      32.859  23.303 -19.204  0.00  0.00     0.002 A 
ENDROOT
BRANCH   4   7
ATOM      7  C   UNL d   1      33.037  22.421 -20.322  0.00  0.00     0.000 C 
BRANCH   7   8
ATOM      8  C   UNL d   1      32.789  21.705 -20.638  0.00  0.00     0.000 C 
BRANCH   8   9
ATOM      9  C   UNL d   1      32.872  21.566 -21.449  0.00  0.00     0.003 A 
ATOM     10  C   UNL d   1      33.146  20.826 -21.677  0.00  0.00     0.021 A 
ATOM     11  C   UNL d   1      33.241  20.653 -22.491  0.00  0.00     0.099 A 
ATOM     12  N   UNL d   1      33.058  21.230 -23.060  0.00  0.00    -0.242 NA
ATOM     13  C   UNL d   1      32.783  21.970 -22.815  0.00  0.00     0.099 A 
ATOM     14  C   UNL d   1      32.689  22.143 -22.015  0.00  0.00     0.021 A 
ENDBRANCH   8   9
ENDBRANCH   7   8
ENDBRANCH   4   7
BRANCH   1  15
ATOM     15  N   UNL d   1      32.921  22.913 -17.055  0.00  0.00    -0.301 N 
ATOM     16  C   UNL d   1      32.966  23.687 -16.764  0.00  0.00     0.100 C 
ATOM     17  C   UNL d   1      32.846  22.272 -16.538  0.00  0.00     0.100 C 
ENDBRANCH   1  15
TORSDOF 4
ENDMDL
MODEL 8
REMARK VINA RESULT:      -0.5      2.597      3.299
REMARK  4 active torsions:
REMARK  status: ('A' for Active; 'I' for Inactive)
REMARK    1  A    between atoms: C_2  and  C_1 
REMARK    2  A    between atoms: C_8  and  C_1 
REMARK    3  A    between atoms: C_9  and  C_2 
REMARK    4  A    between atoms: N_4  and  C_3 
ROOT
ATOM      1  C   UNL d   1      32.854  22.909 -19.166  0.00  0.00     0.064 A 
ATOM      2  C   UNL d   1      32.797  22.231 -19.630  0.00  0.00     0.018 A 
ATOM      3  C   UNL d   1      33.021  23.650 -19.507  0.00  0.00     0.018 A 
ATOM      4  C   UNL d   1      33.073  23.018 -20.795  0.00  0.00     0.000 A 
ATOM      5  C   UNL d   1      32.907  22.291 -20.440  0.00  0.00     0.002 A 
ATOM      6  C   UNL d   1      33.130  23.702 -20.317  0.00  0.00     0.002 A 
ENDROOT
BRANCH   4   7
ATOM      7  C   UNL d   1      33.184  23.078 -21.608  0.00  0.00     0.000 C 
BRANCH   7   8
ATOM      8  C   UNL d   1      33.069  22.419 -22.084  0.00  0.00     0.000 C 
BRANCH   8   9
ATOM      9  C   UNL d   1      33.065  22.504 -22.906  0.00  0.00     0.003 A 
ATOM     10  C   UNL d   1      32.878  23.246 -23.207  0.00  0.00     0.021 A 
ATOM     11  C   UNL d   1      32.865  23.364 -24.035  0.00  0.00     0.099 A 
ATOM     12  N   UNL d   1      33.042  22.734 -24.546  0.00  0.00    -0.242 NA
ATOM     13  C   UNL d   1      33.228  21.994 -24.228  0.00  0.00     0.099 A 
ATOM     14  C   UNL d   1      33.241  21.874 -23.413  0.00  0.00     0.021 A 
ENDBRANCH   8   9
ENDBRANCH   7   8
ENDBRANCH   4   7
BRANCH   1  15
ATOM     15  N   UNL d   1      32.743  22.860 -18.339  0.00  0.00    -0.301 N 
ATOM     16  C   UNL d   1      32.575  23.548 -17.909  0.00  0.00     0.100 C 
ATOM     17  C   UNL d   1      32.802  22.129 -17.957  0.00  0.00     0.100 C 
ENDBRANCH   1  15
TORSDOF 4
ENDMDL
