MODEL 1
REMARK VINA RESULT:      65.1      0.000      0.000
REMARK  6 active torsions:
REMARK  status: ('A' for Active; 'I' for Inactive)
REMARK    1  A    between atoms: C_9  and  C_3 
REMARK    2  A    between atoms: C_4  and  C_18 
REMARK       I    between atoms: N_7  and  C_4 
REMARK    3  A    between atoms: S_11  and  C_5 
REMARK       I    between atoms: C_6  and  N_8 
REMARK    4  A    between atoms: C_12  and  N_7 
REMARK    5  A    between atoms: N_8  and  C_13 
REMARK    6  A    between atoms: C_18  and  S_11 
ROOT
ATOM      1  C   UNL d   1      61.173  49.003  51.588  0.00  0.00     0.099 C 
ENDROOT
BRANCH   1   2
ATOM      2  C   UNL d   1      61.277  48.473  50.968  0.00  0.00     0.286 C 
ATOM      3  N   UNL d   1      61.769  47.818  51.062  0.00  0.00    -0.207 NA
ATOM      4  O   UNL d   1      60.890  48.596  50.249  0.00  0.00    -0.265 OA
BRANCH   3   5
ATOM      5  C   UNL d   1      61.874  47.285  50.437  0.00  0.00     0.086 A 
ATOM      6  C   UNL d   1      61.320  46.693  50.312  0.00  0.00     0.038 A 
ATOM      7  C   UNL d   1      61.425  46.162  49.689  0.00  0.00     0.086 A 
ATOM      8  C   UNL d   1      62.086  46.231  49.199  0.00  0.00     0.019 A 
ATOM      9  C   UNL d   1      62.636  46.832  49.337  0.00  0.00     0.003 A 
ATOM     10  C   UNL d   1      62.532  47.356  49.952  0.00  0.00     0.019 A 
BRANCH   7  11
ATOM     11  N   UNL d   1      60.871  45.564  49.556  0.00  0.00    -0.208 NA
ATOM     12  C   UNL d   1      61.101  44.854  49.215  0.00  0.00     0.279 C 
ATOM     13  O   UNL d   1      61.900  44.739  49.002  0.00  0.00    -0.265 OA
ATOM     14  C   UNL d   1      60.556  44.255  49.081  0.00  0.00     0.068 C 
ENDBRANCH   7  11
ENDBRANCH   3   5
ENDBRANCH   1   2
BRANCH   1  15
ATOM     15  S   UNL d   1      60.752  49.696  51.462  0.00  0.00    -0.061 SA
BRANCH  15  16
ATOM     16  C   UNL d   1      59.984  49.670  51.162  0.00  0.00     0.133 A 
ATOM     17  N   UNL d   1      59.339  49.708  51.665  0.00  0.00    -0.141 NA
ATOM     18  N   UNL d   1      58.571  49.682  51.365  0.00  0.00    -0.148 NA
ATOM     19  C   UNL d   1      58.446  49.617  50.548  0.00  0.00     0.104 A 
ATOM     20  C   UNL d   1      59.095  49.579  50.038  0.00  0.00     0.023 A 
ATOM     21  C   UNL d   1      59.860  49.605  50.340  0.00  0.00     0.029 A 
BRANCH  19  22
ATOM     22  C   UNL d   1      57.678  49.591  50.248  0.00  0.00     0.039 A 
ATOM     23  C   UNL d   1      57.049  49.505  50.758  0.00  0.00     0.101 A 
ATOM     24  N   UNL d   1      56.285  49.479  50.465  0.00  0.00    -0.242 NA
ATOM     25  C   UNL d   1      56.154  49.540  49.645  0.00  0.00     0.099 A 
ATOM     26  C   UNL d   1      56.789  49.627  49.137  0.00  0.00     0.021 A 
ATOM     27  C   UNL d   1      57.562  49.654  49.428  0.00  0.00     0.005 A 
ENDBRANCH  19  22
ENDBRANCH  15  16
ENDBRANCH   1  15
TORSDOF 6
ENDMDL
