MODEL 1
REMARK VINA RESULT:      41.5      0.000      0.000
REMARK  2 active torsions:
REMARK  status: ('A' for Active; 'I' for Inactive)
REMARK    1  A    between atoms: N_7  and  C_3 
REMARK       I    between atoms: C_8  and  N_7 
REMARK    2  A    between atoms: C_10  and  C_8 
ROOT
ATOM      1  C   UNL d   1      14.914  15.720  -1.428  0.00  0.00     0.343 A 
ATOM      2  N   UNL d   1      14.558  15.338  -2.058  0.00  0.00    -0.241 N 
ATOM      3  C   UNL d   1      14.452  14.523  -2.041  0.00  0.00     0.159 A 
ATOM      4  N   UNL d   1      15.169  15.286  -0.773  0.00  0.00    -0.224 N 
ATOM      5  C   UNL d   1      14.707  14.089  -1.386  0.00  0.00     0.099 A 
ATOM      6  C   UNL d   1      15.070  14.466  -0.741  0.00  0.00     0.271 A 
ATOM      7  O   UNL d   1      15.020  16.540  -1.447  0.00  0.00    -0.245 OA
ATOM      8  O   UNL d   1      15.322  14.037  -0.092  0.00  0.00    -0.266 OA
ATOM      9  C   UNL d   1      14.303  15.771  -2.713  0.00  0.00     0.105 C 
ATOM     10  C   UNL d   1      15.530  15.673  -0.137  0.00  0.00     0.107 C 
ENDROOT
BRANCH   3  11
ATOM     11  N   UNL d   1      14.091  14.135  -2.678  0.00  0.00    -0.190 NA
ATOM     12  C   UNL d   1      14.198  13.324  -2.781  0.00  0.00     0.280 C 
ATOM     13  O   UNL d   1      14.665  12.897  -2.250  0.00  0.00    -0.265 OA
BRANCH  12  14
ATOM     14  C   UNL d   1      13.838  12.941  -3.415  0.00  0.00     0.058 A 
ATOM     15  C   UNL d   1      14.115  12.217  -3.648  0.00  0.00     0.006 A 
ATOM     16  C   UNL d   1      13.763  11.834  -4.274  0.00  0.00     0.012 A 
ATOM     17  C   UNL d   1      13.129  12.167  -4.677  0.00  0.00     0.058 A 
ATOM     18  C   UNL d   1      12.847  12.925  -4.424  0.00  0.00     0.012 A 
ATOM     19 CL   UNL d   1      12.769  11.780  -5.313  0.00  0.00    -0.082 Cl
ATOM     20  C   UNL d   1      13.198  13.308  -3.799  0.00  0.00     0.006 A 
ENDBRANCH  12  14
ENDBRANCH   3  11
TORSDOF 2
ENDMDL
