MODEL 1
REMARK VINA RESULT:      43.1      0.000      0.000
REMARK  6 active torsions:
REMARK  status: ('A' for Active; 'I' for Inactive)
REMARK    1  A    between atoms: C_4  and  C_1 
REMARK       I    between atoms: N_6  and  C_1 
REMARK    2  A    between atoms: C_7  and  C_4 
REMARK    3  A    between atoms: O_20  and  C_5 
REMARK    4  A    between atoms: C_8  and  N_6 
REMARK    5  A    between atoms: C_13  and  C_7 
REMARK    6  A    between atoms: O_21  and  C_10 
ROOT
ATOM      1  C   UNL d   1      13.677  15.477  -4.913  0.00  0.00     0.076 C 
ENDROOT
BRANCH   1   2
ATOM      2  C   UNL d   1      13.975  15.812  -5.580  0.00  0.00     0.328 C 
ATOM      3  N   UNL d   1      13.866  16.615  -5.740  0.00  0.00    -0.365 NA
ATOM      4  O   UNL d   1      14.400  15.351  -6.121  0.00  0.00    -0.251 OA
BRANCH   3   5
ATOM      5  C   UNL d   1      13.749  17.433  -5.891  0.00  0.00     0.136 A 
ATOM      6  C   UNL d   1      14.339  17.975  -5.715  0.00  0.00     0.044 A 
ATOM      7  C   UNL d   1      14.228  18.803  -5.865  0.00  0.00     0.071 A 
ATOM      8 CL   UNL d   1      14.810  19.338  -5.691  0.00  0.00    -0.081 Cl
ATOM      9  C   UNL d   1      13.504  19.040  -6.195  0.00  0.00     0.069 A 
ATOM     10  C   UNL d   1      12.914  18.498  -6.371  0.00  0.00     0.015 A 
ATOM     11 CL   UNL d   1      13.408  19.850  -6.337  0.00  0.00    -0.082 Cl
ATOM     12  C   UNL d   1      13.021  17.694  -6.226  0.00  0.00     0.033 A 
ENDBRANCH   3   5
ENDBRANCH   1   2
BRANCH   1  13
ATOM     13  C   UNL d   1      13.062  14.921  -4.962  0.00  0.00     0.006 C 
BRANCH  13  14
ATOM     14  C   UNL d   1      13.111  14.223  -4.526  0.00  0.00     0.002 A 
ATOM     15  C   UNL d   1      13.194  13.491  -4.893  0.00  0.00     0.026 A 
ATOM     16  C   UNL d   1      13.242  12.800  -4.446  0.00  0.00     0.116 A 
ATOM     17  C   UNL d   1      13.208  12.832  -3.627  0.00  0.00     0.116 A 
ATOM     18  C   UNL d   1      13.123  13.572  -3.240  0.00  0.00     0.026 A 
ATOM     19  C   UNL d   1      13.075  14.263  -3.687  0.00  0.00     0.002 A 
BRANCH  16  20
ATOM     20  O   UNL d   1      13.326  12.063  -4.829  0.00  0.00    -0.326 OA
ATOM     21  C   UNL d   1      13.761  12.011  -5.523  0.00  0.00     0.181 C 
ENDBRANCH  16  20
BRANCH  17  22
ATOM     22  O   UNL d   1      13.256  12.144  -3.181  0.00  0.00    -0.326 OA
ATOM     23  C   UNL d   1      13.939  12.003  -2.724  0.00  0.00     0.181 C 
ENDBRANCH  17  22
ENDBRANCH  13  14
ENDBRANCH   1  13
TORSDOF 6
ENDMDL
