MODEL 1
REMARK VINA RESULT:      43.4      0.000      0.000
REMARK  1 active torsions:
REMARK  status: ('A' for Active; 'I' for Inactive)
REMARK    1  A    between atoms: C_13  and  C_7 
ROOT
ATOM      1  C   UNL d   1     -59.456 -98.859 -43.955  0.00  0.00     0.120 A 
ATOM      2  C   UNL d   1     -58.631 -98.885 -43.958  0.00  0.00     0.058 A 
ATOM      3  N   UNL d   1     -59.703 -98.852 -43.169  0.00  0.00    -0.195 NA
ATOM      4  S   UNL d   1     -59.867 -98.847 -44.660  0.00  0.00    -0.072 SA
ATOM      5  C   UNL d   1     -59.460 -98.859 -45.370  0.00  0.00     0.009 A 
ATOM      6  C   UNL d   1     -58.635 -98.884 -45.376  0.00  0.00    -0.015 A 
ATOM      7  C   UNL d   1     -58.225 -98.897 -44.668  0.00  0.00     0.005 A 
ATOM      8  C   UNL d   1     -59.032 -98.872 -42.684  0.00  0.00     0.311 A 
ATOM      9  S   UNL d   1     -58.369 -98.893 -43.181  0.00  0.00    -0.024 SA
ATOM     10  C   UNL d   1     -58.226 -98.897 -46.094  0.00  0.00     0.045 A 
ATOM     11  C   UNL d   1     -59.878 -98.847 -46.082  0.00  0.00     0.050 A 
ATOM     12  C   UNL d   1     -59.090 -98.871 -45.842  0.00  0.00     0.018 A 
ATOM     13  O   UNL d   1     -59.022 -98.873 -41.856  0.00  0.00    -0.258 OA
ATOM     14  C   UNL d   1     -58.643 -98.884 -46.806  0.00  0.00    -0.026 A 
ATOM     15  C   UNL d   1     -59.469 -98.859 -46.799  0.00  0.00    -0.026 A 
ENDROOT
BRANCH   7  16
ATOM     16  C   UNL d   1     -57.404 -98.922 -44.670  0.00  0.00     0.001 A 
ATOM     17  C   UNL d   1     -56.995 -99.116 -43.975  0.00  0.00     0.003 A 
ATOM     18  C   UNL d   1     -56.178 -99.140 -43.979  0.00  0.00     0.042 A 
ATOM     19  C   UNL d   1     -55.755 -98.973 -44.675  0.00  0.00     0.196 A 
ATOM     20  C   UNL d   1     -56.174 -98.780 -45.366  0.00  0.00     0.042 A 
ATOM     21  O   UNL d   1     -54.931 -98.998 -44.677  0.00  0.00    -0.287 OA
ATOM     22  C   UNL d   1     -56.992 -98.756 -45.357  0.00  0.00     0.003 A 
ENDBRANCH   7  16
TORSDOF 1
ENDMDL
