MODEL 1
REMARK VINA RESULT:      42.8      0.000      0.000
REMARK  6 active torsions:
REMARK  status: ('A' for Active; 'I' for Inactive)
REMARK    1  A    between atoms: C_2  and  S_1 
REMARK    2  A    between atoms: N_4  and  S_1 
REMARK    3  A    between atoms: C_9  and  C_17 
REMARK       I    between atoms: N_20  and  C_9 
REMARK    4  A    between atoms: C_18  and  C_25 
REMARK    5  A    between atoms: C_24  and  N_20 
REMARK    6  A    between atoms: C_25  and  C_24 
ROOT
ATOM      1  N   UNL d   1      44.448 -16.109  37.582  0.00  0.00    -0.229 N 
ATOM      2  C   UNL d   1      44.739 -16.840  37.320  0.00  0.00     0.092 A 
ATOM      3  C   UNL d   1      44.393 -15.961  38.391  0.00  0.00     0.092 A 
ATOM      4  C   UNL d   1      44.914 -17.262  38.678  0.00  0.00     0.061 A 
ATOM      5  C   UNL d   1      44.625 -16.535  38.936  0.00  0.00     0.025 A 
ATOM      6  C   UNL d   1      44.971 -17.414  37.865  0.00  0.00     0.025 A 
ENDROOT
BRANCH   1   7
ATOM      7  S   UNL d   1      44.215 -15.533  37.034  0.00  0.00     0.273 S 
ATOM      8  O   UNL d   1      43.984 -14.961  36.490  0.00  0.00    -0.200 OA
ATOM      9  O   UNL d   1      43.423 -15.704  37.191  0.00  0.00    -0.200 OA
BRANCH   7  10
ATOM     10  C   UNL d   1      45.011 -15.362  36.876  0.00  0.00     0.125 A 
ATOM     11  C   UNL d   1      45.333 -14.637  37.103  0.00  0.00     0.142 A 
ATOM     12  C   UNL d   1      46.124 -14.467  36.946  0.00  0.00     0.131 A 
ATOM     13  N   UNL d   1      44.999 -13.986  37.490  0.00  0.00    -0.101 NA
ATOM     14  N   UNL d   1      46.285 -13.709  37.234  0.00  0.00    -0.102 NA
ATOM     15  C   UNL d   1      46.600 -15.019  36.561  0.00  0.00     0.023 A 
ATOM     16  O   UNL d   1      45.596 -13.412  37.569  0.00  0.00    -0.106 OA
ATOM     17  C   UNL d   1      46.278 -15.752  36.330  0.00  0.00     0.002 A 
ATOM     18  C   UNL d   1      45.488 -15.922  36.487  0.00  0.00     0.015 A 
ENDBRANCH   7  10
ENDBRANCH   1   7
BRANCH   4  19
ATOM     19  C   UNL d   1      45.143 -17.828  39.225  0.00  0.00     0.279 C 
ATOM     20  O   UNL d   1      44.926 -18.610  39.125  0.00  0.00    -0.265 OA
ATOM     21  N   UNL d   1      45.599 -17.610  39.886  0.00  0.00    -0.206 NA
BRANCH  21  22
ATOM     22  C   UNL d   1      45.833 -18.185  40.445  0.00  0.00     0.102 C 
BRANCH  22  23
ATOM     23  C   UNL d   1      46.223 -17.957  41.141  0.00  0.00     0.021 C 
BRANCH  23  24
ATOM     24  C   UNL d   1      46.311 -18.503  41.759  0.00  0.00     0.002 A 
ATOM     25  C   UNL d   1      46.155 -19.297  41.633  0.00  0.00     0.000 A 
ATOM     26  C   UNL d   1      46.243 -19.842  42.251  0.00  0.00     0.000 A 
ATOM     27  C   UNL d   1      46.487 -19.592  42.993  0.00  0.00     0.000 A 
ATOM     28  C   UNL d   1      46.647 -18.787  43.125  0.00  0.00     0.000 A 
ATOM     29  C   UNL d   1      46.559 -18.241  42.507  0.00  0.00     0.000 A 
ENDBRANCH  23  24
ENDBRANCH  22  23
ENDBRANCH  21  22
ENDBRANCH   4  19
TORSDOF 6
ENDMDL
MODEL 2
REMARK VINA RESULT:      44.8      1.140      1.577
REMARK  6 active torsions:
REMARK  status: ('A' for Active; 'I' for Inactive)
REMARK    1  A    between atoms: C_2  and  S_1 
REMARK    2  A    between atoms: N_4  and  S_1 
REMARK    3  A    between atoms: C_9  and  C_17 
REMARK       I    between atoms: N_20  and  C_9 
REMARK    4  A    between atoms: C_18  and  C_25 
REMARK    5  A    between atoms: C_24  and  N_20 
REMARK    6  A    between atoms: C_25  and  C_24 
ROOT
ATOM      1  N   UNL d   1      45.326 -16.075  37.584  0.00  0.00    -0.229 N 
ATOM      2  C   UNL d   1      45.061 -16.851  37.460  0.00  0.00     0.092 A 
ATOM      3  C   UNL d   1      45.575 -15.846  38.335  0.00  0.00     0.092 A 
ATOM      4  C   UNL d   1      45.297 -17.155  38.840  0.00  0.00     0.061 A 
ATOM      5  C   UNL d   1      45.560 -16.384  38.961  0.00  0.00     0.025 A 
ATOM      6  C   UNL d   1      45.046 -17.388  38.085  0.00  0.00     0.025 A 
ENDROOT
BRANCH   1   7
ATOM      7  S   UNL d   1      45.341 -15.535  36.956  0.00  0.00     0.273 S 
ATOM      8  O   UNL d   1      45.355 -14.999  36.332  0.00  0.00    -0.200 OA
ATOM      9  O   UNL d   1      46.153 -15.437  37.059  0.00  0.00    -0.200 OA
BRANCH   7  10
ATOM     10  C   UNL d   1      44.524 -15.633  36.852  0.00  0.00     0.125 A 
ATOM     11  C   UNL d   1      43.996 -15.081  37.163  0.00  0.00     0.142 A 
ATOM     12  C   UNL d   1      43.184 -15.179  37.060  0.00  0.00     0.131 A 
ATOM     13  N   UNL d   1      44.122 -14.387  37.596  0.00  0.00    -0.101 NA
ATOM     14  N   UNL d   1      42.802 -14.546  37.428  0.00  0.00    -0.102 NA
ATOM     15  C   UNL d   1      42.893 -15.829  36.645  0.00  0.00     0.023 A 
ATOM     16  O   UNL d   1      43.374 -14.058  37.758  0.00  0.00    -0.106 OA
ATOM     17  C   UNL d   1      43.423 -16.389  36.330  0.00  0.00     0.002 A 
ATOM     18  C   UNL d   1      44.234 -16.291  36.433  0.00  0.00     0.015 A 
ENDBRANCH   7  10
ENDBRANCH   1   7
BRANCH   4  19
ATOM     19  C   UNL d   1      45.285 -17.686  39.466  0.00  0.00     0.279 C 
ATOM     20  O   UNL d   1      44.606 -18.108  39.636  0.00  0.00    -0.265 OA
ATOM     21  N   UNL d   1      45.965 -17.797  39.931  0.00  0.00    -0.206 NA
BRANCH  21  22
ATOM     22  C   UNL d   1      45.955 -18.337  40.569  0.00  0.00     0.102 C 
BRANCH  22  23
ATOM     23  C   UNL d   1      46.643 -18.473  41.013  0.00  0.00     0.021 C 
BRANCH  23  24
ATOM     24  C   UNL d   1      46.604 -18.936  41.699  0.00  0.00     0.002 A 
ATOM     25  C   UNL d   1      46.634 -19.753  41.647  0.00  0.00     0.000 A 
ATOM     26  C   UNL d   1      46.595 -20.217  42.333  0.00  0.00     0.000 A 
ATOM     27  C   UNL d   1      46.525 -19.863  43.070  0.00  0.00     0.000 A 
ATOM     28  C   UNL d   1      46.494 -19.033  43.127  0.00  0.00     0.000 A 
ATOM     29  C   UNL d   1      46.534 -18.570  42.441  0.00  0.00     0.000 A 
ENDBRANCH  23  24
ENDBRANCH  22  23
ENDBRANCH  21  22
ENDBRANCH   4  19
TORSDOF 6
ENDMDL
