MODEL 1
REMARK VINA RESULT:      34.8      0.000      0.000
REMARK  7 active torsions:
REMARK  status: ('A' for Active; 'I' for Inactive)
REMARK    1  A    between atoms: C_11  and  C_3 
REMARK    2  A    between atoms: C_10  and  C_4 
REMARK    3  A    between atoms: O_15  and  C_10 
REMARK    4  A    between atoms: N_14  and  C_11 
REMARK    5  A    between atoms: C_20  and  N_14 
REMARK    6  A    between atoms: C_22  and  O_15 
REMARK    7  A    between atoms: C_21  and  C_20 
ROOT
ATOM      1  C   UNL d   1      14.018  13.163  -2.164  0.00  0.00     0.035 A 
ATOM      2  C   UNL d   1      13.764  12.468  -2.528  0.00  0.00     0.100 A 
ATOM      3  C   UNL d   1      14.011  13.872  -2.585  0.00  0.00     0.060 A 
ATOM      4  C   UNL d   1      14.250  13.001  -1.383  0.00  0.00     0.088 A 
ATOM      5  O   UNL d   1      13.842  11.859  -1.951  0.00  0.00    -0.307 OA
ATOM      6  C   UNL d   1      14.140  12.195  -1.257  0.00  0.00     0.105 A 
ATOM      7  C   UNL d   1      13.749  13.884  -3.370  0.00  0.00     0.197 A 
ATOM      8  C   UNL d   1      13.505  12.481  -3.303  0.00  0.00     0.026 A 
ATOM      9  C   UNL d   1      13.498  13.189  -3.724  0.00  0.00     0.041 A 
ATOM     10  O   UNL d   1      13.742  14.604  -3.798  0.00  0.00    -0.286 OA
ATOM     11  C   UNL d   1      14.309  11.781  -0.521  0.00  0.00     0.027 C 
ATOM     12  C   UNL d   1      13.248  11.781  -3.674  0.00  0.00     0.002 A 
ATOM     13  C   UNL d   1      13.233  13.198  -4.516  0.00  0.00     0.003 A 
ATOM     14  C   UNL d   1      12.984  12.505  -4.866  0.00  0.00     0.000 A 
ATOM     15  C   UNL d   1      12.991  11.797  -4.445  0.00  0.00     0.000 A 
ENDROOT
BRANCH   3  16
ATOM     16  C   UNL d   1      14.274  14.559  -2.192  0.00  0.00     0.102 C 
BRANCH  16  17
ATOM     17  N   UNL d   1      14.283  15.289  -2.611  0.00  0.00    -0.239 NA
BRANCH  17  18
ATOM     18  C   UNL d   1      14.742  15.922  -2.316  0.00  0.00     0.144 C 
BRANCH  18  19
ATOM     19  C   UNL d   1      14.998  16.505  -2.833  0.00  0.00     0.255 C 
ATOM     20  O   UNL d   1      14.999  17.300  -2.612  0.00  0.00    -0.281 OA
ENDBRANCH  18  19
ENDBRANCH  17  18
ENDBRANCH  16  17
ENDBRANCH   3  16
BRANCH   4  21
ATOM     21  C   UNL d   1      14.552  13.540  -0.790  0.00  0.00     0.302 C 
ATOM     22  O   UNL d   1      14.035  13.943  -0.290  0.00  0.00    -0.259 OA
BRANCH  21  23
ATOM     23  O   UNL d   1      15.356  13.644  -0.733  0.00  0.00    -0.271 OA
BRANCH  23  24
ATOM     24  C   UNL d   1      15.711  13.849  -0.021  0.00  0.00     0.126 C 
ATOM     25  C   UNL d   1      16.491  14.133  -0.014  0.00  0.00     0.029 C 
ENDBRANCH  23  24
ENDBRANCH  21  23
ENDBRANCH   4  21
TORSDOF 7
ENDMDL
