MODEL 1
REMARK VINA RESULT:      20.4      0.000      0.000
REMARK  2 active torsions:
REMARK  status: ('A' for Active; 'I' for Inactive)
REMARK    1  A    between atoms: C_7  and  C_1 
REMARK    2  A    between atoms: C_8  and  C_7 
ROOT
ATOM      1  C   UNL d   1      57.807  49.633  50.829  0.00  0.00     0.116 A 
ATOM      2  N   UNL d   1      57.575  49.561  49.410  0.00  0.00    -0.152 NA
ATOM      3  N   UNL d   1      56.474  49.486  50.345  0.00  0.00    -0.152 NA
ATOM      4  C   UNL d   1      58.096  49.634  50.032  0.00  0.00     0.288 A 
ATOM      5  C   UNL d   1      57.005  49.559  50.979  0.00  0.00     0.288 A 
ATOM      6  C   UNL d   1      56.764  49.487  49.548  0.00  0.00     0.374 A 
ATOM      7  O   UNL d   1      58.901  49.708  49.891  0.00  0.00    -0.265 OA
ATOM      8  O   UNL d   1      56.728  49.558  51.743  0.00  0.00    -0.265 OA
ATOM      9  O   UNL d   1      56.226  49.412  48.902  0.00  0.00    -0.242 OA
ENDROOT
BRANCH   1  10
ATOM     10  C   UNL d   1      58.332  49.706  51.461  0.00  0.00     0.016 C 
BRANCH  10  11
ATOM     11  C   UNL d   1      59.479  49.595  51.286  0.00  0.00     0.030 A 
ATOM     12  S   UNL d   1      60.075  49.674  51.856  0.00  0.00    -0.080 SA
ATOM     13  C   UNL d   1      60.805  49.549  51.479  0.00  0.00     0.064 A 
ATOM     14 BR   UNL d   1      61.548  49.579  51.857  0.00  0.00    -0.042 Br
ATOM     15  C   UNL d   1      60.670  49.397  50.694  0.00  0.00     0.014 A 
ATOM     16  C   UNL d   1      59.838  49.425  50.567  0.00  0.00     0.007 A 
ENDBRANCH  10  11
ENDBRANCH   1  10
TORSDOF 2
ENDMDL
