MODEL 1
REMARK VINA RESULT:      87.6      0.000      0.000
REMARK  7 active torsions:
REMARK  status: ('A' for Active; 'I' for Inactive)
REMARK    1  A    between atoms: C_12  and  C_1 
REMARK    2  A    between atoms: C_14  and  C_4 
REMARK       I    between atoms: C_10  and  N_9 
REMARK    3  A    between atoms: O_22  and  C_10 
REMARK    4  A    between atoms: O_23  and  C_12 
REMARK    5  A    between atoms: N_13  and  C_14 
REMARK    6  A    between atoms: C_27  and  O_22 
REMARK    7  A    between atoms: C_28  and  O_23 
ROOT
ATOM      1  C   UNL d   1      60.260  49.546  51.968  0.00  0.00     0.088 A 
ATOM      2  C   UNL d   1      59.847  49.528  51.260  0.00  0.00     0.034 A 
ATOM      3  C   UNL d   1      59.037  49.615  51.422  0.00  0.00     0.100 A 
ATOM      4  C   UNL d   1      60.101  49.443  50.474  0.00  0.00     0.059 A 
ATOM      5  C   UNL d   1      59.700  49.646  52.585  0.00  0.00     0.105 A 
ATOM      6  O   UNL d   1      58.956  49.688  52.245  0.00  0.00    -0.307 OA
ATOM      7  C   UNL d   1      59.556  49.445  49.864  0.00  0.00     0.197 A 
ATOM      8  C   UNL d   1      58.496  49.617  50.801  0.00  0.00     0.026 A 
ATOM      9  C   UNL d   1      58.753  49.532  50.028  0.00  0.00     0.041 A 
ATOM     10  O   UNL d   1      59.806  49.360  49.076  0.00  0.00    -0.286 OA
ATOM     11  C   UNL d   1      59.876  49.692  53.384  0.00  0.00     0.027 C 
ATOM     12  C   UNL d   1      57.690  49.704  50.964  0.00  0.00     0.002 A 
ATOM     13  C   UNL d   1      58.207  49.534  49.410  0.00  0.00     0.003 A 
ATOM     14  C   UNL d   1      57.411  49.620  49.571  0.00  0.00     0.000 A 
ATOM     15  C   UNL d   1      57.150  49.706  50.356  0.00  0.00     0.000 A 
ENDROOT
BRANCH   4  16
ATOM     16  C   UNL d   1      60.911  49.356  50.312  0.00  0.00     0.084 C 
BRANCH  16  17
ATOM     17  N   UNL d   1      61.200  48.613  50.074  0.00  0.00    -0.300 N 
ATOM     18  C   UNL d   1      60.848  47.928  50.367  0.00  0.00     0.100 A 
ATOM     19  C   UNL d   1      61.137  47.186  50.128  0.00  0.00     0.104 A 
ATOM     20  N   UNL d   1      61.770  47.141  49.604  0.00  0.00    -0.249 N 
ATOM     21  C   UNL d   1      62.119  47.833  49.314  0.00  0.00     0.104 A 
ATOM     22  C   UNL d   1      62.049  46.425  49.374  0.00  0.00     0.378 C 
ATOM     23  C   UNL d   1      61.834  48.564  49.549  0.00  0.00     0.100 A 
ATOM     24  O   UNL d   1      62.683  46.368  48.849  0.00  0.00    -0.237 OA
BRANCH  22  25
ATOM     25  O   UNL d   1      61.703  45.726  49.662  0.00  0.00    -0.257 OA
BRANCH  25  26
ATOM     26  C   UNL d   1      61.633  45.076  49.154  0.00  0.00     0.128 C 
ATOM     27  C   UNL d   1      62.071  44.390  49.309  0.00  0.00     0.029 C 
ENDBRANCH  25  26
ENDBRANCH  22  25
ENDBRANCH  16  17
ENDBRANCH   4  16
BRANCH   1  28
ATOM     28  C   UNL d   1      61.074  49.477  52.044  0.00  0.00     0.302 C 
ATOM     29  O   UNL d   1      61.577  49.705  51.439  0.00  0.00    -0.259 OA
BRANCH  28  30
ATOM     30  O   UNL d   1      61.389  49.169  52.747  0.00  0.00    -0.271 OA
BRANCH  30  31
ATOM     31  C   UNL d   1      62.206  49.111  52.841  0.00  0.00     0.126 C 
ATOM     32  C   UNL d   1      62.711  49.487  52.301  0.00  0.00     0.029 C 
ENDBRANCH  30  31
ENDBRANCH  28  30
ENDBRANCH   1  28
TORSDOF 7
ENDMDL
