MODEL 1
REMARK VINA RESULT:      -8.4      0.000      0.000
REMARK  7 active torsions:
REMARK  status: ('A' for Active; 'I' for Inactive)
REMARK    1  A    between atoms: C_17  and  N_1 
REMARK       I    between atoms: C_4  and  N_7 
REMARK    2  A    between atoms: C_8  and  C_4 
REMARK    3  A    between atoms: N_7  and  C_26 
REMARK    4  A    between atoms: C_9  and  N_7 
REMARK    5  A    between atoms: C_27  and  C_17 
REMARK    6  A    between atoms: C_26  and  C_28 
REMARK    7  A    between atoms: C_28  and  C_27 
ROOT
ATOM      1  C   UNL d   1      52.983  34.190  54.013  0.00  0.00     0.287 C 
ATOM      2  N   UNL d   1      52.579  33.750  53.440  0.00  0.00    -0.272 N 
ATOM      3  O   UNL d   1      52.825  34.979  54.104  0.00  0.00    -0.264 OA
ENDROOT
BRANCH   2   4
ATOM      4  C   UNL d   1      52.028  34.114  52.973  0.00  0.00     0.083 C 
BRANCH   4   5
ATOM      5  C   UNL d   1      51.264  34.256  53.266  0.00  0.00     0.021 C 
BRANCH   5   6
ATOM      6  C   UNL d   1      50.696  34.580  52.782  0.00  0.00     0.021 C 
BRANCH   6   7
ATOM      7  C   UNL d   1      49.932  34.270  52.791  0.00  0.00     0.086 C 
BRANCH   7   8
ATOM      8  N   UNL d   1      49.287  34.760  52.571  0.00  0.00    -0.240 N 
ATOM      9  C   UNL d   1      48.953  35.311  53.028  0.00  0.00     0.267 A 
ATOM     10  C   UNL d   1      48.343  35.663  52.607  0.00  0.00     0.061 A 
ATOM     11  O   UNL d   1      49.179  35.518  53.832  0.00  0.00    -0.267 OA
ATOM     12  C   UNL d   1      47.818  36.254  52.796  0.00  0.00     0.005 A 
ATOM     13  C   UNL d   1      48.319  35.293  51.855  0.00  0.00     0.061 A 
ATOM     14  C   UNL d   1      47.253  36.490  52.235  0.00  0.00     0.000 A 
ATOM     15  C   UNL d   1      47.229  36.121  51.484  0.00  0.00     0.000 A 
ATOM     16  C   UNL d   1      47.771  35.523  51.309  0.00  0.00     0.005 A 
ATOM     17  C   UNL d   1      48.915  34.730  51.846  0.00  0.00     0.267 A 
ATOM     18  O   UNL d   1      49.095  34.217  51.185  0.00  0.00    -0.267 OA
ENDBRANCH   7   8
ENDBRANCH   6   7
ENDBRANCH   5   6
ENDBRANCH   4   5
ENDBRANCH   2   4
BRANCH   2  19
ATOM     19  C   UNL d   1      52.733  32.944  53.340  0.00  0.00     0.067 A 
ATOM     20  C   UNL d   1      52.305  32.376  53.762  0.00  0.00     0.018 A 
ATOM     21  C   UNL d   1      52.460  31.570  53.662  0.00  0.00     0.013 A 
ATOM     22  C   UNL d   1      53.042  31.331  53.138  0.00  0.00     0.058 A 
ATOM     23  C   UNL d   1      53.468  31.900  52.719  0.00  0.00     0.013 A 
ATOM     24 CL   UNL d   1      53.194  30.525  53.040  0.00  0.00    -0.082 Cl
ATOM     25  C   UNL d   1      53.316  32.705  52.816  0.00  0.00     0.018 A 
ENDBRANCH   2  19
BRANCH   1  26
ATOM     26  C   UNL d   1      53.541  33.822  54.486  0.00  0.00     0.156 A 
ATOM     27  O   UNL d   1      53.500  33.228  55.059  0.00  0.00    -0.300 OA
ATOM     28  C   UNL d   1      54.253  33.083  55.354  0.00  0.00     0.123 A 
ATOM     29  C   UNL d   1      54.748  33.572  54.978  0.00  0.00     0.029 A 
ATOM     30  C   UNL d   1      54.333  34.047  54.428  0.00  0.00     0.032 A 
ENDBRANCH   1  26
TORSDOF 7
ENDMDL
MODEL 2
REMARK VINA RESULT:      -8.4      1.494      2.373
REMARK  7 active torsions:
REMARK  status: ('A' for Active; 'I' for Inactive)
REMARK    1  A    between atoms: C_17  and  N_1 
REMARK       I    between atoms: C_4  and  N_7 
REMARK    2  A    between atoms: C_8  and  C_4 
REMARK    3  A    between atoms: N_7  and  C_26 
REMARK    4  A    between atoms: C_9  and  N_7 
REMARK    5  A    between atoms: C_27  and  C_17 
REMARK    6  A    between atoms: C_26  and  C_28 
REMARK    7  A    between atoms: C_28  and  C_27 
ROOT
ATOM      1  C   UNL d   1      51.982  32.773  53.138  0.00  0.00     0.287 C 
ATOM      2  N   UNL d   1      51.676  33.512  53.350  0.00  0.00    -0.272 N 
ATOM      3  O   UNL d   1      51.489  32.195  52.857  0.00  0.00    -0.264 OA
ENDROOT
BRANCH   2   4
ATOM      4  C   UNL d   1      50.883  33.653  53.274  0.00  0.00     0.083 C 
BRANCH   4   5
ATOM      5  C   UNL d   1      50.590  34.016  52.588  0.00  0.00     0.021 C 
BRANCH   5   6
ATOM      6  C   UNL d   1      49.817  34.271  52.561  0.00  0.00     0.021 C 
BRANCH   6   7
ATOM      7  C   UNL d   1      49.595  34.828  51.994  0.00  0.00     0.086 C 
BRANCH   7   8
ATOM      8  N   UNL d   1      48.809  35.121  51.992  0.00  0.00    -0.240 N 
ATOM      9  C   UNL d   1      48.261  34.961  51.445  0.00  0.00     0.267 A 
ATOM     10  C   UNL d   1      47.571  35.354  51.646  0.00  0.00     0.061 A 
ATOM     11  O   UNL d   1      48.359  34.461  50.751  0.00  0.00    -0.267 OA
ATOM     12  C   UNL d   1      46.840  35.391  51.292  0.00  0.00     0.005 A 
ATOM     13  C   UNL d   1      47.724  35.771  52.356  0.00  0.00     0.061 A 
ATOM     14  C   UNL d   1      46.242  35.849  51.642  0.00  0.00     0.000 A 
ATOM     15  C   UNL d   1      46.395  36.266  52.352  0.00  0.00     0.000 A 
ATOM     16  C   UNL d   1      47.143  36.217  52.698  0.00  0.00     0.005 A 
ATOM     17  C   UNL d   1      48.502  35.617  52.562  0.00  0.00     0.267 A 
ATOM     18  O   UNL d   1      48.899  35.930  53.253  0.00  0.00    -0.267 OA
ENDBRANCH   7   8
ENDBRANCH   6   7
ENDBRANCH   5   6
ENDBRANCH   4   5
ENDBRANCH   2   4
BRANCH   2  19
ATOM     19  C   UNL d   1      52.172  34.108  53.639  0.00  0.00     0.067 A 
ATOM     20  C   UNL d   1      52.552  34.629  53.121  0.00  0.00     0.018 A 
ATOM     21  C   UNL d   1      53.048  35.225  53.410  0.00  0.00     0.013 A 
ATOM     22  C   UNL d   1      53.163  35.300  54.217  0.00  0.00     0.058 A 
ATOM     23  C   UNL d   1      52.781  34.779  54.731  0.00  0.00     0.013 A 
ATOM     24 CL   UNL d   1      53.658  35.896  54.502  0.00  0.00    -0.082 Cl
ATOM     25  C   UNL d   1      52.286  34.183  54.446  0.00  0.00     0.018 A 
ENDBRANCH   2  19
BRANCH   1  26
ATOM     26  C   UNL d   1      52.785  32.630  53.215  0.00  0.00     0.156 A 
ATOM     27  O   UNL d   1      53.458  32.962  52.869  0.00  0.00    -0.300 OA
ATOM     28  C   UNL d   1      54.127  32.588  53.166  0.00  0.00     0.123 A 
ATOM     29  C   UNL d   1      53.880  32.041  53.680  0.00  0.00     0.029 A 
ATOM     30  C   UNL d   1      53.044  32.043  53.733  0.00  0.00     0.032 A 
ENDBRANCH   1  26
TORSDOF 7
ENDMDL
MODEL 3
REMARK VINA RESULT:      -8.3      1.299      2.243
REMARK  7 active torsions:
REMARK  status: ('A' for Active; 'I' for Inactive)
REMARK    1  A    between atoms: C_17  and  N_1 
REMARK       I    between atoms: C_4  and  N_7 
REMARK    2  A    between atoms: C_8  and  C_4 
REMARK    3  A    between atoms: N_7  and  C_26 
REMARK    4  A    between atoms: C_9  and  N_7 
REMARK    5  A    between atoms: C_27  and  C_17 
REMARK    6  A    between atoms: C_26  and  C_28 
REMARK    7  A    between atoms: C_28  and  C_27 
ROOT
ATOM      1  C   UNL d   1      52.515  31.843  53.016  0.00  0.00     0.287 C 
ATOM      2  N   UNL d   1      52.700  32.638  53.153  0.00  0.00    -0.272 N 
ATOM      3  O   UNL d   1      51.891  31.649  52.537  0.00  0.00    -0.264 OA
ENDROOT
BRANCH   2   4
ATOM      4  C   UNL d   1      52.255  33.218  52.806  0.00  0.00     0.083 C 
BRANCH   4   5
ATOM      5  C   UNL d   1      51.528  33.438  53.139  0.00  0.00     0.021 C 
BRANCH   5   6
ATOM      6  C   UNL d   1      50.947  33.763  52.670  0.00  0.00     0.021 C 
BRANCH   6   7
ATOM      7  C   UNL d   1      50.635  34.501  52.866  0.00  0.00     0.086 C 
BRANCH   7   8
ATOM      8  N   UNL d   1      49.894  34.732  52.548  0.00  0.00    -0.240 N 
ATOM      9  C   UNL d   1      49.640  34.574  51.816  0.00  0.00     0.267 A 
ATOM     10  C   UNL d   1      48.891  34.895  51.726  0.00  0.00     0.061 A 
ATOM     11  O   UNL d   1      50.066  34.140  51.207  0.00  0.00    -0.267 OA
ATOM     12  C   UNL d   1      48.371  34.905  51.101  0.00  0.00     0.005 A 
ATOM     13  C   UNL d   1      48.694  35.265  52.451  0.00  0.00     0.061 A 
ATOM     14  C   UNL d   1      47.639  35.286  51.187  0.00  0.00     0.000 A 
ATOM     15  C   UNL d   1      47.442  35.655  51.913  0.00  0.00     0.000 A 
ATOM     16  C   UNL d   1      47.982  35.636  52.537  0.00  0.00     0.005 A 
ATOM     17  C   UNL d   1      49.330  35.156  52.957  0.00  0.00     0.267 A 
ATOM     18  O   UNL d   1      49.372  35.442  53.762  0.00  0.00    -0.267 OA
ENDBRANCH   7   8
ENDBRANCH   6   7
ENDBRANCH   5   6
ENDBRANCH   4   5
ENDBRANCH   2   4
BRANCH   2  19
ATOM     19  C   UNL d   1      53.335  32.846  53.641  0.00  0.00     0.067 A 
ATOM     20  C   UNL d   1      53.227  32.945  54.455  0.00  0.00     0.018 A 
ATOM     21  C   UNL d   1      53.862  33.153  54.943  0.00  0.00     0.013 A 
ATOM     22  C   UNL d   1      54.605  33.262  54.616  0.00  0.00     0.058 A 
ATOM     23  C   UNL d   1      54.709  33.162  53.803  0.00  0.00     0.013 A 
ATOM     24 CL   UNL d   1      55.236  33.470  55.105  0.00  0.00    -0.082 Cl
ATOM     25  C   UNL d   1      54.078  32.955  53.314  0.00  0.00     0.018 A 
ENDBRANCH   2  19
BRANCH   1  26
ATOM     26  C   UNL d   1      52.965  31.256  53.368  0.00  0.00     0.156 A 
ATOM     27  O   UNL d   1      53.184  31.098  54.148  0.00  0.00    -0.300 OA
ATOM     28  C   UNL d   1      53.648  30.420  54.166  0.00  0.00     0.123 A 
ATOM     29  C   UNL d   1      53.716  30.164  53.422  0.00  0.00     0.029 A 
ATOM     30  C   UNL d   1      53.299  30.666  52.898  0.00  0.00     0.032 A 
ENDBRANCH   1  26
TORSDOF 7
ENDMDL
MODEL 4
REMARK VINA RESULT:      -7.0      1.955      6.051
REMARK  7 active torsions:
REMARK  status: ('A' for Active; 'I' for Inactive)
REMARK    1  A    between atoms: C_17  and  N_1 
REMARK       I    between atoms: C_4  and  N_7 
REMARK    2  A    between atoms: C_8  and  C_4 
REMARK    3  A    between atoms: N_7  and  C_26 
REMARK    4  A    between atoms: C_9  and  N_7 
REMARK    5  A    between atoms: C_27  and  C_17 
REMARK    6  A    between atoms: C_26  and  C_28 
REMARK    7  A    between atoms: C_28  and  C_27 
ROOT
ATOM      1  C   UNL d   1      48.447  35.116  51.914  0.00  0.00     0.287 C 
ATOM      2  N   UNL d   1      48.674  35.050  52.707  0.00  0.00    -0.272 N 
ATOM      3  O   UNL d   1      48.850  34.707  51.342  0.00  0.00    -0.264 OA
ENDROOT
BRANCH   2   4
ATOM      4  C   UNL d   1      49.299  34.576  52.906  0.00  0.00     0.083 C 
BRANCH   4   5
ATOM      5  C   UNL d   1      50.070  34.792  52.688  0.00  0.00     0.021 C 
BRANCH   5   6
ATOM      6  C   UNL d   1      50.707  34.392  52.997  0.00  0.00     0.021 C 
BRANCH   6   7
ATOM      7  C   UNL d   1      51.462  34.544  52.701  0.00  0.00     0.086 C 
BRANCH   7   8
ATOM      8  N   UNL d   1      52.130  34.216  53.089  0.00  0.00    -0.240 N 
ATOM      9  C   UNL d   1      52.429  33.496  52.957  0.00  0.00     0.267 A 
ATOM     10  C   UNL d   1      53.077  33.391  53.448  0.00  0.00     0.061 A 
ATOM     11  O   UNL d   1      52.136  32.912  52.398  0.00  0.00    -0.267 OA
ATOM     12  C   UNL d   1      53.591  32.769  53.550  0.00  0.00     0.005 A 
ATOM     13  C   UNL d   1      53.163  34.094  53.896  0.00  0.00     0.061 A 
ATOM     14  C   UNL d   1      54.206  32.836  54.104  0.00  0.00     0.000 A 
ATOM     15  C   UNL d   1      54.291  33.539  54.552  0.00  0.00     0.000 A 
ATOM     16  C   UNL d   1      53.760  34.160  54.436  0.00  0.00     0.005 A 
ATOM     17  C   UNL d   1      52.563  34.602  53.662  0.00  0.00     0.267 A 
ATOM     18  O   UNL d   1      52.436  35.388  53.975  0.00  0.00    -0.267 OA
ENDBRANCH   7   8
ENDBRANCH   6   7
ENDBRANCH   5   6
ENDBRANCH   4   5
ENDBRANCH   2   4
BRANCH   2  19
ATOM     19  C   UNL d   1      48.269  35.463  53.298  0.00  0.00     0.067 A 
ATOM     20  C   UNL d   1      48.498  36.229  53.511  0.00  0.00     0.018 A 
ATOM     21  C   UNL d   1      48.093  36.643  54.102  0.00  0.00     0.013 A 
ATOM     22  C   UNL d   1      47.458  36.290  54.480  0.00  0.00     0.058 A 
ATOM     23  C   UNL d   1      47.232  35.526  54.266  0.00  0.00     0.013 A 
ATOM     24 CL   UNL d   1      47.056  36.705  55.070  0.00  0.00    -0.082 Cl
ATOM     25  C   UNL d   1      47.634  35.111  53.676  0.00  0.00     0.018 A 
ENDBRANCH   2  19
BRANCH   1  26
ATOM     26  C   UNL d   1      47.815  35.595  51.712  0.00  0.00     0.156 A 
ATOM     27  O   UNL d   1      47.652  36.398  51.821  0.00  0.00    -0.300 OA
ATOM     28  C   UNL d   1      46.918  36.571  51.495  0.00  0.00     0.123 A 
ATOM     29  C   UNL d   1      46.632  35.899  51.193  0.00  0.00     0.029 A 
ATOM     30  C   UNL d   1      47.171  35.269  51.313  0.00  0.00     0.032 A 
ENDBRANCH   1  26
TORSDOF 7
ENDMDL
MODEL 5
REMARK VINA RESULT:      -5.8      2.346      6.316
REMARK  7 active torsions:
REMARK  status: ('A' for Active; 'I' for Inactive)
REMARK    1  A    between atoms: C_17  and  N_1 
REMARK       I    between atoms: C_4  and  N_7 
REMARK    2  A    between atoms: C_8  and  C_4 
REMARK    3  A    between atoms: N_7  and  C_26 
REMARK    4  A    between atoms: C_9  and  N_7 
REMARK    5  A    between atoms: C_27  and  C_17 
REMARK    6  A    between atoms: C_26  and  C_28 
REMARK    7  A    between atoms: C_28  and  C_27 
ROOT
ATOM      1  C   UNL d   1      47.479  35.913  51.984  0.00  0.00     0.287 C 
ATOM      2  N   UNL d   1      47.762  35.847  52.758  0.00  0.00    -0.272 N 
ATOM      3  O   UNL d   1      47.985  35.826  51.358  0.00  0.00    -0.264 OA
ENDROOT
BRANCH   2   4
ATOM      4  C   UNL d   1      48.547  35.696  52.885  0.00  0.00     0.083 C 
BRANCH   4   5
ATOM      5  C   UNL d   1      48.887  34.996  52.596  0.00  0.00     0.021 C 
BRANCH   5   6
ATOM      6  C   UNL d   1      49.686  34.867  52.681  0.00  0.00     0.021 C 
BRANCH   6   7
ATOM      7  C   UNL d   1      49.987  34.109  52.560  0.00  0.00     0.086 C 
BRANCH   7   8
ATOM      8  N   UNL d   1      50.780  33.942  52.779  0.00  0.00    -0.240 N 
ATOM      9  C   UNL d   1      51.422  34.128  52.357  0.00  0.00     0.267 A 
ATOM     10  C   UNL d   1      52.085  33.869  52.764  0.00  0.00     0.061 A 
ATOM     11  O   UNL d   1      51.438  34.533  51.598  0.00  0.00    -0.267 OA
ATOM     12  C   UNL d   1      52.879  33.908  52.597  0.00  0.00     0.005 A 
ATOM     13  C   UNL d   1      51.813  33.508  53.470  0.00  0.00     0.061 A 
ATOM     14  C   UNL d   1      53.424  33.586  53.134  0.00  0.00     0.000 A 
ATOM     15  C   UNL d   1      53.153  33.225  53.840  0.00  0.00     0.000 A 
ATOM     16  C   UNL d   1      52.343  33.194  53.993  0.00  0.00     0.005 A 
ATOM     17  C   UNL d   1      50.995  33.560  53.467  0.00  0.00     0.267 A 
ATOM     18  O   UNL d   1      50.482  33.262  54.084  0.00  0.00    -0.267 OA
ENDBRANCH   7   8
ENDBRANCH   6   7
ENDBRANCH   5   6
ENDBRANCH   4   5
ENDBRANCH   2   4
BRANCH   2  19
ATOM     19  C   UNL d   1      47.252  35.934  53.404  0.00  0.00     0.067 A 
ATOM     20  C   UNL d   1      46.725  35.331  53.610  0.00  0.00     0.018 A 
ATOM     21  C   UNL d   1      46.216  35.418  54.256  0.00  0.00     0.013 A 
ATOM     22  C   UNL d   1      46.233  36.109  54.695  0.00  0.00     0.058 A 
ATOM     23  C   UNL d   1      46.760  36.709  54.487  0.00  0.00     0.013 A 
ATOM     24 CL   UNL d   1      45.723  36.193  55.339  0.00  0.00    -0.082 Cl
ATOM     25  C   UNL d   1      47.270  36.625  53.843  0.00  0.00     0.018 A 
ENDBRANCH   2  19
BRANCH   1  26
ATOM     26  C   UNL d   1      46.684  36.066  51.855  0.00  0.00     0.156 A 
ATOM     27  O   UNL d   1      46.179  36.680  52.080  0.00  0.00    -0.300 OA
ATOM     28  C   UNL d   1      45.426  36.532  51.784  0.00  0.00     0.123 A 
ATOM     29  C   UNL d   1      45.461  35.849  51.388  0.00  0.00     0.029 A 
ATOM     30  C   UNL d   1      46.236  35.532  51.414  0.00  0.00     0.032 A 
ENDBRANCH   1  26
TORSDOF 7
ENDMDL
