MODEL 1
REMARK VINA RESULT:      13.1      0.000      0.000
REMARK  4 active torsions:
REMARK  status: ('A' for Active; 'I' for Inactive)
REMARK    1  A    between atoms: N_2  and  S_1 
REMARK    2  A    between atoms: C_4  and  S_1 
REMARK    3  A    between atoms: O_16  and  C_13 
REMARK    4  A    between atoms: C_19  and  O_16 
ROOT
ATOM      1  S   UNL d   1      45.969 -16.876  44.224  0.00  0.00     0.271 S 
ATOM      2  O   UNL d   1      45.659 -17.102  44.955  0.00  0.00    -0.200 OA
ATOM      3  O   UNL d   1      46.282 -16.652  43.488  0.00  0.00    -0.200 OA
ENDROOT
BRANCH   1   4
ATOM      4  N   UNL d   1      46.124 -17.673  44.045  0.00  0.00    -0.229 N 
ATOM      5  C   UNL d   1      46.187 -17.916  43.261  0.00  0.00     0.092 A 
ATOM      6  C   UNL d   1      46.340 -18.706  43.088  0.00  0.00     0.018 A 
ATOM      7  C   UNL d   1      46.404 -18.952  42.301  0.00  0.00     0.002 A 
ATOM      8  C   UNL d   1      46.430 -19.254  43.699  0.00  0.00     0.003 A 
ATOM      9  C   UNL d   1      46.557 -19.743  42.128  0.00  0.00     0.000 A 
ATOM     10  C   UNL d   1      46.647 -20.290  42.739  0.00  0.00     0.000 A 
ATOM     11  C   UNL d   1      46.584 -20.047  43.523  0.00  0.00     0.000 A 
ATOM     12  C   UNL d   1      46.367 -19.010  44.483  0.00  0.00     0.020 A 
ATOM     13  C   UNL d   1      46.214 -18.220  44.656  0.00  0.00     0.092 A 
ENDBRANCH   1   4
BRANCH   1  14
ATOM     14  C   UNL d   1      45.815 -16.089  44.403  0.00  0.00     0.104 A 
ATOM     15  C   UNL d   1      45.105 -15.879  44.771  0.00  0.00     0.015 A 
ATOM     16  C   UNL d   1      44.950 -15.091  44.951  0.00  0.00     0.025 A 
ATOM     17  C   UNL d   1      45.504 -14.508  44.765  0.00  0.00     0.100 A 
ATOM     18  C   UNL d   1      46.212 -14.715  44.400  0.00  0.00     0.025 A 
ATOM     19  C   UNL d   1      46.369 -15.506  44.218  0.00  0.00     0.015 A 
BRANCH  17  20
ATOM     20  O   UNL d   1      45.350 -13.721  44.945  0.00  0.00    -0.305 OA
BRANCH  20  21
ATOM     21  C   UNL d   1      45.667 -13.120  44.477  0.00  0.00     0.123 C 
ATOM     22  C   UNL d   1      45.816 -12.378  44.802  0.00  0.00     0.029 C 
ENDBRANCH  20  21
ENDBRANCH  17  20
ENDBRANCH   1  14
TORSDOF 4
ENDMDL
