MODEL 1
REMARK VINA RESULT:      44.2      0.000      0.000
REMARK  5 active torsions:
REMARK  status: ('A' for Active; 'I' for Inactive)
REMARK    1  A    between atoms: N_6  and  C_1 
REMARK    2  A    between atoms: C_8  and  C_4 
REMARK       I    between atoms: C_7  and  N_6 
REMARK    3  A    between atoms: C_13  and  C_7 
REMARK    4  A    between atoms: O_14  and  C_8 
REMARK    5  A    between atoms: C_18  and  O_14 
ROOT
ATOM      1  C   UNL d   1     -50.701  24.872  33.459  0.00  0.00     0.124 A 
ATOM      2  C   UNL d   1     -49.943  25.036  33.765  0.00  0.00     0.093 A 
ATOM      3  S   UNL d   1     -51.079  25.592  33.335  0.00  0.00    -0.062 SA
ATOM      4  C   UNL d   1     -50.562  26.193  33.561  0.00  0.00     0.095 A 
ATOM      5  C   UNL d   1     -49.864  25.855  33.825  0.00  0.00     0.023 A 
ATOM      6  C   UNL d   1     -49.369  24.459  33.972  0.00  0.00     0.103 C 
ATOM      7  N   UNL d   1     -48.803  23.905  34.177  0.00  0.00    -0.191 NA
ATOM      8  C   UNL d   1     -49.196  26.260  34.104  0.00  0.00     0.001 C 
ENDROOT
BRANCH   1   9
ATOM      9  N   UNL d   1     -51.008  24.123  33.311  0.00  0.00    -0.201 NA
ATOM     10  C   UNL d   1     -51.788  23.952  33.527  0.00  0.00     0.280 C 
ATOM     11  O   UNL d   1     -52.086  23.204  33.376  0.00  0.00    -0.265 OA
BRANCH  10  12
ATOM     12  C   UNL d   1     -52.255  24.521  33.885  0.00  0.00     0.058 C 
ATOM     13  C   UNL d   1     -52.459  24.443  34.679  0.00  0.00     0.005 C 
ATOM     14  C   UNL d   1     -52.527  25.181  33.457  0.00  0.00     0.005 C 
ENDBRANCH  10  12
ENDBRANCH   1   9
BRANCH   4  15
ATOM     15  C   UNL d   1     -50.720  26.999  33.526  0.00  0.00     0.306 C 
ATOM     16  O   UNL d   1     -51.481  27.289  33.712  0.00  0.00    -0.258 OA
BRANCH  15  17
ATOM     17  O   UNL d   1     -50.131  27.545  33.307  0.00  0.00    -0.271 OA
BRANCH  17  18
ATOM     18  C   UNL d   1     -50.258  28.183  33.819  0.00  0.00     0.126 C 
ATOM     19  C   UNL d   1     -49.665  28.744  33.934  0.00  0.00     0.029 C 
ENDBRANCH  17  18
ENDBRANCH  15  17
ENDBRANCH   4  15
TORSDOF 5
ENDMDL
