MODEL 1
REMARK VINA RESULT:      -8.0      0.000      0.000
REMARK  6 active torsions:
REMARK  status: ('A' for Active; 'I' for Inactive)
REMARK    1  A    between atoms: C_2  and  N_1 
REMARK    2  A    between atoms: C_4  and  C_2 
REMARK    3  A    between atoms: C_6  and  C_2 
REMARK    4  A    between atoms: C_8  and  N_3 
REMARK       I    between atoms: C_5  and  N_7 
REMARK    5  A    between atoms: O_20  and  C_5 
REMARK    6  A    between atoms: N_7  and  C_6 
ROOT
ATOM      1  N   UNL d   1      52.797  32.801  53.472  0.00  0.00    -0.298 N 
ATOM      2  N   UNL d   1      51.458  33.605  52.939  0.00  0.00    -0.301 N 
ATOM      3  C   UNL d   1      52.141  32.861  53.956  0.00  0.00     0.100 A 
ATOM      4  C   UNL d   1      52.793  33.140  52.721  0.00  0.00     0.100 A 
ATOM      5  C   UNL d   1      52.131  33.537  52.456  0.00  0.00     0.100 A 
ATOM      6  C   UNL d   1      51.463  33.265  53.691  0.00  0.00     0.100 A 
ENDROOT
BRANCH   1   7
ATOM      7  C   UNL d   1      53.476  32.396  53.737  0.00  0.00     0.107 C 
BRANCH   7   8
ATOM      8  C   UNL d   1      54.012  32.791  54.248  0.00  0.00     0.118 A 
ATOM      9  O   UNL d   1      54.712  33.116  53.954  0.00  0.00    -0.304 OA
ATOM     10  C   UNL d   1      55.115  33.463  54.592  0.00  0.00     0.123 A 
ATOM     11  C   UNL d   1      54.669  33.353  55.265  0.00  0.00     0.029 A 
ATOM     12  C   UNL d   1      53.983  32.936  55.059  0.00  0.00     0.028 A 
ENDBRANCH   7   8
BRANCH   7  13
ATOM     13  C   UNL d   1      53.629  31.621  53.509  0.00  0.00     0.124 C 
BRANCH  13  14
ATOM     14  N   UNL d   1      53.223  30.991  53.885  0.00  0.00    -0.183 NA
ATOM     15  C   UNL d   1      53.390  30.219  53.690  0.00  0.00     0.388 C 
ATOM     16  O   UNL d   1      53.964  30.053  53.117  0.00  0.00    -0.236 OA
BRANCH  15  17
ATOM     17  O   UNL d   1      52.986  29.606  54.064  0.00  0.00    -0.281 OA
ATOM     18  C   UNL d   1      53.407  29.001  54.437  0.00  0.00     0.186 C 
ENDBRANCH  15  17
ENDBRANCH  13  14
ENDBRANCH   7  13
ENDBRANCH   1   7
BRANCH   2  19
ATOM     19  C   UNL d   1      50.805  33.999  52.673  0.00  0.00     0.064 A 
ATOM     20  C   UNL d   1      50.601  33.966  51.877  0.00  0.00     0.020 A 
ATOM     21  C   UNL d   1      49.937  34.365  51.598  0.00  0.00     0.031 A 
ATOM     22  C   UNL d   1      49.472  34.801  52.121  0.00  0.00     0.140 A 
ATOM     23  C   UNL d   1      49.673  34.836  52.921  0.00  0.00     0.031 A 
ATOM     24  F   UNL d   1      48.794  35.210  51.844  0.00  0.00    -0.204 F 
ATOM     25  C   UNL d   1      50.340  34.435  53.197  0.00  0.00     0.020 A 
ENDBRANCH   2  19
TORSDOF 6
ENDMDL
MODEL 2
REMARK VINA RESULT:      -7.6      1.010      2.352
REMARK  6 active torsions:
REMARK  status: ('A' for Active; 'I' for Inactive)
REMARK    1  A    between atoms: C_2  and  N_1 
REMARK    2  A    between atoms: C_4  and  C_2 
REMARK    3  A    between atoms: C_6  and  C_2 
REMARK    4  A    between atoms: C_8  and  N_3 
REMARK       I    between atoms: C_5  and  N_7 
REMARK    5  A    between atoms: O_20  and  C_5 
REMARK    6  A    between atoms: N_7  and  C_6 
ROOT
ATOM      1  N   UNL d   1      52.201  32.895  53.047  0.00  0.00    -0.298 N 
ATOM      2  N   UNL d   1      50.863  33.824  52.778  0.00  0.00    -0.301 N 
ATOM      3  C   UNL d   1      51.548  32.815  53.531  0.00  0.00     0.100 A 
ATOM      4  C   UNL d   1      52.194  33.438  52.425  0.00  0.00     0.100 A 
ATOM      5  C   UNL d   1      51.533  33.897  52.292  0.00  0.00     0.100 A 
ATOM      6  C   UNL d   1      50.871  33.281  53.400  0.00  0.00     0.100 A 
ENDROOT
BRANCH   1   7
ATOM      7  C   UNL d   1      52.879  32.429  53.178  0.00  0.00     0.107 C 
BRANCH   7   8
ATOM      8  C   UNL d   1      52.829  31.598  53.071  0.00  0.00     0.118 A 
ATOM      9  O   UNL d   1      53.031  31.254  52.348  0.00  0.00    -0.304 OA
ATOM     10  C   UNL d   1      52.922  30.434  52.422  0.00  0.00     0.123 A 
ATOM     11  C   UNL d   1      52.658  30.279  53.177  0.00  0.00     0.029 A 
ATOM     12  C   UNL d   1      52.597  30.997  53.585  0.00  0.00     0.028 A 
ENDBRANCH   7   8
BRANCH   7  13
ATOM     13  C   UNL d   1      53.593  32.766  53.410  0.00  0.00     0.124 C 
BRANCH  13  14
ATOM     14  N   UNL d   1      53.741  32.901  54.225  0.00  0.00    -0.183 NA
ATOM     15  C   UNL d   1      54.471  33.163  54.472  0.00  0.00     0.388 C 
ATOM     16  O   UNL d   1      55.071  33.298  53.918  0.00  0.00    -0.236 OA
BRANCH  15  17
ATOM     17  O   UNL d   1      54.608  33.293  55.274  0.00  0.00    -0.281 OA
ATOM     18  C   UNL d   1      55.212  33.804  55.512  0.00  0.00     0.186 C 
ENDBRANCH  15  17
ENDBRANCH  13  14
ENDBRANCH   7  13
ENDBRANCH   1   7
BRANCH   2  19
ATOM     19  C   UNL d   1      50.211  34.280  52.643  0.00  0.00     0.064 A 
ATOM     20  C   UNL d   1      49.821  34.236  51.919  0.00  0.00     0.020 A 
ATOM     21  C   UNL d   1      49.155  34.697  51.773  0.00  0.00     0.031 A 
ATOM     22  C   UNL d   1      48.876  35.209  52.357  0.00  0.00     0.140 A 
ATOM     23  C   UNL d   1      49.264  35.257  53.084  0.00  0.00     0.031 A 
ATOM     24  F   UNL d   1      48.199  35.682  52.215  0.00  0.00    -0.204 F 
ATOM     25  C   UNL d   1      49.932  34.792  53.227  0.00  0.00     0.020 A 
ENDBRANCH   2  19
TORSDOF 6
ENDMDL
MODEL 3
REMARK VINA RESULT:      -6.7      2.622      4.574
REMARK  6 active torsions:
REMARK  status: ('A' for Active; 'I' for Inactive)
REMARK    1  A    between atoms: C_2  and  N_1 
REMARK    2  A    between atoms: C_4  and  C_2 
REMARK    3  A    between atoms: C_6  and  C_2 
REMARK    4  A    between atoms: C_8  and  N_3 
REMARK       I    between atoms: C_5  and  N_7 
REMARK    5  A    between atoms: O_20  and  C_5 
REMARK    6  A    between atoms: N_7  and  C_6 
ROOT
ATOM      1  N   UNL d   1      52.351  33.182  53.079  0.00  0.00    -0.298 N 
ATOM      2  N   UNL d   1      52.746  31.608  53.381  0.00  0.00    -0.301 N 
ATOM      3  C   UNL d   1      53.056  32.879  52.797  0.00  0.00     0.100 A 
ATOM      4  C   UNL d   1      51.837  32.704  53.513  0.00  0.00     0.100 A 
ATOM      5  C   UNL d   1      52.032  31.926  53.663  0.00  0.00     0.100 A 
ATOM      6  C   UNL d   1      53.259  32.086  52.947  0.00  0.00     0.100 A 
ENDROOT
BRANCH   1   7
ATOM      7  C   UNL d   1      52.147  33.976  52.929  0.00  0.00     0.107 C 
BRANCH   7   8
ATOM      8  C   UNL d   1      52.468  34.578  53.417  0.00  0.00     0.118 A 
ATOM      9  O   UNL d   1      53.108  35.031  53.159  0.00  0.00    -0.304 OA
ATOM     10  C   UNL d   1      53.292  35.572  53.762  0.00  0.00     0.123 A 
ATOM     11  C   UNL d   1      52.773  35.451  54.379  0.00  0.00     0.029 A 
ATOM     12  C   UNL d   1      52.259  34.835  54.171  0.00  0.00     0.028 A 
ENDBRANCH   7   8
BRANCH   7  13
ATOM     13  C   UNL d   1      51.639  34.179  52.314  0.00  0.00     0.124 C 
BRANCH  13  14
ATOM     14  N   UNL d   1      50.821  34.282  52.470  0.00  0.00    -0.183 NA
ATOM     15  C   UNL d   1      50.299  34.408  51.860  0.00  0.00     0.388 C 
ATOM     16  O   UNL d   1      50.574  34.435  51.079  0.00  0.00    -0.236 OA
BRANCH  15  17
ATOM     17  O   UNL d   1      49.497  34.507  52.022  0.00  0.00    -0.281 OA
ATOM     18  C   UNL d   1      48.963  34.633  51.404  0.00  0.00     0.186 C 
ENDBRANCH  15  17
ENDBRANCH  13  14
ENDBRANCH   7  13
ENDBRANCH   1   7
BRANCH   2  19
ATOM     19  C   UNL d   1      52.935  30.837  53.532  0.00  0.00     0.064 A 
ATOM     20  C   UNL d   1      53.389  30.646  54.191  0.00  0.00     0.020 A 
ATOM     21  C   UNL d   1      53.586  29.864  54.352  0.00  0.00     0.031 A 
ATOM     22  C   UNL d   1      53.326  29.265  53.848  0.00  0.00     0.140 A 
ATOM     23  C   UNL d   1      52.871  29.452  53.185  0.00  0.00     0.031 A 
ATOM     24  F   UNL d   1      53.523  28.465  54.005  0.00  0.00    -0.204 F 
ATOM     25  C   UNL d   1      52.675  30.238  53.027  0.00  0.00     0.020 A 
ENDBRANCH   2  19
TORSDOF 6
ENDMDL
