MODEL 1
REMARK VINA RESULT:       0.7      0.000      0.000
REMARK  4 active torsions:
REMARK  status: ('A' for Active; 'I' for Inactive)
REMARK    1  A    between atoms: S_2  and  N_1 
REMARK    2  A    between atoms: C_7  and  S_2 
REMARK    3  A    between atoms: C_10  and  C_3 
REMARK    4  A    between atoms: C_14  and  C_10 
ROOT
ATOM      1  N   UNL d   1      31.720  17.483 -24.084  0.00  0.00    -0.214 N 
ATOM      2  C   UNL d   1      30.908  17.308 -24.146  0.00  0.00     0.157 A 
ATOM      3  N   UNL d   1      30.845  16.565 -24.506  0.00  0.00    -0.226 NA
ATOM      4  C   UNL d   1      32.144  16.849 -24.404  0.00  0.00     0.094 A 
ATOM      5  C   UNL d   1      31.611  16.278 -24.666  0.00  0.00     0.100 A 
ATOM      6  C   UNL d   1      32.960  16.720 -24.489  0.00  0.00     0.020 A 
ATOM      7  C   UNL d   1      31.881  15.571 -25.017  0.00  0.00     0.021 A 
ATOM      8  C   UNL d   1      33.237  16.015 -24.839  0.00  0.00     0.002 A 
ATOM      9  C   UNL d   1      32.682  15.453 -25.097  0.00  0.00     0.002 A 
ENDROOT
BRANCH   1  10
ATOM     10  S   UNL d   1      32.023  18.176 -23.755  0.00  0.00     0.272 S 
ATOM     11  O   UNL d   1      32.095  17.774 -23.035  0.00  0.00    -0.200 OA
ATOM     12  O   UNL d   1      31.950  18.571 -24.473  0.00  0.00    -0.200 OA
BRANCH  10  13
ATOM     13  C   UNL d   1      32.327  18.862 -23.417  0.00  0.00     0.104 A 
ATOM     14  C   UNL d   1      32.519  19.498 -23.907  0.00  0.00     0.013 A 
ATOM     15  C   UNL d   1      32.825  20.188 -23.570  0.00  0.00     0.007 A 
ATOM     16  C   UNL d   1      32.928  20.225 -22.768  0.00  0.00     0.035 A 
ATOM     17  C   UNL d   1      32.739  19.600 -22.282  0.00  0.00     0.007 A 
ATOM     18 BR   UNL d   1      33.241  20.931 -22.422  0.00  0.00    -0.049 Br
ATOM     19  C   UNL d   1      32.436  18.914 -22.616  0.00  0.00     0.013 A 
ENDBRANCH  10  13
ENDBRANCH   1  10
BRANCH   2  20
ATOM     20  C   UNL d   1      30.274  17.801 -23.890  0.00  0.00     0.038 C 
BRANCH  20  21
ATOM     21  C   UNL d   1      29.491  17.588 -24.042  0.00  0.00     0.003 A 
ATOM     22  C   UNL d   1      29.079  17.098 -23.507  0.00  0.00     0.000 A 
ATOM     23  C   UNL d   1      28.301  16.887 -23.657  0.00  0.00     0.000 A 
ATOM     24  C   UNL d   1      27.918  17.153 -24.335  0.00  0.00     0.000 A 
ATOM     25  C   UNL d   1      28.328  17.640 -24.866  0.00  0.00     0.000 A 
ATOM     26  C   UNL d   1      29.109  17.856 -24.721  0.00  0.00     0.000 A 
ENDBRANCH  20  21
ENDBRANCH   2  20
TORSDOF 4
ENDMDL
MODEL 2
REMARK VINA RESULT:       3.1      3.741      5.475
REMARK  4 active torsions:
REMARK  status: ('A' for Active; 'I' for Inactive)
REMARK    1  A    between atoms: S_2  and  N_1 
REMARK    2  A    between atoms: C_7  and  S_2 
REMARK    3  A    between atoms: C_10  and  C_3 
REMARK    4  A    between atoms: C_14  and  C_10 
ROOT
ATOM      1  N   UNL d   1      32.856  22.221 -22.409  0.00  0.00    -0.214 N 
ATOM      2  C   UNL d   1      33.099  21.444 -22.582  0.00  0.00     0.157 A 
ATOM      3  N   UNL d   1      33.192  21.395 -23.403  0.00  0.00    -0.226 NA
ATOM      4  C   UNL d   1      32.803  22.639 -23.120  0.00  0.00     0.094 A 
ATOM      5  C   UNL d   1      33.009  22.135 -23.740  0.00  0.00     0.100 A 
ATOM      6  C   UNL d   1      32.590  23.425 -23.284  0.00  0.00     0.020 A 
ATOM      7  C   UNL d   1      33.006  22.405 -24.529  0.00  0.00     0.021 A 
ATOM      8  C   UNL d   1      32.585  23.701 -24.071  0.00  0.00     0.002 A 
ATOM      9  C   UNL d   1      32.796  23.176 -24.679  0.00  0.00     0.002 A 
ENDROOT
BRANCH   1  10
ATOM     10  S   UNL d   1      32.702  22.503 -21.649  0.00  0.00     0.272 S 
ATOM     11  O   UNL d   1      32.160  21.884 -21.556  0.00  0.00    -0.200 OA
ATOM     12  O   UNL d   1      33.241  23.116 -21.745  0.00  0.00    -0.200 OA
BRANCH  10  13
ATOM     13  C   UNL d   1      32.539  22.774 -20.889  0.00  0.00     0.104 A 
ATOM     14  C   UNL d   1      33.047  23.328 -20.546  0.00  0.00     0.013 A 
ATOM     15  C   UNL d   1      32.886  23.603 -19.783  0.00  0.00     0.007 A 
ATOM     16  C   UNL d   1      32.236  23.323 -19.389  0.00  0.00     0.035 A 
ATOM     17  C   UNL d   1      31.735  22.776 -19.725  0.00  0.00     0.007 A 
ATOM     18 BR   UNL d   1      32.071  23.603 -18.608  0.00  0.00    -0.049 Br
ATOM     19  C   UNL d   1      31.893  22.503 -20.482  0.00  0.00     0.013 A 
ENDBRANCH  10  13
ENDBRANCH   1  10
BRANCH   2  20
ATOM     20  C   UNL d   1      33.225  20.828 -22.021  0.00  0.00     0.038 C 
BRANCH  20  21
ATOM     21  C   UNL d   1      33.219  20.038 -22.259  0.00  0.00     0.003 A 
ATOM     22  C   UNL d   1      33.241  19.429 -21.690  0.00  0.00     0.000 A 
ATOM     23  C   UNL d   1      33.235  18.643 -21.926  0.00  0.00     0.000 A 
ATOM     24  C   UNL d   1      33.207  18.446 -22.724  0.00  0.00     0.000 A 
ATOM     25  C   UNL d   1      33.185  19.051 -23.290  0.00  0.00     0.000 A 
ATOM     26  C   UNL d   1      33.191  19.842 -23.059  0.00  0.00     0.000 A 
ENDBRANCH  20  21
ENDBRANCH   2  20
TORSDOF 4
ENDMDL
MODEL 3
REMARK VINA RESULT:       3.5      3.078      5.524
REMARK  4 active torsions:
REMARK  status: ('A' for Active; 'I' for Inactive)
REMARK    1  A    between atoms: S_2  and  N_1 
REMARK    2  A    between atoms: C_7  and  S_2 
REMARK    3  A    between atoms: C_10  and  C_3 
REMARK    4  A    between atoms: C_14  and  C_10 
ROOT
ATOM      1  N   UNL d   1      32.855  21.549 -23.106  0.00  0.00    -0.214 N 
ATOM      2  C   UNL d   1      32.723  22.004 -22.421  0.00  0.00     0.157 A 
ATOM      3  N   UNL d   1      32.768  22.800 -22.646  0.00  0.00    -0.226 NA
ATOM      4  C   UNL d   1      32.978  22.066 -23.739  0.00  0.00     0.094 A 
ATOM      5  C   UNL d   1      32.926  22.841 -23.462  0.00  0.00     0.100 A 
ATOM      6  C   UNL d   1      33.134  21.926 -24.543  0.00  0.00     0.020 A 
ATOM      7  C   UNL d   1      33.028  23.487 -23.981  0.00  0.00     0.021 A 
ATOM      8  C   UNL d   1      33.236  22.567 -25.066  0.00  0.00     0.002 A 
ATOM      9  C   UNL d   1      33.180  23.340 -24.766  0.00  0.00     0.002 A 
ENDROOT
BRANCH   1  10
ATOM     10  S   UNL d   1      32.856  20.724 -23.124  0.00  0.00     0.272 S 
ATOM     11  O   UNL d   1      33.241  20.734 -22.390  0.00  0.00    -0.200 OA
ATOM     12  O   UNL d   1      32.474  20.719 -23.852  0.00  0.00    -0.200 OA
BRANCH  10  13
ATOM     13  C   UNL d   1      32.864  19.901 -23.130  0.00  0.00     0.104 A 
ATOM     14  C   UNL d   1      32.507  19.504 -23.760  0.00  0.00     0.013 A 
ATOM     15  C   UNL d   1      32.512  18.677 -23.769  0.00  0.00     0.007 A 
ATOM     16  C   UNL d   1      32.867  18.276 -23.162  0.00  0.00     0.035 A 
ATOM     17  C   UNL d   1      33.220  18.666 -22.539  0.00  0.00     0.007 A 
ATOM     18 BR   UNL d   1      32.873  17.431 -23.170  0.00  0.00    -0.049 Br
ATOM     19  C   UNL d   1      33.215  19.486 -22.529  0.00  0.00     0.013 A 
ENDBRANCH  10  13
ENDBRANCH   1  10
BRANCH   2  20
ATOM     20  C   UNL d   1      32.573  21.705 -21.648  0.00  0.00     0.038 C 
BRANCH  20  21
ATOM     21  C   UNL d   1      32.535  22.216 -21.001  0.00  0.00     0.003 A 
ATOM     22  C   UNL d   1      33.232  22.426 -20.594  0.00  0.00     0.000 A 
ATOM     23  C   UNL d   1      33.196  22.934 -19.951  0.00  0.00     0.000 A 
ATOM     24  C   UNL d   1      32.475  23.242 -19.700  0.00  0.00     0.000 A 
ATOM     25  C   UNL d   1      31.783  23.033 -20.105  0.00  0.00     0.000 A 
ATOM     26  C   UNL d   1      31.813  22.523 -20.752  0.00  0.00     0.000 A 
ENDBRANCH  20  21
ENDBRANCH   2  20
TORSDOF 4
ENDMDL
