MODEL 1
REMARK VINA RESULT:      50.2      0.000      0.000
REMARK  3 active torsions:
REMARK  status: ('A' for Active; 'I' for Inactive)
REMARK    1  A    between atoms: S_10  and  C_7 
REMARK    2  A    between atoms: C_13  and  S_10 
REMARK    3  A    between atoms: C_12  and  C_13 
ROOT
ATOM      1  N   UNL d   1     -50.949  25.189  33.333  0.00  0.00    -0.167 N 
ATOM      2  C   UNL d   1     -51.586  25.705  33.320  0.00  0.00     0.220 A 
ATOM      3  C   UNL d   1     -51.068  24.365  33.333  0.00  0.00     0.301 A 
ATOM      4  S   UNL d   1     -51.290  26.472  33.324  0.00  0.00    -0.019 SA
ATOM      5  N   UNL d   1     -50.264  25.632  33.345  0.00  0.00    -0.147 NA
ATOM      6  N   UNL d   1     -52.357  25.400  33.306  0.00  0.00    -0.121 NA
ATOM      7  C   UNL d   1     -50.471  26.420  33.339  0.00  0.00     0.163 A 
ATOM      8  N   UNL d   1     -52.484  24.593  33.306  0.00  0.00    -0.141 NA
ATOM      9  C   UNL d   1     -51.841  24.077  33.319  0.00  0.00     0.161 A 
ATOM     10  O   UNL d   1     -50.429  23.851  33.346  0.00  0.00    -0.263 OA
ATOM     11  C   UNL d   1     -51.961  23.259  33.319  0.00  0.00     0.028 C 
ENDROOT
BRANCH   7  12
ATOM     12  S   UNL d   1     -49.946  27.060  33.348  0.00  0.00    -0.059 SA
BRANCH  12  13
ATOM     13  C   UNL d   1     -50.128  27.731  33.786  0.00  0.00     0.038 C 
BRANCH  13  14
ATOM     14  C   UNL d   1     -49.492  28.118  34.135  0.00  0.00     0.017 A 
ATOM     15  C   UNL d   1     -49.384  28.930  34.018  0.00  0.00     0.058 A 
ATOM     16 CL   UNL d   1     -49.915  29.352  33.551  0.00  0.00    -0.082 Cl
ATOM     17  C   UNL d   1     -48.757  29.321  34.360  0.00  0.00     0.011 A 
ATOM     18  C   UNL d   1     -48.215  28.902  34.834  0.00  0.00     0.001 A 
ATOM     19  C   UNL d   1     -48.314  28.099  34.955  0.00  0.00     0.000 A 
ATOM     20  C   UNL d   1     -48.950  27.700  34.609  0.00  0.00     0.001 A 
ENDBRANCH  13  14
ENDBRANCH  12  13
ENDBRANCH   7  12
TORSDOF 3
ENDMDL
