MODEL 1
REMARK VINA RESULT:      -6.0      0.000      0.000
REMARK  5 active torsions:
REMARK  status: ('A' for Active; 'I' for Inactive)
REMARK    1  A    between atoms: N_5  and  C_1 
REMARK       I    between atoms: C_9  and  N_5 
REMARK    2  A    between atoms: C_17  and  C_9 
REMARK    3  A    between atoms: C_12  and  C_10 
REMARK    4  A    between atoms: C_11  and  S_13 
REMARK    5  A    between atoms: S_13  and  C_17 
ROOT
ATOM      1  N   UNL d   1     -42.485-123.016 -49.753  0.00  0.00    -0.148 NA
ATOM      2  N   UNL d   1     -42.348-123.028 -50.566  0.00  0.00    -0.141 NA
ATOM      3  C   UNL d   1     -41.942-123.366 -49.234  0.00  0.00     0.104 A 
ATOM      4  C   UNL d   1     -41.676-123.385 -50.870  0.00  0.00     0.133 A 
ATOM      5  C   UNL d   1     -41.263-123.727 -49.538  0.00  0.00     0.023 A 
ATOM      6  C   UNL d   1     -41.129-123.738 -50.349  0.00  0.00     0.029 A 
ENDROOT
BRANCH   4   7
ATOM      7  S   UNL d   1     -41.538-123.398 -51.683  0.00  0.00    -0.061 SA
BRANCH   7   8
ATOM      8  C   UNL d   1     -41.409-122.699 -52.093  0.00  0.00     0.099 C 
BRANCH   8   9
ATOM      9  C   UNL d   1     -41.434-122.701 -52.920  0.00  0.00     0.288 C 
ATOM     10  N   UNL d   1     -41.757-122.059 -53.320  0.00  0.00    -0.181 NA
ATOM     11  O   UNL d   1     -41.137-123.340 -53.341  0.00  0.00    -0.265 OA
BRANCH  10  12
ATOM     12  C   UNL d   1     -41.783-122.056 -54.138  0.00  0.00     0.219 A 
ATOM     13  S   UNL d   1     -42.464-121.981 -54.605  0.00  0.00    -0.026 SA
ATOM     14  C   UNL d   1     -42.236-122.007 -55.387  0.00  0.00     0.135 A 
ATOM     15  C   UNL d   1     -42.739-121.952 -56.042  0.00  0.00     0.030 C 
ATOM     16  N   UNL d   1     -41.419-122.098 -55.413  0.00  0.00    -0.139 NA
ATOM     17  N   UNL d   1     -41.136-122.129 -54.641  0.00  0.00    -0.121 NA
ENDBRANCH  10  12
ENDBRANCH   8   9
ENDBRANCH   7   8
ENDBRANCH   4   7
BRANCH   3  18
ATOM     18  C   UNL d   1     -42.080-123.353 -48.421  0.00  0.00     0.039 A 
ATOM     19  C   UNL d   1     -41.513-123.051 -47.921  0.00  0.00     0.101 A 
ATOM     20  N   UNL d   1     -41.645-123.036 -47.113  0.00  0.00    -0.242 NA
ATOM     21  C   UNL d   1     -42.360-123.331 -46.806  0.00  0.00     0.099 A 
ATOM     22  C   UNL d   1     -42.926-123.635 -47.312  0.00  0.00     0.021 A 
ATOM     23  C   UNL d   1     -42.797-123.652 -48.128  0.00  0.00     0.005 A 
ENDBRANCH   3  18
TORSDOF 5
ENDMDL
