MODEL 1
REMARK VINA RESULT:      -8.5      0.000      0.000
REMARK  7 active torsions:
REMARK  status: ('A' for Active; 'I' for Inactive)
REMARK    1  A    between atoms: S_6  and  C_1 
REMARK    2  A    between atoms: C_12  and  N_2 
REMARK       I    between atoms: N_4  and  C_8 
REMARK    3  A    between atoms: C_5  and  N_4 
REMARK    4  A    between atoms: C_15  and  S_6 
REMARK    5  A    between atoms: O_18  and  C_7 
REMARK    6  A    between atoms: C_8  and  C_15 
REMARK    7  A    between atoms: O_19  and  C_16 
ROOT
ATOM      1  N   UNL d   1      50.526  33.869  52.400  0.00  0.00    -0.206 NA
ATOM      2  C   UNL d   1      51.260  33.926  52.753  0.00  0.00     0.286 C 
ATOM      3  O   UNL d   1      51.427  34.541  53.274  0.00  0.00    -0.265 OA
ENDROOT
BRANCH   2   4
ATOM      4  C   UNL d   1      51.832  33.373  52.591  0.00  0.00     0.101 C 
BRANCH   4   5
ATOM      5  S   UNL d   1      52.370  33.141  53.173  0.00  0.00    -0.044 SA
BRANCH   5   6
ATOM      6  C   UNL d   1      52.712  32.388  53.149  0.00  0.00     0.180 A 
ATOM      7  N   UNL d   1      53.393  32.159  53.541  0.00  0.00    -0.284 N 
ATOM      8  C   UNL d   1      53.529  31.364  53.359  0.00  0.00     0.103 A 
ATOM      9  C   UNL d   1      52.918  31.107  52.848  0.00  0.00     0.120 A 
ATOM     10  N   UNL d   1      52.427  31.741  52.728  0.00  0.00    -0.219 NA
BRANCH   7  11
ATOM     11  C   UNL d   1      53.882  32.606  54.033  0.00  0.00     0.066 A 
ATOM     12  C   UNL d   1      54.530  33.007  53.717  0.00  0.00     0.018 A 
ATOM     13  C   UNL d   1      55.018  33.454  54.209  0.00  0.00     0.002 A 
ATOM     14  C   UNL d   1      54.859  33.499  55.018  0.00  0.00     0.000 A 
ATOM     15  C   UNL d   1      54.215  33.100  55.327  0.00  0.00     0.002 A 
ATOM     16  C   UNL d   1      53.727  32.653  54.835  0.00  0.00     0.018 A 
ENDBRANCH   7  11
ENDBRANCH   5   6
ENDBRANCH   4   5
ENDBRANCH   2   4
BRANCH   1  17
ATOM     17  C   UNL d   1      49.945  34.424  52.559  0.00  0.00     0.107 A 
ATOM     18  C   UNL d   1      49.405  34.634  51.984  0.00  0.00     0.114 A 
ATOM     19  C   UNL d   1      48.827  35.186  52.144  0.00  0.00     0.050 A 
ATOM     20  C   UNL d   1      48.784  35.537  52.893  0.00  0.00     0.096 A 
ATOM     21  C   UNL d   1      49.330  35.327  53.481  0.00  0.00     0.026 A 
ATOM     22  C   UNL d   1      49.909  34.769  53.308  0.00  0.00     0.023 A 
BRANCH  18  23
ATOM     23  O   UNL d   1      49.438  34.293  51.240  0.00  0.00    -0.327 OA
ATOM     24  C   UNL d   1      48.853  34.475  50.672  0.00  0.00     0.181 C 
ENDBRANCH  18  23
BRANCH  20  25
ATOM     25  O   UNL d   1      48.192  36.101  53.051  0.00  0.00    -0.328 OA
ATOM     26  C   UNL d   1      48.015  36.302  53.836  0.00  0.00     0.181 C 
ENDBRANCH  20  25
ENDBRANCH   1  17
TORSDOF 7
ENDMDL
MODEL 2
REMARK VINA RESULT:      -6.8      0.995      2.251
REMARK  7 active torsions:
REMARK  status: ('A' for Active; 'I' for Inactive)
REMARK    1  A    between atoms: S_6  and  C_1 
REMARK    2  A    between atoms: C_12  and  N_2 
REMARK       I    between atoms: N_4  and  C_8 
REMARK    3  A    between atoms: C_5  and  N_4 
REMARK    4  A    between atoms: C_15  and  S_6 
REMARK    5  A    between atoms: O_18  and  C_7 
REMARK    6  A    between atoms: C_8  and  C_15 
REMARK    7  A    between atoms: O_19  and  C_16 
ROOT
ATOM      1  N   UNL d   1      50.851  34.365  53.266  0.00  0.00    -0.206 NA
ATOM      2  C   UNL d   1      51.645  34.324  53.080  0.00  0.00     0.286 C 
ATOM      3  O   UNL d   1      51.897  34.403  52.300  0.00  0.00    -0.265 OA
ENDROOT
BRANCH   2   4
ATOM      4  C   UNL d   1      52.193  34.206  53.667  0.00  0.00     0.101 C 
BRANCH   4   5
ATOM      5  S   UNL d   1      52.658  33.523  53.678  0.00  0.00    -0.044 SA
BRANCH   5   6
ATOM      6  C   UNL d   1      53.279  33.449  54.219  0.00  0.00     0.180 A 
ATOM      7  N   UNL d   1      53.718  32.771  54.353  0.00  0.00    -0.284 N 
ATOM      8  C   UNL d   1      54.276  32.949  54.937  0.00  0.00     0.103 A 
ATOM      9  C   UNL d   1      54.173  33.749  55.160  0.00  0.00     0.120 A 
ATOM     10  N   UNL d   1      53.561  34.042  54.715  0.00  0.00    -0.219 NA
BRANCH   7  11
ATOM     11  C   UNL d   1      53.650  32.031  53.995  0.00  0.00     0.066 A 
ATOM     12  C   UNL d   1      53.236  31.426  54.375  0.00  0.00     0.018 A 
ATOM     13  C   UNL d   1      53.168  30.686  54.018  0.00  0.00     0.002 A 
ATOM     14  C   UNL d   1      53.513  30.550  53.280  0.00  0.00     0.000 A 
ATOM     15  C   UNL d   1      53.923  31.152  52.908  0.00  0.00     0.002 A 
ATOM     16  C   UNL d   1      53.991  31.893  53.266  0.00  0.00     0.018 A 
ENDBRANCH   7  11
ENDBRANCH   5   6
ENDBRANCH   4   5
ENDBRANCH   2   4
BRANCH   1  17
ATOM     17  C   UNL d   1      50.293  34.484  52.679  0.00  0.00     0.107 A 
ATOM     18  C   UNL d   1      49.646  34.963  52.813  0.00  0.00     0.114 A 
ATOM     19  C   UNL d   1      49.091  35.081  52.228  0.00  0.00     0.050 A 
ATOM     20  C   UNL d   1      49.181  34.715  51.492  0.00  0.00     0.096 A 
ATOM     21  C   UNL d   1      49.837  34.227  51.348  0.00  0.00     0.026 A 
ATOM     22  C   UNL d   1      50.390  34.115  51.947  0.00  0.00     0.023 A 
BRANCH  18  23
ATOM     23  O   UNL d   1      49.547  35.331  53.539  0.00  0.00    -0.327 OA
ATOM     24  C   UNL d   1      48.816  35.689  53.729  0.00  0.00     0.181 C 
ENDBRANCH  18  23
BRANCH  20  25
ATOM     25  O   UNL d   1      48.612  34.838  50.897  0.00  0.00    -0.328 OA
ATOM     26  C   UNL d   1      48.107  34.218  50.675  0.00  0.00     0.181 C 
ENDBRANCH  20  25
ENDBRANCH   1  17
TORSDOF 7
ENDMDL
MODEL 3
REMARK VINA RESULT:      -6.2      2.403      5.287
REMARK  7 active torsions:
REMARK  status: ('A' for Active; 'I' for Inactive)
REMARK    1  A    between atoms: S_6  and  C_1 
REMARK    2  A    between atoms: C_12  and  N_2 
REMARK       I    between atoms: N_4  and  C_8 
REMARK    3  A    between atoms: C_5  and  N_4 
REMARK    4  A    between atoms: C_15  and  S_6 
REMARK    5  A    between atoms: O_18  and  C_7 
REMARK    6  A    between atoms: C_8  and  C_15 
REMARK    7  A    between atoms: O_19  and  C_16 
ROOT
ATOM      1  N   UNL d   1      53.513  31.745  53.849  0.00  0.00    -0.206 NA
ATOM      2  C   UNL d   1      53.656  32.266  54.462  0.00  0.00     0.286 C 
ATOM      3  O   UNL d   1      53.746  31.991  55.233  0.00  0.00    -0.265 OA
ENDROOT
BRANCH   2   4
ATOM      4  C   UNL d   1      53.710  33.062  54.312  0.00  0.00     0.101 C 
BRANCH   4   5
ATOM      5  S   UNL d   1      53.051  33.487  54.054  0.00  0.00    -0.044 SA
BRANCH   5   6
ATOM      6  C   UNL d   1      53.045  34.314  54.096  0.00  0.00     0.180 A 
ATOM      7  N   UNL d   1      52.517  34.807  53.712  0.00  0.00    -0.284 N 
ATOM      8  C   UNL d   1      52.715  35.585  53.911  0.00  0.00     0.103 A 
ATOM      9  C   UNL d   1      53.375  35.561  54.425  0.00  0.00     0.120 A 
ATOM     10  N   UNL d   1      53.565  34.779  54.530  0.00  0.00    -0.219 NA
BRANCH   7  11
ATOM     11  C   UNL d   1      51.891  34.608  53.212  0.00  0.00     0.066 A 
ATOM     12  C   UNL d   1      51.124  34.559  53.511  0.00  0.00     0.018 A 
ATOM     13  C   UNL d   1      50.499  34.360  53.011  0.00  0.00     0.002 A 
ATOM     14  C   UNL d   1      50.641  34.211  52.212  0.00  0.00     0.000 A 
ATOM     15  C   UNL d   1      51.403  34.261  51.920  0.00  0.00     0.002 A 
ATOM     16  C   UNL d   1      52.028  34.460  52.420  0.00  0.00     0.018 A 
ENDBRANCH   7  11
ENDBRANCH   5   6
ENDBRANCH   4   5
ENDBRANCH   2   4
BRANCH   1  17
ATOM     17  C   UNL d   1      53.458  30.941  53.994  0.00  0.00     0.107 A 
ATOM     18  C   UNL d   1      53.248  30.426  53.395  0.00  0.00     0.114 A 
ATOM     19  C   UNL d   1      53.193  29.626  53.540  0.00  0.00     0.050 A 
ATOM     20  C   UNL d   1      53.350  29.330  54.297  0.00  0.00     0.096 A 
ATOM     21  C   UNL d   1      53.563  29.847  54.909  0.00  0.00     0.026 A 
ATOM     22  C   UNL d   1      53.616  30.653  54.751  0.00  0.00     0.023 A 
BRANCH  18  23
ATOM     23  O   UNL d   1      53.091  30.709  52.642  0.00  0.00    -0.327 OA
ATOM     24  C   UNL d   1      52.919  30.174  52.024  0.00  0.00     0.181 C 
ENDBRANCH  18  23
BRANCH  20  25
ATOM     25  O   UNL d   1      53.292  28.511  54.440  0.00  0.00    -0.328 OA
ATOM     26  C   UNL d   1      53.425  28.217  55.204  0.00  0.00     0.181 C 
ENDBRANCH  20  25
ENDBRANCH   1  17
TORSDOF 7
ENDMDL
