MODEL 1
REMARK VINA RESULT:      -7.1      0.000      0.000
REMARK  3 active torsions:
REMARK  status: ('A' for Active; 'I' for Inactive)
REMARK    1  A    between atoms: N_5  and  C_1 
REMARK    2  A    between atoms: C_10  and  C_2 
REMARK       I    between atoms: C_8  and  N_5 
REMARK    3  A    between atoms: C_7  and  C_8 
ROOT
ATOM      1  C   UNL d   1     -49.000  14.004  22.647  0.00  0.00     0.119 A 
ATOM      2  C   UNL d   1     -49.726  13.798  22.290  0.00  0.00     0.084 A 
ATOM      3  S   UNL d   1     -49.107  14.717  23.039  0.00  0.00    -0.068 SA
ATOM      4  C   UNL d   1     -50.275  14.389  22.468  0.00  0.00     0.013 A 
ATOM      5  C   UNL d   1     -49.890  14.962  22.934  0.00  0.00     0.031 A 
ATOM      6  C   UNL d   1     -51.063  14.415  22.230  0.00  0.00     0.001 C 
ATOM      7  C   UNL d   1     -50.234  15.647  23.234  0.00  0.00     0.007 C 
ENDROOT
BRANCH   1   8
ATOM      8  N   UNL d   1     -48.303  13.566  22.609  0.00  0.00    -0.201 NA
ATOM      9  C   UNL d   1     -47.590  13.913  22.844  0.00  0.00     0.286 C 
ATOM     10  O   UNL d   1     -47.564  14.682  23.113  0.00  0.00    -0.265 OA
BRANCH   9  11
ATOM     11  C   UNL d   1     -46.888  13.473  22.806  0.00  0.00     0.088 A 
ATOM     12  S   UNL d   1     -46.246  13.604  22.291  0.00  0.00    -0.075 SA
ATOM     13  C   UNL d   1     -45.664  13.030  22.446  0.00  0.00     0.064 A 
ATOM     14 BR   UNL d   1     -44.925  12.949  22.061  0.00  0.00    -0.042 Br
ATOM     15  C   UNL d   1     -45.955  12.553  23.054  0.00  0.00     0.014 A 
ATOM     16  C   UNL d   1     -46.699  12.822  23.272  0.00  0.00     0.012 A 
ENDBRANCH   9  11
ENDBRANCH   1   8
BRANCH   2  17
ATOM     17  C   UNL d   1     -49.868  13.121  21.839  0.00  0.00     0.299 C 
ATOM     18  O   UNL d   1     -49.717  13.128  21.019  0.00  0.00    -0.264 OA
ATOM     19  N   UNL d   1     -50.162  12.429  22.195  0.00  0.00    -0.102 N 
ENDBRANCH   2  17
TORSDOF 3
ENDMDL
MODEL 2
REMARK VINA RESULT:      -5.5      8.786      9.533
REMARK  3 active torsions:
REMARK  status: ('A' for Active; 'I' for Inactive)
REMARK    1  A    between atoms: N_5  and  C_1 
REMARK    2  A    between atoms: C_10  and  C_2 
REMARK       I    between atoms: C_8  and  N_5 
REMARK    3  A    between atoms: C_7  and  C_8 
ROOT
ATOM      1  C   UNL d   1     -40.168  15.097  18.424  0.00  0.00     0.119 A 
ATOM      2  C   UNL d   1     -39.875  14.674  17.767  0.00  0.00     0.084 A 
ATOM      3  S   UNL d   1     -40.750  15.610  18.152  0.00  0.00    -0.068 SA
ATOM      4  C   UNL d   1     -40.281  14.931  17.095  0.00  0.00     0.013 A 
ATOM      5  C   UNL d   1     -40.825  15.514  17.335  0.00  0.00     0.031 A 
ATOM      6  C   UNL d   1     -40.172  14.664  16.324  0.00  0.00     0.001 C 
ATOM      7  C   UNL d   1     -41.344  15.919  16.840  0.00  0.00     0.007 C 
ENDROOT
BRANCH   1   8
ATOM      8  N   UNL d   1     -39.915  15.013  19.203  0.00  0.00    -0.201 NA
ATOM      9  C   UNL d   1     -40.302  15.429  19.805  0.00  0.00     0.286 C 
ATOM     10  O   UNL d   1     -40.930  15.922  19.640  0.00  0.00    -0.265 OA
BRANCH   9  11
ATOM     11  C   UNL d   1     -40.048  15.343  20.590  0.00  0.00     0.088 A 
ATOM     12  S   UNL d   1     -39.581  15.881  21.022  0.00  0.00    -0.075 SA
ATOM     13  C   UNL d   1     -39.462  15.570  21.785  0.00  0.00     0.064 A 
ATOM     14 BR   UNL d   1     -39.026  15.922  22.407  0.00  0.00    -0.042 Br
ATOM     15  C   UNL d   1     -39.857  14.846  21.812  0.00  0.00     0.014 A 
ATOM     16  C   UNL d   1     -40.213  14.708  21.085  0.00  0.00     0.012 A 
ENDBRANCH   9  11
ENDBRANCH   1   8
BRANCH   2  17
ATOM     17  C   UNL d   1     -39.283  14.099  17.788  0.00  0.00     0.299 C 
ATOM     18  O   UNL d   1     -39.484  13.299  17.910  0.00  0.00    -0.264 OA
ATOM     19  N   UNL d   1     -38.484  14.310  17.688  0.00  0.00    -0.102 N 
ENDBRANCH   2  17
TORSDOF 3
ENDMDL
MODEL 3
REMARK VINA RESULT:      -5.4      8.693     10.408
REMARK  3 active torsions:
REMARK  status: ('A' for Active; 'I' for Inactive)
REMARK    1  A    between atoms: N_5  and  C_1 
REMARK    2  A    between atoms: C_10  and  C_2 
REMARK       I    between atoms: C_8  and  N_5 
REMARK    3  A    between atoms: C_7  and  C_8 
ROOT
ATOM      1  C   UNL d   1     -39.204  14.098  17.897  0.00  0.00     0.119 A 
ATOM      2  C   UNL d   1     -39.196  14.369  17.108  0.00  0.00     0.084 A 
ATOM      3  S   UNL d   1     -38.737  13.423  17.936  0.00  0.00    -0.068 SA
ATOM      4  C   UNL d   1     -38.722  13.855  16.666  0.00  0.00     0.013 A 
ATOM      5  C   UNL d   1     -38.437  13.266  17.182  0.00  0.00     0.031 A 
ATOM      6  C   UNL d   1     -38.557  13.910  15.862  0.00  0.00     0.001 C 
ATOM      7  C   UNL d   1     -37.943  12.642  16.971  0.00  0.00     0.007 C 
ENDROOT
BRANCH   1   8
ATOM      8  N   UNL d   1     -39.610  14.449  18.523  0.00  0.00    -0.201 NA
ATOM      9  C   UNL d   1     -39.423  14.236  19.301  0.00  0.00     0.286 C 
ATOM     10  O   UNL d   1     -38.845  13.684  19.460  0.00  0.00    -0.265 OA
BRANCH   9  11
ATOM     11  C   UNL d   1     -39.831  14.589  19.930  0.00  0.00     0.088 A 
ATOM     12  S   UNL d   1     -39.536  15.168  20.451  0.00  0.00    -0.075 SA
ATOM     13  C   UNL d   1     -40.136  15.362  20.995  0.00  0.00     0.064 A 
ATOM     14 BR   UNL d   1     -40.086  15.918  21.619  0.00  0.00    -0.042 Br
ATOM     15  C   UNL d   1     -40.792  14.899  20.802  0.00  0.00     0.014 A 
ATOM     16  C   UNL d   1     -40.606  14.429  20.155  0.00  0.00     0.012 A 
ENDBRANCH   9  11
ENDBRANCH   1   8
BRANCH   2  17
ATOM     17  C   UNL d   1     -39.592  15.033  16.821  0.00  0.00     0.299 C 
ATOM     18  O   UNL d   1     -40.404  14.986  16.638  0.00  0.00    -0.264 OA
ATOM     19  N   UNL d   1     -39.189  15.753  16.711  0.00  0.00    -0.102 N 
ENDBRANCH   2  17
TORSDOF 3
ENDMDL
MODEL 4
REMARK VINA RESULT:      -4.8      1.565      1.985
REMARK  3 active torsions:
REMARK  status: ('A' for Active; 'I' for Inactive)
REMARK    1  A    between atoms: N_5  and  C_1 
REMARK    2  A    between atoms: C_10  and  C_2 
REMARK       I    between atoms: C_8  and  N_5 
REMARK    3  A    between atoms: C_7  and  C_8 
ROOT
ATOM      1  C   UNL d   1     -49.049  13.812  23.325  0.00  0.00     0.119 A 
ATOM      2  C   UNL d   1     -49.073  14.524  22.892  0.00  0.00     0.084 A 
ATOM      3  S   UNL d   1     -49.785  13.706  23.675  0.00  0.00    -0.068 SA
ATOM      4  C   UNL d   1     -49.827  14.852  22.980  0.00  0.00     0.013 A 
ATOM      5  C   UNL d   1     -50.270  14.342  23.467  0.00  0.00     0.031 A 
ATOM      6  C   UNL d   1     -50.099  15.555  22.648  0.00  0.00     0.001 C 
ATOM      7  C   UNL d   1     -51.052  14.458  23.698  0.00  0.00     0.007 C 
ENDROOT
BRANCH   1   8
ATOM      8  N   UNL d   1     -48.401  13.307  23.388  0.00  0.00    -0.201 NA
ATOM      9  C   UNL d   1     -48.523  12.494  23.475  0.00  0.00     0.286 C 
ATOM     10  O   UNL d   1     -49.276  12.181  23.500  0.00  0.00    -0.265 OA
BRANCH   9  11
ATOM     11  C   UNL d   1     -47.870  11.986  23.538  0.00  0.00     0.088 A 
ATOM     12  S   UNL d   1     -47.067  12.199  23.472  0.00  0.00    -0.075 SA
ATOM     13  C   UNL d   1     -46.605  11.514  23.572  0.00  0.00     0.064 A 
ATOM     14 BR   UNL d   1     -45.770  11.465  23.550  0.00  0.00    -0.042 Br
ATOM     15  C   UNL d   1     -47.130  10.889  23.698  0.00  0.00     0.014 A 
ATOM     16  C   UNL d   1     -47.899  11.176  23.677  0.00  0.00     0.012 A 
ENDBRANCH   9  11
ENDBRANCH   1   8
BRANCH   2  17
ATOM     17  C   UNL d   1     -48.452  14.844  22.453  0.00  0.00     0.299 C 
ATOM     18  O   UNL d   1     -47.839  15.257  22.839  0.00  0.00    -0.264 OA
ATOM     19  N   UNL d   1     -48.430  14.760  21.625  0.00  0.00    -0.102 N 
ENDBRANCH   2  17
TORSDOF 3
ENDMDL
