MODEL 1
REMARK VINA RESULT:      -2.0      0.000      0.000
REMARK  5 active torsions:
REMARK  status: ('A' for Active; 'I' for Inactive)
REMARK    1  A    between atoms: C_14  and  N_4 
REMARK    2  A    between atoms: C_12  and  N_6 
REMARK    3  A    between atoms: C_10  and  C_12 
REMARK       I    between atoms: N_11  and  C_10 
REMARK    4  A    between atoms: C_13  and  N_11 
REMARK    5  A    between atoms: O_18  and  C_17 
ROOT
ATOM      1  C   UNL d   1      33.000  21.462 -21.947  0.00  0.00     0.172 A 
ATOM      2  C   UNL d   1      33.081  21.587 -22.759  0.00  0.00     0.113 A 
ATOM      3  N   UNL d   1      33.000  20.699 -21.645  0.00  0.00    -0.206 NA
ATOM      4  N   UNL d   1      32.932  22.207 -21.587  0.00  0.00    -0.212 N 
ATOM      5  C   UNL d   1      33.161  20.949 -23.269  0.00  0.00     0.271 A 
ATOM      6  N   UNL d   1      33.160  20.178 -22.968  0.00  0.00    -0.251 N 
ATOM      7  N   UNL d   1      32.971  22.773 -22.176  0.00  0.00    -0.162 NA
ATOM      8  C   UNL d   1      33.080  20.053 -22.156  0.00  0.00     0.187 A 
ATOM      9  C   UNL d   1      33.061  22.407 -22.887  0.00  0.00     0.129 A 
ATOM     10  O   UNL d   1      33.241  21.074 -24.080  0.00  0.00    -0.266 OA
ENDROOT
BRANCH   6  11
ATOM     11  C   UNL d   1      33.241  19.523 -23.480  0.00  0.00     0.147 C 
BRANCH  11  12
ATOM     12  C   UNL d   1      32.821  18.821 -23.327  0.00  0.00     0.297 C 
ATOM     13  N   UNL d   1      32.568  18.360 -23.963  0.00  0.00    -0.205 NA
ATOM     14  O   UNL d   1      32.668  18.599 -22.556  0.00  0.00    -0.264 OA
BRANCH  13  15
ATOM     15  C   UNL d   1      32.148  17.658 -23.810  0.00  0.00     0.107 A 
ATOM     16  C   UNL d   1      31.437  17.534 -24.195  0.00  0.00     0.112 A 
ATOM     17  C   UNL d   1      31.018  16.832 -24.042  0.00  0.00     0.026 A 
ATOM     18  C   UNL d   1      31.313  16.280 -23.517  0.00  0.00     0.002 A 
ATOM     19  C   UNL d   1      32.024  16.403 -23.132  0.00  0.00     0.002 A 
ATOM     20  C   UNL d   1      32.438  17.101 -23.287  0.00  0.00     0.021 A 
BRANCH  16  21
ATOM     21  O   UNL d   1      31.141  18.086 -24.719  0.00  0.00    -0.327 OA
ATOM     22  C   UNL d   1      30.426  17.967 -25.096  0.00  0.00     0.181 C 
ENDBRANCH  16  21
ENDBRANCH  13  15
ENDBRANCH  11  12
ENDBRANCH   6  11
BRANCH   4  23
ATOM     23  C   UNL d   1      32.842  22.386 -20.797  0.00  0.00     0.085 A 
ATOM     24  C   UNL d   1      33.235  21.932 -20.219  0.00  0.00     0.019 A 
ATOM     25  C   UNL d   1      33.140  22.117 -19.427  0.00  0.00     0.002 A 
ATOM     26  C   UNL d   1      32.649  22.761 -19.197  0.00  0.00     0.000 A 
ATOM     27  C   UNL d   1      32.271  23.196 -19.770  0.00  0.00     0.002 A 
ATOM     28  C   UNL d   1      32.361  23.017 -20.568  0.00  0.00     0.019 A 
ENDBRANCH   4  23
TORSDOF 5
ENDMDL
MODEL 2
REMARK VINA RESULT:      -1.5      0.890      1.234
REMARK  5 active torsions:
REMARK  status: ('A' for Active; 'I' for Inactive)
REMARK    1  A    between atoms: C_14  and  N_4 
REMARK    2  A    between atoms: C_12  and  N_6 
REMARK    3  A    between atoms: C_10  and  C_12 
REMARK       I    between atoms: N_11  and  C_10 
REMARK    4  A    between atoms: C_13  and  N_11 
REMARK    5  A    between atoms: O_18  and  C_17 
ROOT
ATOM      1  C   UNL d   1      32.892  22.277 -21.126  0.00  0.00     0.172 A 
ATOM      2  C   UNL d   1      32.814  22.530 -21.907  0.00  0.00     0.113 A 
ATOM      3  N   UNL d   1      33.082  21.496 -20.961  0.00  0.00    -0.206 NA
ATOM      4  N   UNL d   1      32.747  22.932 -20.638  0.00  0.00    -0.212 N 
ATOM      5  C   UNL d   1      32.926  22.002 -22.525  0.00  0.00     0.271 A 
ATOM      6  N   UNL d   1      33.118  21.212 -22.363  0.00  0.00    -0.251 N 
ATOM      7  N   UNL d   1      32.584  23.572 -21.121  0.00  0.00    -0.162 NA
ATOM      8  C   UNL d   1      33.196  20.959 -21.582  0.00  0.00     0.187 A 
ATOM      9  C   UNL d   1      32.622  23.337 -21.889  0.00  0.00     0.129 A 
ATOM     10  O   UNL d   1      32.849  22.254 -23.307  0.00  0.00    -0.266 OA
ENDROOT
BRANCH   6  11
ATOM     11  C   UNL d   1      33.234  20.668 -22.987  0.00  0.00     0.147 C 
BRANCH  11  12
ATOM     12  C   UNL d   1      33.111  19.855 -22.857  0.00  0.00     0.297 C 
ATOM     13  N   UNL d   1      32.991  19.361 -23.507  0.00  0.00    -0.205 NA
ATOM     14  O   UNL d   1      33.111  19.560 -22.095  0.00  0.00    -0.264 OA
BRANCH  13  15
ATOM     15  C   UNL d   1      32.869  18.548 -23.378  0.00  0.00     0.107 A 
ATOM     16  C   UNL d   1      32.368  18.142 -23.882  0.00  0.00     0.112 A 
ATOM     17  C   UNL d   1      32.246  17.329 -23.752  0.00  0.00     0.026 A 
ATOM     18  C   UNL d   1      32.620  16.948 -23.134  0.00  0.00     0.002 A 
ATOM     19  C   UNL d   1      33.120  17.354 -22.630  0.00  0.00     0.002 A 
ATOM     20  C   UNL d   1      33.239  18.160 -22.762  0.00  0.00     0.021 A 
BRANCH  16  21
ATOM     21  O   UNL d   1      31.994  18.523 -24.500  0.00  0.00    -0.327 OA
ATOM     22  C   UNL d   1      31.538  18.107 -25.035  0.00  0.00     0.181 C 
ENDBRANCH  16  21
ENDBRANCH  13  15
ENDBRANCH  11  12
ENDBRANCH   6  11
BRANCH   4  23
ATOM     23  C   UNL d   1      32.755  22.975 -19.823  0.00  0.00     0.085 A 
ATOM     24  C   UNL d   1      33.232  22.451 -19.383  0.00  0.00     0.019 A 
ATOM     25  C   UNL d   1      33.235  22.499 -18.567  0.00  0.00     0.002 A 
ATOM     26  C   UNL d   1      32.762  23.073 -18.171  0.00  0.00     0.000 A 
ATOM     27  C   UNL d   1      32.302  23.577 -18.612  0.00  0.00     0.002 A 
ATOM     28  C   UNL d   1      32.292  23.536 -19.434  0.00  0.00     0.019 A 
ENDBRANCH   4  23
TORSDOF 5
ENDMDL
