MODEL 1
REMARK VINA RESULT:       0.3      0.000      0.000
REMARK  3 active torsions:
REMARK  status: ('A' for Active; 'I' for Inactive)
REMARK    1  A    between atoms: C_9  and  C_4 
REMARK       I    between atoms: C_6  and  N_8 
REMARK    2  A    between atoms: C_13  and  C_6 
REMARK    3  A    between atoms: N_8  and  C_16 
ROOT
ATOM      1  C   UNL d   1      56.432   0.082  32.389  0.00  0.00     0.019 A 
ATOM      2  C   UNL d   1      56.433   0.682  31.832  0.00  0.00     0.003 A 
ATOM      3  C   UNL d   1      56.727  -0.659  32.206  0.00  0.00     0.003 A 
ATOM      4  C   UNL d   1      57.033  -0.207  30.891  0.00  0.00     0.085 A 
ATOM      5  C   UNL d   1      57.030  -0.803  31.451  0.00  0.00     0.019 A 
ATOM      6  C   UNL d   1      56.734   0.538  31.081  0.00  0.00     0.019 A 
ENDROOT
BRANCH   1   7
ATOM      7  C   UNL d   1      56.128   0.226  33.148  0.00  0.00     0.101 A 
ATOM      8  N   UNL d   1      55.335   0.190  33.327  0.00  0.00    -0.221 NA
ATOM      9  C   UNL d   1      55.241   0.363  34.128  0.00  0.00     0.179 A 
ATOM     10  N   UNL d   1      55.979   0.508  34.452  0.00  0.00    -0.282 N 
ATOM     11  S   UNL d   1      54.677   0.445  34.730  0.00  0.00    -0.048 SA
ATOM     12  C   UNL d   1      56.535   0.423  33.840  0.00  0.00     0.101 A 
ATOM     13  C   UNL d   1      55.885   0.682  35.253  0.00  0.00     0.089 A 
ATOM     14  C   UNL d   1      55.076   0.641  35.420  0.00  0.00     0.057 A 
ENDBRANCH   1   7
BRANCH   4  15
ATOM     15  N   UNL d   1      57.338  -0.351  30.131  0.00  0.00    -0.208 NA
ATOM     16  C   UNL d   1      58.152  -0.264  29.979  0.00  0.00     0.279 C 
ATOM     17  O   UNL d   1      58.453  -0.403  29.237  0.00  0.00    -0.265 OA
BRANCH  16  18
ATOM     18  C   UNL d   1      58.650  -0.033  30.593  0.00  0.00     0.058 A 
ATOM     19  C   UNL d   1      59.206   0.568  30.479  0.00  0.00     0.005 A 
ATOM     20  C   UNL d   1      59.616   0.671  31.187  0.00  0.00     0.000 A 
ATOM     21  C   UNL d   1      59.324   0.145  31.738  0.00  0.00     0.000 A 
ATOM     22  C   UNL d   1      58.722  -0.297  31.375  0.00  0.00     0.005 A 
ENDBRANCH  16  18
ENDBRANCH   4  15
TORSDOF 3
ENDMDL
