MODEL 1
REMARK VINA RESULT:      -3.8      0.000      0.000
REMARK  6 active torsions:
REMARK  status: ('A' for Active; 'I' for Inactive)
REMARK    1  A    between atoms: N_2  and  S_1 
REMARK    2  A    between atoms: C_7  and  S_1 
REMARK    3  A    between atoms: C_8  and  N_2 
REMARK    4  A    between atoms: N_3  and  C_9 
REMARK    5  A    between atoms: N_4  and  N_3 
REMARK    6  A    between atoms: C_10  and  N_4 
ROOT
ATOM      1  C   UNL d   1      33.140  18.508 -23.290  0.00  0.00     0.094 A 
ATOM      2  C   UNL d   1      33.204  19.887 -22.396  0.00  0.00     0.103 A 
ATOM      3  C   UNL d   1      33.104  19.248 -23.663  0.00  0.00     0.021 A 
ATOM      4  C   UNL d   1      33.208  18.464 -22.469  0.00  0.00     0.021 A 
ATOM      5  C   UNL d   1      33.241  19.155 -22.012  0.00  0.00     0.022 A 
ATOM      6  C   UNL d   1      33.135  19.931 -23.217  0.00  0.00     0.022 A 
ENDROOT
BRANCH   1   7
ATOM      7  N   UNL d   1      33.109  17.816 -23.736  0.00  0.00    -0.158 NA
BRANCH   7   8
ATOM      8  S   UNL d   1      32.383  17.442 -23.854  0.00  0.00     0.285 S 
ATOM      9  O   UNL d   1      32.460  17.079 -23.117  0.00  0.00    -0.198 OA
ATOM     10  O   UNL d   1      32.305  17.805 -24.591  0.00  0.00    -0.198 OA
BRANCH   8  11
ATOM     11  C   UNL d   1      31.658  17.060 -23.956  0.00  0.00     0.105 A 
ATOM     12  C   UNL d   1      31.587  16.263 -23.735  0.00  0.00     0.013 A 
ATOM     13  C   UNL d   1      30.866  15.874 -23.834  0.00  0.00     0.001 A 
ATOM     14  C   UNL d   1      30.220  16.274 -24.150  0.00  0.00     0.000 A 
ATOM     15  C   UNL d   1      30.293  17.072 -24.371  0.00  0.00     0.001 A 
ATOM     16  C   UNL d   1      31.013  17.461 -24.272  0.00  0.00     0.013 A 
ENDBRANCH   8  11
ENDBRANCH   7   8
ENDBRANCH   1   7
BRANCH   2  17
ATOM     17  N   UNL d   1      33.235  20.583 -21.952  0.00  0.00    -0.148 NA
BRANCH  17  18
ATOM     18  N   UNL d   1      32.661  20.725 -21.374  0.00  0.00    -0.148 NA
BRANCH  18  19
ATOM     19  C   UNL d   1      32.669  21.439 -20.958  0.00  0.00     0.103 A 
ATOM     20  C   UNL d   1      33.147  21.532 -20.299  0.00  0.00     0.021 A 
ATOM     21  C   UNL d   1      33.156  22.235 -19.886  0.00  0.00     0.002 A 
ATOM     22  C   UNL d   1      32.680  22.861 -20.135  0.00  0.00     0.000 A 
ATOM     23  C   UNL d   1      32.194  22.784 -20.795  0.00  0.00     0.002 A 
ATOM     24  C   UNL d   1      32.192  22.065 -21.206  0.00  0.00     0.021 A 
ENDBRANCH  18  19
ENDBRANCH  17  18
ENDBRANCH   2  17
TORSDOF 6
ENDMDL
MODEL 2
REMARK VINA RESULT:      -3.3      0.838      1.164
REMARK  6 active torsions:
REMARK  status: ('A' for Active; 'I' for Inactive)
REMARK    1  A    between atoms: N_2  and  S_1 
REMARK    2  A    between atoms: C_7  and  S_1 
REMARK    3  A    between atoms: C_8  and  N_2 
REMARK    4  A    between atoms: N_3  and  C_9 
REMARK    5  A    between atoms: N_4  and  N_3 
REMARK    6  A    between atoms: C_10  and  N_4 
ROOT
ATOM      1  C   UNL d   1      32.636  17.839 -23.891  0.00  0.00     0.094 A 
ATOM      2  C   UNL d   1      33.032  19.151 -22.981  0.00  0.00     0.103 A 
ATOM      3  C   UNL d   1      32.905  17.741 -23.114  0.00  0.00     0.021 A 
ATOM      4  C   UNL d   1      32.566  18.597 -24.209  0.00  0.00     0.021 A 
ATOM      5  C   UNL d   1      32.764  19.264 -23.757  0.00  0.00     0.022 A 
ATOM      6  C   UNL d   1      33.101  18.393 -22.664  0.00  0.00     0.022 A 
ENDROOT
BRANCH   1   7
ATOM      7  N   UNL d   1      32.437  17.184 -24.349  0.00  0.00    -0.158 NA
BRANCH   7   8
ATOM      8  S   UNL d   1      31.701  16.826 -24.247  0.00  0.00     0.285 S 
ATOM      9  O   UNL d   1      32.010  16.389 -23.619  0.00  0.00    -0.198 OA
ATOM     10  O   UNL d   1      31.392  17.262 -24.875  0.00  0.00    -0.198 OA
BRANCH   8  11
ATOM     11  C   UNL d   1      30.971  16.458 -24.131  0.00  0.00     0.105 A 
ATOM     12  C   UNL d   1      30.918  15.826 -23.596  0.00  0.00     0.013 A 
ATOM     13  C   UNL d   1      30.192  15.453 -23.474  0.00  0.00     0.001 A 
ATOM     14  C   UNL d   1      29.524  15.707 -23.882  0.00  0.00     0.000 A 
ATOM     15  C   UNL d   1      29.578  16.339 -24.417  0.00  0.00     0.001 A 
ATOM     16  C   UNL d   1      30.304  16.713 -24.539  0.00  0.00     0.013 A 
ENDBRANCH   8  11
ENDBRANCH   7   8
ENDBRANCH   1   7
BRANCH   2  17
ATOM     17  N   UNL d   1      33.231  19.807 -22.521  0.00  0.00    -0.148 NA
BRANCH  17  18
ATOM     18  N   UNL d   1      32.634  20.274 -22.193  0.00  0.00    -0.148 NA
BRANCH  18  19
ATOM     19  C   UNL d   1      32.833  20.899 -21.690  0.00  0.00     0.103 A 
ATOM     20  C   UNL d   1      32.904  20.778 -20.882  0.00  0.00     0.021 A 
ATOM     21  C   UNL d   1      33.101  21.392 -20.384  0.00  0.00     0.002 A 
ATOM     22  C   UNL d   1      33.229  22.146 -20.695  0.00  0.00     0.000 A 
ATOM     23  C   UNL d   1      33.161  22.284 -21.504  0.00  0.00     0.002 A 
ATOM     24  C   UNL d   1      32.961  21.652 -22.001  0.00  0.00     0.021 A 
ENDBRANCH  18  19
ENDBRANCH  17  18
ENDBRANCH   2  17
TORSDOF 6
ENDMDL
MODEL 3
REMARK VINA RESULT:      -2.6      1.602      5.292
REMARK  6 active torsions:
REMARK  status: ('A' for Active; 'I' for Inactive)
REMARK    1  A    between atoms: N_2  and  S_1 
REMARK    2  A    between atoms: C_7  and  S_1 
REMARK    3  A    between atoms: C_8  and  N_2 
REMARK    4  A    between atoms: N_3  and  C_9 
REMARK    5  A    between atoms: N_4  and  N_3 
REMARK    6  A    between atoms: C_10  and  N_4 
ROOT
ATOM      1  C   UNL d   1      32.585  17.891 -23.837  0.00  0.00     0.094 A 
ATOM      2  C   UNL d   1      31.281  16.926 -24.110  0.00  0.00     0.103 A 
ATOM      3  C   UNL d   1      32.065  18.060 -24.460  0.00  0.00     0.021 A 
ATOM      4  C   UNL d   1      32.447  17.237 -23.353  0.00  0.00     0.021 A 
ATOM      5  C   UNL d   1      31.792  16.746 -23.485  0.00  0.00     0.022 A 
ATOM      6  C   UNL d   1      31.418  17.580 -24.594  0.00  0.00     0.022 A 
ENDROOT
BRANCH   1   7
ATOM      7  N   UNL d   1      33.239  18.373 -23.698  0.00  0.00    -0.158 NA
BRANCH   7   8
ATOM      8  S   UNL d   1      33.186  18.977 -23.139  0.00  0.00     0.285 S 
ATOM      9  O   UNL d   1      33.131  19.527 -23.751  0.00  0.00    -0.198 OA
ATOM     10  O   UNL d   1      33.241  18.426 -22.527  0.00  0.00    -0.198 OA
BRANCH   8  11
ATOM     11  C   UNL d   1      33.132  19.593 -22.592  0.00  0.00     0.105 A 
ATOM     12  C   UNL d   1      33.229  19.426 -21.784  0.00  0.00     0.013 A 
ATOM     13  C   UNL d   1      33.177  20.036 -21.231  0.00  0.00     0.001 A 
ATOM     14  C   UNL d   1      33.030  20.806 -21.479  0.00  0.00     0.000 A 
ATOM     15  C   UNL d   1      32.933  20.973 -22.288  0.00  0.00     0.001 A 
ATOM     16  C   UNL d   1      32.985  20.363 -22.841  0.00  0.00     0.013 A 
ENDBRANCH   8  11
ENDBRANCH   7   8
ENDBRANCH   1   7
BRANCH   2  17
ATOM     17  N   UNL d   1      30.625  16.444 -24.251  0.00  0.00    -0.148 NA
BRANCH  17  18
ATOM     18  N   UNL d   1      29.876  16.785 -24.325  0.00  0.00    -0.148 NA
BRANCH  18  19
ATOM     19  C   UNL d   1      29.204  16.339 -24.141  0.00  0.00     0.103 A 
ATOM     20  C   UNL d   1      28.795  15.940 -24.728  0.00  0.00     0.021 A 
ATOM     21  C   UNL d   1      28.133  15.500 -24.549  0.00  0.00     0.002 A 
ATOM     22  C   UNL d   1      27.870  15.455 -23.769  0.00  0.00     0.000 A 
ATOM     23  C   UNL d   1      28.270  15.850 -23.166  0.00  0.00     0.002 A 
ATOM     24  C   UNL d   1      28.942  16.294 -23.360  0.00  0.00     0.021 A 
ENDBRANCH  18  19
ENDBRANCH  17  18
ENDBRANCH   2  17
TORSDOF 6
ENDMDL
MODEL 4
REMARK VINA RESULT:      -0.9      1.571      5.309
REMARK  6 active torsions:
REMARK  status: ('A' for Active; 'I' for Inactive)
REMARK    1  A    between atoms: N_2  and  S_1 
REMARK    2  A    between atoms: C_7  and  S_1 
REMARK    3  A    between atoms: C_8  and  N_2 
REMARK    4  A    between atoms: N_3  and  C_9 
REMARK    5  A    between atoms: N_4  and  N_3 
REMARK    6  A    between atoms: C_10  and  N_4 
ROOT
ATOM      1  C   UNL d   1      32.855  19.514 -23.109  0.00  0.00     0.094 A 
ATOM      2  C   UNL d   1      32.086  18.104 -23.464  0.00  0.00     0.103 A 
ATOM      3  C   UNL d   1      32.297  19.487 -23.721  0.00  0.00     0.021 A 
ATOM      4  C   UNL d   1      33.024  18.832 -22.677  0.00  0.00     0.021 A 
ATOM      5  C   UNL d   1      32.641  18.117 -22.850  0.00  0.00     0.022 A 
ATOM      6  C   UNL d   1      31.916  18.786 -23.896  0.00  0.00     0.022 A 
ENDROOT
BRANCH   1   7
ATOM      7  N   UNL d   1      33.241  20.219 -22.929  0.00  0.00    -0.158 NA
BRANCH   7   8
ATOM      8  S   UNL d   1      32.949  20.699 -22.325  0.00  0.00     0.285 S 
ATOM      9  O   UNL d   1      32.849  21.310 -22.870  0.00  0.00    -0.198 OA
ATOM     10  O   UNL d   1      33.049  20.089 -21.779  0.00  0.00    -0.198 OA
BRANCH   8  11
ATOM     11  C   UNL d   1      32.655  21.193 -21.732  0.00  0.00     0.105 A 
ATOM     12  C   UNL d   1      32.496  20.873 -20.982  0.00  0.00     0.013 A 
ATOM     13  C   UNL d   1      32.202  21.359 -20.384  0.00  0.00     0.001 A 
ATOM     14  C   UNL d   1      32.066  22.158 -20.531  0.00  0.00     0.000 A 
ATOM     15  C   UNL d   1      32.225  22.477 -21.281  0.00  0.00     0.001 A 
ATOM     16  C   UNL d   1      32.520  21.991 -21.879  0.00  0.00     0.013 A 
ENDBRANCH   8  11
ENDBRANCH   7   8
ENDBRANCH   1   7
BRANCH   2  17
ATOM     17  N   UNL d   1      31.697  17.398 -23.646  0.00  0.00    -0.148 NA
BRANCH  17  18
ATOM     18  N   UNL d   1      31.140  17.384 -24.256  0.00  0.00    -0.148 NA
BRANCH  18  19
ATOM     19  C   UNL d   1      30.631  16.736 -24.329  0.00  0.00     0.103 A 
ATOM     20  C   UNL d   1      30.608  16.157 -23.750  0.00  0.00     0.021 A 
ATOM     21  C   UNL d   1      30.106  15.518 -23.819  0.00  0.00     0.002 A 
ATOM     22  C   UNL d   1      29.616  15.453 -24.480  0.00  0.00     0.000 A 
ATOM     23  C   UNL d   1      29.628  16.027 -25.071  0.00  0.00     0.002 A 
ATOM     24  C   UNL d   1      30.141  16.671 -24.989  0.00  0.00     0.021 A 
ENDBRANCH  18  19
ENDBRANCH  17  18
ENDBRANCH   2  17
TORSDOF 6
ENDMDL
