MODEL 1
REMARK VINA RESULT:      -5.5      0.000      0.000
REMARK  10 active torsions:
REMARK  status: ('A' for Active; 'I' for Inactive)
REMARK    1  A    between atoms: C_2  and  C_1 
REMARK       I    between atoms: N_3  and  C_1 
REMARK    2  A    between atoms: C_5  and  C_2 
REMARK    3  A    between atoms: C_6  and  N_3 
REMARK    4  A    between atoms: C_4  and  C_5 
REMARK    5  A    between atoms: O_11  and  C_4 
REMARK    6  A    between atoms: N_10  and  C_5 
REMARK    7  A    between atoms: O_13  and  C_9 
REMARK    8  A    between atoms: C_14  and  N_10 
REMARK    9  A    between atoms: N_12  and  C_16 
REMARK   10  A    between atoms: C_16  and  C_14 
ROOT
ATOM      1  C   UNK d   1     -47.278  12.269  22.525  0.00  0.00     0.084 C 
ENDROOT
BRANCH   1   2
ATOM      2  C   UNK d   1     -48.025  12.260  22.857  0.00  0.00     0.259 C 
ATOM      3  N   UNK d   1     -48.691  12.315  22.376  0.00  0.00    -0.320 N 
ATOM      4  H   UNK d   1     -48.597  12.381  21.552  0.00  0.00     0.169 HD
ATOM      5  O   UNK d   1     -48.111  12.194  23.682  0.00  0.00    -0.267 OA
BRANCH   3   6
ATOM      6  C   UNK d   1     -49.439  12.306  22.704  0.00  0.00     0.082 A 
ATOM      7  C   UNK d   1     -50.032  12.800  22.382  0.00  0.00     0.110 A 
ATOM      8  C   UNK d   1     -50.796  12.795  22.712  0.00  0.00     0.026 A 
ATOM      9  C   UNK d   1     -50.945  12.295  23.355  0.00  0.00     0.002 A 
ATOM     10  C   UNK d   1     -50.352  11.806  23.672  0.00  0.00     0.002 A 
ATOM     11  C   UNK d   1     -49.602  11.812  23.347  0.00  0.00     0.019 A 
BRANCH   7  12
ATOM     12  O   UNK d   1     -49.859  13.288  21.742  0.00  0.00    -0.327 OA
ATOM     13  C   UNK d   1     -50.371  13.904  21.549  0.00  0.00     0.181 C 
ENDBRANCH   7  12
ENDBRANCH   3   6
ENDBRANCH   1   2
BRANCH   1  14
ATOM     14  C   UNK d   1     -46.633  12.505  22.975  0.00  0.00     0.124 C 
BRANCH  14  15
ATOM     15  C   UNK d   1     -46.351  13.284  22.919  0.00  0.00     0.194 C 
ATOM     16  O   UNK d   1     -46.190  13.620  22.187  0.00  0.00    -0.645 OA
BRANCH  15  17
ATOM     17  O   UNK d   1     -46.227  13.735  23.604  0.00  0.00    -0.772 OA
ATOM     18  H   UNK d   1     -46.873  14.057  23.995  0.00  0.00     0.167 HD
ENDBRANCH  15  17
ENDBRANCH  14  15
BRANCH  14  19
ATOM     19  N   UNK d   1     -46.276  11.973  23.472  0.00  0.00    -0.346 N 
ATOM     20  H   UNK d   1     -46.554  11.882  24.243  0.00  0.00     0.166 HD
BRANCH  19  21
ATOM     21  C   UNK d   0     -45.636  11.521  23.217  0.00  0.00     0.092 C 
BRANCH  21  22
ATOM     22  C   UNK d   0     -45.312  10.939  23.698  0.00  0.00     0.099 C 
BRANCH  22  23
ATOM     23  N   UNK d   0     -44.636  10.538  23.452  0.00  0.00    -0.299 N 
ATOM     24  C   UNK d   0     -44.005  10.954  23.126  0.00  0.00     0.100 C 
ATOM     25  C   UNK d   0     -44.586   9.718  23.530  0.00  0.00     0.100 C 
ENDBRANCH  22  23
ENDBRANCH  21  22
ENDBRANCH  19  21
ENDBRANCH  14  19
ENDBRANCH   1  14
TORSDOF 10
ENDMDL
MODEL 2
REMARK VINA RESULT:      -5.3      1.513      4.666
REMARK  10 active torsions:
REMARK  status: ('A' for Active; 'I' for Inactive)
REMARK    1  A    between atoms: C_2  and  C_1 
REMARK       I    between atoms: N_3  and  C_1 
REMARK    2  A    between atoms: C_5  and  C_2 
REMARK    3  A    between atoms: C_6  and  N_3 
REMARK    4  A    between atoms: C_4  and  C_5 
REMARK    5  A    between atoms: O_11  and  C_4 
REMARK    6  A    between atoms: N_10  and  C_5 
REMARK    7  A    between atoms: O_13  and  C_9 
REMARK    8  A    between atoms: C_14  and  N_10 
REMARK    9  A    between atoms: N_12  and  C_16 
REMARK   10  A    between atoms: C_16  and  C_14 
ROOT
ATOM      1  C   UNK d   1     -49.292  12.241  23.698  0.00  0.00     0.084 C 
ENDROOT
BRANCH   1   2
ATOM      2  C   UNK d   1     -48.538  11.955  23.563  0.00  0.00     0.259 C 
ATOM      3  N   UNK d   1     -47.884  12.442  23.683  0.00  0.00    -0.320 N 
ATOM      4  H   UNK d   1     -47.998  13.225  23.942  0.00  0.00     0.169 HD
ATOM      5  O   UNK d   1     -48.432  11.172  23.304  0.00  0.00    -0.267 OA
BRANCH   3   6
ATOM      6  C   UNK d   1     -47.130  12.161  23.549  0.00  0.00     0.082 A 
ATOM      7  C   UNK d   1     -46.543  12.685  23.267  0.00  0.00     0.110 A 
ATOM      8  C   UNK d   1     -45.772  12.404  23.129  0.00  0.00     0.026 A 
ATOM      9  C   UNK d   1     -45.609  11.605  23.278  0.00  0.00     0.002 A 
ATOM     10  C   UNK d   1     -46.196  11.088  23.559  0.00  0.00     0.002 A 
ATOM     11  C   UNK d   1     -46.954  11.365  23.694  0.00  0.00     0.019 A 
BRANCH   7  12
ATOM     12  O   UNK d   1     -46.728  13.474  23.126  0.00  0.00    -0.327 OA
ATOM     13  C   UNK d   1     -46.141  13.991  22.867  0.00  0.00     0.181 C 
ENDBRANCH   7  12
ENDBRANCH   3   6
ENDBRANCH   1   2
BRANCH   1  14
ATOM     14  C   UNK d   1     -49.723  12.566  23.080  0.00  0.00     0.124 C 
BRANCH  14  15
ATOM     15  C   UNK d   1     -50.275  12.101  22.668  0.00  0.00     0.194 C 
ATOM     16  O   UNK d   1     -50.922  11.777  23.058  0.00  0.00    -0.645 OA
BRANCH  15  17
ATOM     17  O   UNK d   1     -50.180  11.958  21.858  0.00  0.00    -0.772 OA
ATOM     18  H   UNK d   1     -49.424  11.903  21.546  0.00  0.00     0.167 HD
ENDBRANCH  15  17
ENDBRANCH  14  15
BRANCH  14  19
ATOM     19  N   UNK d   1     -49.605  13.342  22.874  0.00  0.00    -0.346 N 
ATOM     20  H   UNK d   1     -48.913  13.562  22.483  0.00  0.00     0.166 HD
BRANCH  19  21
ATOM     21  C   UNK d   0     -50.169  13.916  23.052  0.00  0.00     0.092 C 
BRANCH  21  22
ATOM     22  C   UNK d   0     -50.130  14.664  22.716  0.00  0.00     0.099 C 
BRANCH  22  23
ATOM     23  N   UNK d   0     -50.294  15.326  23.178  0.00  0.00    -0.299 N 
ATOM     24  C   UNK d   0     -49.689  15.843  23.387  0.00  0.00     0.100 C 
ATOM     25  C   UNK d   0     -51.064  15.477  23.434  0.00  0.00     0.100 C 
ENDBRANCH  22  23
ENDBRANCH  21  22
ENDBRANCH  19  21
ENDBRANCH  14  19
ENDBRANCH   1  14
TORSDOF 10
ENDMDL
MODEL 3
REMARK VINA RESULT:      -4.8      1.523      2.144
REMARK  10 active torsions:
REMARK  status: ('A' for Active; 'I' for Inactive)
REMARK    1  A    between atoms: C_2  and  C_1 
REMARK       I    between atoms: N_3  and  C_1 
REMARK    2  A    between atoms: C_5  and  C_2 
REMARK    3  A    between atoms: C_6  and  N_3 
REMARK    4  A    between atoms: C_4  and  C_5 
REMARK    5  A    between atoms: O_11  and  C_4 
REMARK    6  A    between atoms: N_10  and  C_5 
REMARK    7  A    between atoms: O_13  and  C_9 
REMARK    8  A    between atoms: C_14  and  N_10 
REMARK    9  A    between atoms: N_12  and  C_16 
REMARK   10  A    between atoms: C_16  and  C_14 
ROOT
ATOM      1  C   UNK d   1     -47.607  14.096  22.245  0.00  0.00     0.084 C 
ENDROOT
BRANCH   1   2
ATOM      2  C   UNK d   1     -48.284  14.422  22.568  0.00  0.00     0.259 C 
ATOM      3  N   UNK d   1     -49.019  14.082  22.416  0.00  0.00    -0.320 N 
ATOM      4  H   UNK d   1     -49.066  13.407  21.933  0.00  0.00     0.169 HD
ATOM      5  O   UNK d   1     -48.229  15.098  23.051  0.00  0.00    -0.267 OA
BRANCH   3   6
ATOM      6  C   UNK d   1     -49.697  14.404  22.737  0.00  0.00     0.082 A 
ATOM      7  C   UNK d   1     -50.266  13.898  23.081  0.00  0.00     0.110 A 
ATOM      8  C   UNK d   1     -50.959  14.220  23.410  0.00  0.00     0.026 A 
ATOM      9  C   UNK d   1     -51.064  15.042  23.384  0.00  0.00     0.002 A 
ATOM     10  C   UNK d   1     -50.495  15.541  23.040  0.00  0.00     0.002 A 
ATOM     11  C   UNK d   1     -49.814  15.223  22.718  0.00  0.00     0.019 A 
BRANCH   7  12
ATOM     12  O   UNK d   1     -50.140  13.085  23.095  0.00  0.00    -0.327 OA
ATOM     13  C   UNK d   1     -50.766  12.577  23.267  0.00  0.00     0.181 C 
ENDBRANCH   7  12
ENDBRANCH   3   6
ENDBRANCH   1   2
BRANCH   1  14
ATOM     14  C   UNK d   1     -46.951  13.962  22.720  0.00  0.00     0.124 C 
BRANCH  14  15
ATOM     15  C   UNK d   1     -46.270  14.429  22.628  0.00  0.00     0.194 C 
ATOM     16  O   UNK d   1     -45.607  14.131  22.243  0.00  0.00    -0.645 OA
BRANCH  15  17
ATOM     17  O   UNK d   1     -46.249  15.202  22.925  0.00  0.00    -0.772 OA
ATOM     18  H   UNK d   1     -46.173  15.320  23.733  0.00  0.00     0.167 HD
ENDBRANCH  15  17
ENDBRANCH  14  15
BRANCH  14  19
ATOM     19  N   UNK d   1     -46.974  13.373  23.276  0.00  0.00    -0.346 N 
ATOM     20  H   UNK d   1     -47.270  13.532  24.030  0.00  0.00     0.166 HD
BRANCH  19  21
ATOM     21  C   UNK d   0     -46.704  12.615  23.099  0.00  0.00     0.092 C 
BRANCH  21  22
ATOM     22  C   UNK d   0     -46.523  12.081  23.697  0.00  0.00     0.099 C 
BRANCH  22  23
ATOM     23  N   UNK d   0     -46.557  11.272  23.544  0.00  0.00    -0.299 N 
ATOM     24  C   UNK d   0     -45.866  10.825  23.538  0.00  0.00     0.100 C 
ATOM     25  C   UNK d   0     -47.281  10.905  23.398  0.00  0.00     0.100 C 
ENDBRANCH  22  23
ENDBRANCH  21  22
ENDBRANCH  19  21
ENDBRANCH  14  19
ENDBRANCH   1  14
TORSDOF 10
ENDMDL
MODEL 4
REMARK VINA RESULT:      -4.6      7.977      9.474
REMARK  10 active torsions:
REMARK  status: ('A' for Active; 'I' for Inactive)
REMARK    1  A    between atoms: C_2  and  C_1 
REMARK       I    between atoms: N_3  and  C_1 
REMARK    2  A    between atoms: C_5  and  C_2 
REMARK    3  A    between atoms: C_6  and  N_3 
REMARK    4  A    between atoms: C_4  and  C_5 
REMARK    5  A    between atoms: O_11  and  C_4 
REMARK    6  A    between atoms: N_10  and  C_5 
REMARK    7  A    between atoms: O_13  and  C_9 
REMARK    8  A    between atoms: C_14  and  N_10 
REMARK    9  A    between atoms: N_12  and  C_16 
REMARK   10  A    between atoms: C_16  and  C_14 
ROOT
ATOM      1  C   UNK d   1     -40.644  14.332  19.912  0.00  0.00     0.084 C 
ENDROOT
BRANCH   1   2
ATOM      2  C   UNK d   1     -40.362  14.579  19.185  0.00  0.00     0.259 C 
ATOM      3  N   UNK d   1     -40.235  14.031  18.583  0.00  0.00    -0.320 N 
ATOM      4  H   UNK d   1     -40.396  13.227  18.721  0.00  0.00     0.169 HD
ATOM      5  O   UNK d   1     -40.203  15.385  19.055  0.00  0.00    -0.267 OA
BRANCH   3   6
ATOM      6  C   UNK d   1     -39.953  14.274  17.857  0.00  0.00     0.082 A 
ATOM      7  C   UNK d   1     -39.348  13.833  17.485  0.00  0.00     0.110 A 
ATOM      8  C   UNK d   1     -39.057  14.076  16.745  0.00  0.00     0.026 A 
ATOM      9  C   UNK d   1     -39.381  14.754  16.395  0.00  0.00     0.002 A 
ATOM     10  C   UNK d   1     -39.983  15.188  16.768  0.00  0.00     0.002 A 
ATOM     11  C   UNK d   1     -40.268  14.949  17.496  0.00  0.00     0.019 A 
BRANCH   7  12
ATOM     12  O   UNK d   1     -39.042  13.163  17.852  0.00  0.00    -0.327 OA
ATOM     13  C   UNK d   1     -38.436  12.740  17.488  0.00  0.00     0.181 C 
ENDBRANCH   7  12
ENDBRANCH   3   6
ENDBRANCH   1   2
BRANCH   1  14
ATOM     14  C   UNK d   1     -40.431  14.738  20.593  0.00  0.00     0.124 C 
BRANCH  14  15
ATOM     15  C   UNK d   1     -40.995  15.197  20.995  0.00  0.00     0.194 C 
ATOM     16  O   UNK d   1     -41.772  14.941  21.064  0.00  0.00    -0.645 OA
BRANCH  15  17
ATOM     17  O   UNK d   1     -40.779  15.922  21.334  0.00  0.00    -0.772 OA
ATOM     18  H   UNK d   1     -41.355  16.390  21.682  0.00  0.00     0.167 HD
ENDBRANCH  15  17
ENDBRANCH  14  15
BRANCH  14  19
ATOM     19  N   UNK d   1     -39.670  14.687  20.868  0.00  0.00    -0.346 N 
ATOM     20  H   UNK d   1     -39.105  15.230  20.613  0.00  0.00     0.166 HD
BRANCH  19  21
ATOM     21  C   UNK d   0     -39.453  14.097  21.402  0.00  0.00     0.092 C 
BRANCH  21  22
ATOM     22  C   UNK d   0     -38.719  14.110  21.769  0.00  0.00     0.099 C 
BRANCH  22  23
ATOM     23  N   UNK d   0     -38.453  13.442  22.171  0.00  0.00    -0.299 N 
ATOM     24  C   UNK d   0     -37.950  12.909  21.796  0.00  0.00     0.100 C 
ATOM     25  C   UNK d   0     -38.688  13.302  22.950  0.00  0.00     0.100 C 
ENDBRANCH  22  23
ENDBRANCH  21  22
ENDBRANCH  19  21
ENDBRANCH  14  19
ENDBRANCH   1  14
TORSDOF 10
ENDMDL
MODEL 5
REMARK VINA RESULT:      -4.5      1.921      2.553
REMARK  10 active torsions:
REMARK  status: ('A' for Active; 'I' for Inactive)
REMARK    1  A    between atoms: C_2  and  C_1 
REMARK       I    between atoms: N_3  and  C_1 
REMARK    2  A    between atoms: C_5  and  C_2 
REMARK    3  A    between atoms: C_6  and  N_3 
REMARK    4  A    between atoms: C_4  and  C_5 
REMARK    5  A    between atoms: O_11  and  C_4 
REMARK    6  A    between atoms: N_10  and  C_5 
REMARK    7  A    between atoms: O_13  and  C_9 
REMARK    8  A    between atoms: C_14  and  N_10 
REMARK    9  A    between atoms: N_12  and  C_16 
REMARK   10  A    between atoms: C_16  and  C_14 
ROOT
ATOM      1  C   UNK d   1     -48.769  12.376  22.414  0.00  0.00     0.084 C 
ENDROOT
BRANCH   1   2
ATOM      2  C   UNK d   1     -49.293  12.882  22.785  0.00  0.00     0.259 C 
ATOM      3  N   UNK d   1     -49.393  13.650  22.505  0.00  0.00    -0.320 N 
ATOM      4  H   UNK d   1     -48.959  13.905  21.843  0.00  0.00     0.169 HD
ATOM      5  O   UNK d   1     -49.724  12.620  23.447  0.00  0.00    -0.267 OA
BRANCH   3   6
ATOM      6  C   UNK d   1     -49.915  14.159  22.873  0.00  0.00     0.082 A 
ATOM      7  C   UNK d   1     -49.814  14.984  22.783  0.00  0.00     0.110 A 
ATOM      8  C   UNK d   1     -50.342  15.507  23.155  0.00  0.00     0.026 A 
ATOM      9  C   UNK d   1     -50.959  15.190  23.609  0.00  0.00     0.002 A 
ATOM     10  C   UNK d   1     -51.055  14.369  23.696  0.00  0.00     0.002 A 
ATOM     11  C   UNK d   1     -50.535  13.856  23.330  0.00  0.00     0.019 A 
BRANCH   7  12
ATOM     12  O   UNK d   1     -49.194  15.275  22.327  0.00  0.00    -0.327 OA
ATOM     13  C   UNK d   1     -48.757  15.920  22.596  0.00  0.00     0.181 C 
ENDBRANCH   7  12
ENDBRANCH   3   6
ENDBRANCH   1   2
BRANCH   1  14
ATOM     14  C   UNK d   1     -48.171  12.017  22.846  0.00  0.00     0.124 C 
BRANCH  14  15
ATOM     15  C   UNK d   1     -48.175  11.193  22.955  0.00  0.00     0.194 C 
ATOM     16  O   UNK d   1     -48.038  10.868  23.697  0.00  0.00    -0.645 OA
BRANCH  15  17
ATOM     17  O   UNK d   1     -48.317  10.687  22.314  0.00  0.00    -0.772 OA
ATOM     18  H   UNK d   1     -47.723  10.178  22.066  0.00  0.00     0.167 HD
ENDBRANCH  15  17
ENDBRANCH  14  15
BRANCH  14  19
ATOM     19  N   UNK d   1     -47.580  12.471  23.165  0.00  0.00    -0.346 N 
ATOM     20  H   UNK d   1     -47.728  12.925  23.837  0.00  0.00     0.166 HD
BRANCH  19  21
ATOM     21  C   UNK d   0     -46.829  12.484  22.826  0.00  0.00     0.092 C 
BRANCH  21  22
ATOM     22  C   UNK d   0     -46.233  12.955  23.139  0.00  0.00     0.099 C 
BRANCH  22  23
ATOM     23  N   UNK d   0     -45.717  13.349  22.632  0.00  0.00    -0.299 N 
ATOM     24  C   UNK d   0     -45.711  14.172  22.608  0.00  0.00     0.100 C 
ATOM     25  C   UNK d   0     -45.203  12.924  22.145  0.00  0.00     0.100 C 
ENDBRANCH  22  23
ENDBRANCH  21  22
ENDBRANCH  19  21
ENDBRANCH  14  19
ENDBRANCH   1  14
TORSDOF 10
ENDMDL
MODEL 6
REMARK VINA RESULT:      -4.4      1.469      2.037
REMARK  10 active torsions:
REMARK  status: ('A' for Active; 'I' for Inactive)
REMARK    1  A    between atoms: C_2  and  C_1 
REMARK       I    between atoms: N_3  and  C_1 
REMARK    2  A    between atoms: C_5  and  C_2 
REMARK    3  A    between atoms: C_6  and  N_3 
REMARK    4  A    between atoms: C_4  and  C_5 
REMARK    5  A    between atoms: O_11  and  C_4 
REMARK    6  A    between atoms: N_10  and  C_5 
REMARK    7  A    between atoms: O_13  and  C_9 
REMARK    8  A    between atoms: C_14  and  N_10 
REMARK    9  A    between atoms: N_12  and  C_16 
REMARK   10  A    between atoms: C_16  and  C_14 
ROOT
ATOM      1  C   UNK d   1     -46.927  12.870  22.495  0.00  0.00     0.084 C 
ENDROOT
BRANCH   1   2
ATOM      2  C   UNK d   1     -47.652  12.957  22.128  0.00  0.00     0.259 C 
ATOM      3  N   UNK d   1     -48.339  12.699  22.503  0.00  0.00    -0.320 N 
ATOM      4  H   UNK d   1     -48.287  12.350  23.257  0.00  0.00     0.169 HD
ATOM      5  O   UNK d   1     -47.696  13.306  21.374  0.00  0.00    -0.267 OA
BRANCH   3   6
ATOM      6  C   UNK d   1     -49.065  12.783  22.140  0.00  0.00     0.082 A 
ATOM      7  C   UNK d   1     -49.761  12.673  22.589  0.00  0.00     0.110 A 
ATOM      8  C   UNK d   1     -50.504  12.758  22.223  0.00  0.00     0.026 A 
ATOM      9  C   UNK d   1     -50.529  12.951  21.418  0.00  0.00     0.002 A 
ATOM     10  C   UNK d   1     -49.834  13.059  20.976  0.00  0.00     0.002 A 
ATOM     11  C   UNK d   1     -49.104  12.975  21.335  0.00  0.00     0.019 A 
BRANCH   7  12
ATOM     12  O   UNK d   1     -49.711  12.483  23.387  0.00  0.00    -0.327 OA
ATOM     13  C   UNK d   1     -50.185  11.883  23.694  0.00  0.00     0.181 C 
ENDBRANCH   7  12
ENDBRANCH   3   6
ENDBRANCH   1   2
BRANCH   1  14
ATOM     14  C   UNK d   1     -46.351  13.448  22.404  0.00  0.00     0.124 C 
BRANCH  14  15
ATOM     15  C   UNK d   1     -46.357  14.121  22.892  0.00  0.00     0.194 C 
ATOM     16  O   UNK d   1     -46.209  14.055  23.698  0.00  0.00    -0.645 OA
BRANCH  15  17
ATOM     17  O   UNK d   1     -46.513  14.869  22.572  0.00  0.00    -0.772 OA
ATOM     18  H   UNK d   1     -47.288  15.081  22.407  0.00  0.00     0.167 HD
ENDBRANCH  15  17
ENDBRANCH  14  15
BRANCH  14  19
ATOM     19  N   UNK d   1     -45.779  13.357  21.837  0.00  0.00    -0.346 N 
ATOM     20  H   UNK d   1     -45.918  13.623  21.069  0.00  0.00     0.166 HD
BRANCH  19  21
ATOM     21  C   UNK d   0     -45.058  13.002  22.018  0.00  0.00     0.092 C 
BRANCH  21  22
ATOM     22  C   UNK d   0     -44.421  13.052  21.502  0.00  0.00     0.099 C 
BRANCH  22  23
ATOM     23  N   UNK d   0     -43.709  12.686  21.697  0.00  0.00    -0.299 N 
ATOM     24  C   UNK d   0     -42.997  13.008  21.439  0.00  0.00     0.100 C 
ATOM     25  C   UNK d   0     -43.705  11.996  22.150  0.00  0.00     0.100 C 
ENDBRANCH  22  23
ENDBRANCH  21  22
ENDBRANCH  19  21
ENDBRANCH  14  19
ENDBRANCH   1  14
TORSDOF 10
ENDMDL
MODEL 7
REMARK VINA RESULT:      -4.4      8.746      9.846
REMARK  10 active torsions:
REMARK  status: ('A' for Active; 'I' for Inactive)
REMARK    1  A    between atoms: C_2  and  C_1 
REMARK       I    between atoms: N_3  and  C_1 
REMARK    2  A    between atoms: C_5  and  C_2 
REMARK    3  A    between atoms: C_6  and  N_3 
REMARK    4  A    between atoms: C_4  and  C_5 
REMARK    5  A    between atoms: O_11  and  C_4 
REMARK    6  A    between atoms: N_10  and  C_5 
REMARK    7  A    between atoms: O_13  and  C_9 
REMARK    8  A    between atoms: C_14  and  N_10 
REMARK    9  A    between atoms: N_12  and  C_16 
REMARK   10  A    between atoms: C_16  and  C_14 
ROOT
ATOM      1  C   UNK d   1     -40.392  14.460  18.892  0.00  0.00     0.084 C 
ENDROOT
BRANCH   1   2
ATOM      2  C   UNK d   1     -40.230  14.870  19.581  0.00  0.00     0.259 C 
ATOM      3  N   UNK d   1     -39.979  14.464  20.252  0.00  0.00    -0.320 N 
ATOM      4  H   UNK d   1     -39.892  13.637  20.223  0.00  0.00     0.169 HD
ATOM      5  O   UNK d   1     -40.319  15.697  19.602  0.00  0.00    -0.267 OA
BRANCH   3   6
ATOM      6  C   UNK d   1     -39.815  14.869  20.942  0.00  0.00     0.082 A 
ATOM      7  C   UNK d   1     -39.178  14.618  21.422  0.00  0.00     0.110 A 
ATOM      8  C   UNK d   1     -39.007  15.027  22.126  0.00  0.00     0.026 A 
ATOM      9  C   UNK d   1     -39.479  15.676  22.331  0.00  0.00     0.002 A 
ATOM     10  C   UNK d   1     -40.111  15.922  21.851  0.00  0.00     0.002 A 
ATOM     11  C   UNK d   1     -40.279  15.520  21.159  0.00  0.00     0.019 A 
BRANCH   7  12
ATOM     12  O   UNK d   1     -38.723  13.971  21.197  0.00  0.00    -0.327 OA
ATOM     13  C   UNK d   1     -38.339  13.522  21.772  0.00  0.00     0.181 C 
ENDBRANCH   7  12
ENDBRANCH   3   6
ENDBRANCH   1   2
BRANCH   1  14
ATOM     14  C   UNK d   1     -40.088  14.726  18.177  0.00  0.00     0.124 C 
BRANCH  14  15
ATOM     15  C   UNK d   1     -40.582  15.115  17.634  0.00  0.00     0.194 C 
ATOM     16  O   UNK d   1     -40.380  15.856  17.341  0.00  0.00    -0.645 OA
BRANCH  15  17
ATOM     17  O   UNK d   1     -41.286  14.761  17.380  0.00  0.00    -0.772 OA
ATOM     18  H   UNK d   1     -41.992  14.962  17.747  0.00  0.00     0.167 HD
ENDBRANCH  15  17
ENDBRANCH  14  15
BRANCH  14  19
ATOM     19  N   UNK d   1     -39.304  14.605  18.006  0.00  0.00    -0.346 N 
ATOM     20  H   UNK d   1     -38.733  15.106  18.325  0.00  0.00     0.166 HD
BRANCH  19  21
ATOM     21  C   UNK d   0     -39.070  13.984  17.517  0.00  0.00     0.092 C 
BRANCH  21  22
ATOM     22  C   UNK d   0     -38.276  13.851  17.354  0.00  0.00     0.099 C 
BRANCH  22  23
ATOM     23  N   UNK d   0     -38.055  13.184  16.925  0.00  0.00    -0.299 N 
ATOM     24  C   UNK d   0     -37.945  13.234  16.111  0.00  0.00     0.100 C 
ATOM     25  C   UNK d   0     -37.940  12.461  17.308  0.00  0.00     0.100 C 
ENDBRANCH  22  23
ENDBRANCH  21  22
ENDBRANCH  19  21
ENDBRANCH  14  19
ENDBRANCH   1  14
TORSDOF 10
ENDMDL
MODEL 8
REMARK VINA RESULT:      -4.2      1.491      4.531
REMARK  10 active torsions:
REMARK  status: ('A' for Active; 'I' for Inactive)
REMARK    1  A    between atoms: C_2  and  C_1 
REMARK       I    between atoms: N_3  and  C_1 
REMARK    2  A    between atoms: C_5  and  C_2 
REMARK    3  A    between atoms: C_6  and  N_3 
REMARK    4  A    between atoms: C_4  and  C_5 
REMARK    5  A    between atoms: O_11  and  C_4 
REMARK    6  A    between atoms: N_10  and  C_5 
REMARK    7  A    between atoms: O_13  and  C_9 
REMARK    8  A    between atoms: C_14  and  N_10 
REMARK    9  A    between atoms: N_12  and  C_16 
REMARK   10  A    between atoms: C_16  and  C_14 
ROOT
ATOM      1  C   UNK d   1     -47.606  14.012  23.236  0.00  0.00     0.084 C 
ENDROOT
BRANCH   1   2
ATOM      2  C   UNK d   1     -46.956  13.725  22.831  0.00  0.00     0.259 C 
ATOM      3  N   UNK d   1     -46.396  13.266  23.222  0.00  0.00    -0.320 N 
ATOM      4  H   UNK d   1     -46.496  13.097  24.031  0.00  0.00     0.169 HD
ATOM      5  O   UNK d   1     -46.863  13.897  22.022  0.00  0.00    -0.267 OA
BRANCH   3   6
ATOM      6  C   UNK d   1     -45.746  12.977  22.822  0.00  0.00     0.082 A 
ATOM      7  C   UNK d   1     -45.445  12.223  23.021  0.00  0.00     0.110 A 
ATOM      8  C   UNK d   1     -44.782  11.923  22.616  0.00  0.00     0.026 A 
ATOM      9  C   UNK d   1     -44.439  12.388  22.022  0.00  0.00     0.002 A 
ATOM     10  C   UNK d   1     -44.742  13.137  21.827  0.00  0.00     0.002 A 
ATOM     11  C   UNK d   1     -45.393  13.430  22.226  0.00  0.00     0.019 A 
BRANCH   7  12
ATOM     12  O   UNK d   1     -45.803  11.780  23.614  0.00  0.00    -0.327 OA
ATOM     13  C   UNK d   1     -45.620  10.980  23.694  0.00  0.00     0.181 C 
ENDBRANCH   7  12
ENDBRANCH   3   6
ENDBRANCH   1   2
BRANCH   1  14
ATOM     14  C   UNK d   1     -48.290  14.207  22.826  0.00  0.00     0.124 C 
BRANCH  14  15
ATOM     15  C   UNK d   1     -48.465  15.003  22.666  0.00  0.00     0.194 C 
ATOM     16  O   UNK d   1     -48.926  15.207  22.016  0.00  0.00    -0.645 OA
BRANCH  15  17
ATOM     17  O   UNK d   1     -48.178  15.602  23.159  0.00  0.00    -0.772 OA
ATOM     18  H   UNK d   1     -47.396  15.841  23.088  0.00  0.00     0.167 HD
ENDBRANCH  15  17
ENDBRANCH  14  15
BRANCH  14  19
ATOM     19  N   UNK d   1     -48.791  13.618  22.581  0.00  0.00    -0.346 N 
ATOM     20  H   UNK d   1     -48.890  13.474  21.775  0.00  0.00     0.166 HD
BRANCH  19  21
ATOM     21  C   UNK d   0     -49.204  13.160  23.128  0.00  0.00     0.092 C 
BRANCH  21  22
ATOM     22  C   UNK d   0     -49.950  12.866  22.954  0.00  0.00     0.099 C 
BRANCH  22  23
ATOM     23  N   UNK d   0     -50.244  12.224  23.379  0.00  0.00    -0.299 N 
ATOM     24  C   UNK d   0     -51.055  12.138  23.487  0.00  0.00     0.100 C 
ATOM     25  C   UNK d   0     -49.729  11.663  23.698  0.00  0.00     0.100 C 
ENDBRANCH  22  23
ENDBRANCH  21  22
ENDBRANCH  19  21
ENDBRANCH  14  19
ENDBRANCH   1  14
TORSDOF 10
ENDMDL
MODEL 9
REMARK VINA RESULT:      -3.8      8.059      9.867
REMARK  10 active torsions:
REMARK  status: ('A' for Active; 'I' for Inactive)
REMARK    1  A    between atoms: C_2  and  C_1 
REMARK       I    between atoms: N_3  and  C_1 
REMARK    2  A    between atoms: C_5  and  C_2 
REMARK    3  A    between atoms: C_6  and  N_3 
REMARK    4  A    between atoms: C_4  and  C_5 
REMARK    5  A    between atoms: O_11  and  C_4 
REMARK    6  A    between atoms: N_10  and  C_5 
REMARK    7  A    between atoms: O_13  and  C_9 
REMARK    8  A    between atoms: C_14  and  N_10 
REMARK    9  A    between atoms: N_12  and  C_16 
REMARK   10  A    between atoms: C_16  and  C_14 
ROOT
ATOM      1  C   UNK d   1     -39.691  13.795  18.685  0.00  0.00     0.084 C 
ENDROOT
BRANCH   1   2
ATOM      2  C   UNK d   1     -39.445  14.110  19.398  0.00  0.00     0.259 C 
ATOM      3  N   UNK d   1     -39.999  14.312  19.973  0.00  0.00    -0.320 N 
ATOM      4  H   UNK d   1     -40.808  14.192  19.822  0.00  0.00     0.169 HD
ATOM      5  O   UNK d   1     -38.634  14.227  19.541  0.00  0.00    -0.267 OA
BRANCH   3   6
ATOM      6  C   UNK d   1     -39.758  14.627  20.686  0.00  0.00     0.082 A 
ATOM      7  C   UNK d   1     -40.222  15.220  21.049  0.00  0.00     0.110 A 
ATOM      8  C   UNK d   1     -39.981  15.545  21.776  0.00  0.00     0.026 A 
ATOM      9  C   UNK d   1     -39.281  15.266  22.121  0.00  0.00     0.002 A 
ATOM     10  C   UNK d   1     -38.823  14.676  21.757  0.00  0.00     0.002 A 
ATOM     11  C   UNK d   1     -39.060  14.358  21.042  0.00  0.00     0.019 A 
BRANCH   7  12
ATOM     12  O   UNK d   1     -40.914  15.480  20.687  0.00  0.00    -0.327 OA
ATOM     13  C   UNK d   1     -41.459  15.922  21.119  0.00  0.00     0.181 C 
ENDBRANCH   7  12
ENDBRANCH   3   6
ENDBRANCH   1   2
BRANCH   1  14
ATOM     14  C   UNK d   1     -39.349  14.052  17.984  0.00  0.00     0.124 C 
BRANCH  14  15
ATOM     15  C   UNK d   1     -38.844  13.548  17.558  0.00  0.00     0.194 C 
ATOM     16  O   UNK d   1     -39.126  12.845  17.239  0.00  0.00    -0.645 OA
BRANCH  15  17
ATOM     17  O   UNK d   1     -38.048  13.748  17.450  0.00  0.00    -0.772 OA
ATOM     18  H   UNK d   1     -37.470  13.181  17.580  0.00  0.00     0.167 HD
ENDBRANCH  15  17
ENDBRANCH  14  15
BRANCH  14  19
ATOM     19  N   UNK d   1     -39.508  14.800  17.713  0.00  0.00    -0.346 N 
ATOM     20  H   UNK d   1     -39.013  15.425  17.921  0.00  0.00     0.166 HD
BRANCH  19  21
ATOM     21  C   UNK d   0     -40.160  14.943  17.229  0.00  0.00     0.092 C 
BRANCH  21  22
ATOM     22  C   UNK d   0     -40.385  15.710  17.041  0.00  0.00     0.099 C 
BRANCH  22  23
ATOM     23  N   UNK d   0     -41.080  15.839  16.619  0.00  0.00    -0.299 N 
ATOM     24  C   UNK d   0     -41.796  15.922  17.017  0.00  0.00     0.100 C 
ATOM     25  C   UNK d   0     -41.066  15.885  15.794  0.00  0.00     0.100 C 
ENDBRANCH  22  23
ENDBRANCH  21  22
ENDBRANCH  19  21
ENDBRANCH  14  19
ENDBRANCH   1  14
TORSDOF 10
ENDMDL
