MODEL 1
REMARK VINA RESULT:      -6.3      0.000      0.000
REMARK  6 active torsions:
REMARK  status: ('A' for Active; 'I' for Inactive)
REMARK    1  A    between atoms: S_10  and  C_5 
REMARK    2  A    between atoms: C_11  and  N_8 
REMARK    3  A    between atoms: C_15  and  S_10 
REMARK    4  A    between atoms: C_16  and  C_11 
REMARK    5  A    between atoms: C_17  and  C_15 
REMARK    6  A    between atoms: C_23  and  C_16 
ROOT
ATOM      1  C   UNL d   1     -45.358  11.299  23.188  0.00  0.00     0.174 A 
ATOM      2  C   UNL d   1     -45.235  12.029  22.816  0.00  0.00     0.159 A 
ATOM      3  N   UNL d   1     -46.157  11.232  23.352  0.00  0.00    -0.203 NA
ATOM      4  N   UNL d   1     -44.713  10.802  23.322  0.00  0.00    -0.239 N 
ATOM      5  C   UNL d   1     -46.519  11.923  23.079  0.00  0.00     0.181 A 
ATOM      6  C   UNL d   1     -43.933  11.011  23.093  0.00  0.00     0.358 A 
ATOM      7  N   UNL d   1     -43.810  11.741  22.721  0.00  0.00    -0.152 NA
ATOM      8  N   UNL d   1     -46.006  12.478  22.726  0.00  0.00    -0.279 N 
ATOM      9  C   UNL d   1     -44.468  12.263  22.577  0.00  0.00     0.302 A 
ATOM     10  O   UNL d   1     -43.276  10.511  23.226  0.00  0.00    -0.244 OA
ATOM     11  O   UNL d   1     -44.345  12.993  22.205  0.00  0.00    -0.263 OA
ATOM     12  C   UNL d   1     -44.836  10.072  23.694  0.00  0.00     0.105 C 
ENDROOT
BRANCH   5  13
ATOM     13  S   UNL d   1     -47.328  11.892  23.226  0.00  0.00    -0.049 SA
BRANCH  13  14
ATOM     14  C   UNL d   1     -47.932  11.346  23.074  0.00  0.00     0.038 C 
BRANCH  14  15
ATOM     15  C   UNL d   1     -48.715  11.600  23.020  0.00  0.00     0.007 A 
ATOM     16  C   UNL d   1     -49.028  11.795  22.284  0.00  0.00     0.001 A 
ATOM     17  C   UNL d   1     -49.811  12.049  22.230  0.00  0.00     0.000 A 
ATOM     18  C   UNL d   1     -50.278  12.106  22.911  0.00  0.00     0.000 A 
ATOM     19  C   UNL d   1     -49.956  11.908  23.648  0.00  0.00     0.000 A 
ATOM     20  C   UNL d   1     -51.064  12.361  22.856  0.00  0.00     0.000 C 
ATOM     21  C   UNL d   1     -49.172  11.654  23.698  0.00  0.00     0.001 A 
ENDBRANCH  14  15
ENDBRANCH  13  14
ENDBRANCH   5  13
BRANCH   8  22
ATOM     22  C   UNL d   1     -46.297  13.190  22.431  0.00  0.00     0.082 C 
BRANCH  22  23
ATOM     23  C   UNL d   1     -46.272  13.874  22.892  0.00  0.00     0.019 C 
BRANCH  23  24
ATOM     24  C   UNL d   1     -46.579  14.583  22.604  0.00  0.00     0.002 C 
ATOM     25  C   UNL d   1     -46.096  15.114  22.197  0.00  0.00     0.000 C 
ATOM     26  C   UNL d   1     -47.376  14.770  22.721  0.00  0.00     0.000 C 
ENDBRANCH  23  24
ENDBRANCH  22  23
ENDBRANCH   8  22
TORSDOF 6
ENDMDL
MODEL 2
REMARK VINA RESULT:      -5.3      7.882      9.336
REMARK  6 active torsions:
REMARK  status: ('A' for Active; 'I' for Inactive)
REMARK    1  A    between atoms: S_10  and  C_5 
REMARK    2  A    between atoms: C_11  and  N_8 
REMARK    3  A    between atoms: C_15  and  S_10 
REMARK    4  A    between atoms: C_16  and  C_11 
REMARK    5  A    between atoms: C_17  and  C_15 
REMARK    6  A    between atoms: C_23  and  C_16 
ROOT
ATOM      1  C   UNL d   1     -40.818  15.150  18.058  0.00  0.00     0.174 A 
ATOM      2  C   UNL d   1     -40.234  14.764  17.615  0.00  0.00     0.159 A 
ATOM      3  N   UNL d   1     -40.633  15.060  18.850  0.00  0.00    -0.203 NA
ATOM      4  N   UNL d   1     -41.436  15.530  17.665  0.00  0.00    -0.239 N 
ATOM      5  C   UNL d   1     -39.936  14.617  18.887  0.00  0.00     0.181 A 
ATOM      6  C   UNL d   1     -41.495  15.539  16.827  0.00  0.00     0.358 A 
ATOM      7  N   UNL d   1     -40.910  15.152  16.384  0.00  0.00    -0.152 NA
ATOM      8  N   UNL d   1     -39.618  14.390  18.149  0.00  0.00    -0.279 N 
ATOM      9  C   UNL d   1     -40.267  14.757  16.778  0.00  0.00     0.302 A 
ATOM     10  O   UNL d   1     -42.118  15.922  16.423  0.00  0.00    -0.244 OA
ATOM     11  O   UNL d   1     -39.683  14.370  16.335  0.00  0.00    -0.263 OA
ATOM     12  C   UNL d   1     -42.020  15.917  18.108  0.00  0.00     0.105 C 
ENDROOT
BRANCH   5  13
ATOM     13  S   UNL d   1     -39.717  14.505  19.672  0.00  0.00    -0.049 SA
BRANCH  13  14
ATOM     14  C   UNL d   1     -39.770  14.954  20.366  0.00  0.00     0.038 C 
BRANCH  14  15
ATOM     15  C   UNL d   1     -39.439  14.673  21.067  0.00  0.00     0.007 A 
ATOM     16  C   UNL d   1     -38.679  14.908  21.280  0.00  0.00     0.001 A 
ATOM     17  C   UNL d   1     -38.347  14.627  21.981  0.00  0.00     0.000 A 
ATOM     18  C   UNL d   1     -38.776  14.112  22.466  0.00  0.00     0.000 A 
ATOM     19  C   UNL d   1     -39.540  13.879  22.246  0.00  0.00     0.000 A 
ATOM     20  C   UNL d   1     -38.443  13.829  23.170  0.00  0.00     0.000 C 
ATOM     21  C   UNL d   1     -39.868  14.163  21.544  0.00  0.00     0.001 A 
ENDBRANCH  14  15
ENDBRANCH  13  14
ENDBRANCH   5  13
BRANCH   8  22
ATOM     22  C   UNL d   1     -38.924  13.948  18.109  0.00  0.00     0.082 C 
BRANCH  22  23
ATOM     23  C   UNL d   1     -38.957  13.124  18.071  0.00  0.00     0.019 C 
BRANCH  23  24
ATOM     24  C   UNL d   1     -38.288  12.689  17.867  0.00  0.00     0.002 C 
ATOM     25  C   UNL d   1     -37.953  12.159  18.404  0.00  0.00     0.000 C 
ATOM     26  C   UNL d   1     -37.943  12.778  17.120  0.00  0.00     0.000 C 
ENDBRANCH  23  24
ENDBRANCH  22  23
ENDBRANCH   8  22
TORSDOF 6
ENDMDL
MODEL 3
REMARK VINA RESULT:      -4.5      2.193      4.389
REMARK  6 active torsions:
REMARK  status: ('A' for Active; 'I' for Inactive)
REMARK    1  A    between atoms: S_10  and  C_5 
REMARK    2  A    between atoms: C_11  and  N_8 
REMARK    3  A    between atoms: C_15  and  S_10 
REMARK    4  A    between atoms: C_16  and  C_11 
REMARK    5  A    between atoms: C_17  and  C_15 
REMARK    6  A    between atoms: C_23  and  C_16 
ROOT
ATOM      1  C   UNL d   1     -48.839  12.034  23.541  0.00  0.00     0.174 A 
ATOM      2  C   UNL d   1     -48.660  12.834  23.420  0.00  0.00     0.159 A 
ATOM      3  N   UNL d   1     -48.133  11.626  23.610  0.00  0.00    -0.203 NA
ATOM      4  N   UNL d   1     -49.629  11.799  23.569  0.00  0.00    -0.239 N 
ATOM      5  C   UNL d   1     -47.525  12.180  23.531  0.00  0.00     0.181 A 
ATOM      6  C   UNL d   1     -50.262  12.344  23.480  0.00  0.00     0.358 A 
ATOM      7  N   UNL d   1     -50.082  13.144  23.360  0.00  0.00    -0.152 NA
ATOM      8  N   UNL d   1     -47.773  12.967  23.409  0.00  0.00    -0.279 N 
ATOM      9  C   UNL d   1     -49.270  13.400  23.328  0.00  0.00     0.302 A 
ATOM     10  O   UNL d   1     -51.064  12.112  23.508  0.00  0.00    -0.244 OA
ATOM     11  O   UNL d   1     -49.091  14.200  23.208  0.00  0.00    -0.263 OA
ATOM     12  C   UNL d   1     -49.809  10.999  23.690  0.00  0.00     0.105 C 
ENDROOT
BRANCH   5  13
ATOM     13  S   UNL d   1     -46.795  11.805  23.595  0.00  0.00    -0.049 SA
BRANCH  13  14
ATOM     14  C   UNL d   1     -46.542  11.018  23.650  0.00  0.00     0.038 C 
BRANCH  14  15
ATOM     15  C   UNL d   1     -45.741  10.835  23.577  0.00  0.00     0.007 A 
ATOM     16  C   UNL d   1     -45.205  11.429  23.383  0.00  0.00     0.001 A 
ATOM     17  C   UNL d   1     -44.404  11.245  23.310  0.00  0.00     0.000 A 
ATOM     18  C   UNL d   1     -44.143  10.469  23.431  0.00  0.00     0.000 A 
ATOM     19  C   UNL d   1     -44.688   9.877  23.626  0.00  0.00     0.000 A 
ATOM     20  C   UNL d   1     -43.338  10.285  23.357  0.00  0.00     0.000 C 
ATOM     21  C   UNL d   1     -45.488  10.065  23.698  0.00  0.00     0.001 A 
ENDBRANCH  14  15
ENDBRANCH  13  14
ENDBRANCH   5  13
BRANCH   8  22
ATOM     22  C   UNL d   1     -47.221  13.573  23.322  0.00  0.00     0.082 C 
BRANCH  22  23
ATOM     23  C   UNL d   1     -47.048  13.875  22.573  0.00  0.00     0.019 C 
BRANCH  23  24
ATOM     24  C   UNL d   1     -46.545  14.522  22.490  0.00  0.00     0.002 C 
ATOM     25  C   UNL d   1     -46.853  15.282  22.401  0.00  0.00     0.000 C 
ATOM     26  C   UNL d   1     -45.725  14.416  22.496  0.00  0.00     0.000 C 
ENDBRANCH  23  24
ENDBRANCH  22  23
ENDBRANCH   8  22
TORSDOF 6
ENDMDL
MODEL 4
REMARK VINA RESULT:      -3.6      2.605      4.565
REMARK  6 active torsions:
REMARK  status: ('A' for Active; 'I' for Inactive)
REMARK    1  A    between atoms: S_10  and  C_5 
REMARK    2  A    between atoms: C_11  and  N_8 
REMARK    3  A    between atoms: C_15  and  S_10 
REMARK    4  A    between atoms: C_16  and  C_11 
REMARK    5  A    between atoms: C_17  and  C_15 
REMARK    6  A    between atoms: C_23  and  C_16 
ROOT
ATOM      1  C   UNL d   1     -49.110  12.139  23.430  0.00  0.00     0.174 A 
ATOM      2  C   UNL d   1     -49.466  12.876  23.295  0.00  0.00     0.159 A 
ATOM      3  N   UNL d   1     -48.299  12.242  23.399  0.00  0.00    -0.203 NA
ATOM      4  N   UNL d   1     -49.588  11.480  23.562  0.00  0.00    -0.239 N 
ATOM      5  C   UNL d   1     -48.162  13.043  23.245  0.00  0.00     0.181 A 
ATOM      6  C   UNL d   1     -50.426  11.529  23.565  0.00  0.00     0.358 A 
ATOM      7  N   UNL d   1     -50.782  12.266  23.430  0.00  0.00    -0.152 NA
ATOM      8  N   UNL d   1     -48.847  13.513  23.166  0.00  0.00    -0.279 N 
ATOM      9  C   UNL d   1     -50.299  12.954  23.293  0.00  0.00     0.302 A 
ATOM     10  O   UNL d   1     -50.916  10.865  23.698  0.00  0.00    -0.244 OA
ATOM     11  O   UNL d   1     -50.654  13.691  23.158  0.00  0.00    -0.263 OA
ATOM     12  C   UNL d   1     -49.233  10.744  23.696  0.00  0.00     0.105 C 
ENDROOT
BRANCH   5  13
ATOM     13  S   UNL d   1     -47.353  13.187  23.206  0.00  0.00    -0.049 SA
BRANCH  13  14
ATOM     14  C   UNL d   1     -46.672  12.768  23.423  0.00  0.00     0.038 C 
BRANCH  14  15
ATOM     15  C   UNL d   1     -45.992  12.813  22.957  0.00  0.00     0.007 A 
ATOM     16  C   UNL d   1     -45.612  12.121  22.725  0.00  0.00     0.001 A 
ATOM     17  C   UNL d   1     -44.933  12.167  22.259  0.00  0.00     0.000 A 
ATOM     18  C   UNL d   1     -44.637  12.904  22.027  0.00  0.00     0.000 A 
ATOM     19  C   UNL d   1     -45.025  13.597  22.265  0.00  0.00     0.000 A 
ATOM     20  C   UNL d   1     -43.955  12.950  21.559  0.00  0.00     0.000 C 
ATOM     21  C   UNL d   1     -45.704  13.546  22.731  0.00  0.00     0.001 A 
ENDBRANCH  14  15
ENDBRANCH  13  14
ENDBRANCH   5  13
BRANCH   8  22
ATOM     22  C   UNL d   1     -48.788  14.320  23.012  0.00  0.00     0.082 C 
BRANCH  22  23
ATOM     23  C   UNL d   1     -48.893  14.607  22.246  0.00  0.00     0.019 C 
BRANCH  23  24
ATOM     24  C   UNL d   1     -48.887  15.418  22.099  0.00  0.00     0.002 C 
ATOM     25  C   UNL d   1     -49.577  15.807  21.868  0.00  0.00     0.000 C 
ATOM     26  C   UNL d   1     -48.187  15.852  22.183  0.00  0.00     0.000 C 
ENDBRANCH  23  24
ENDBRANCH  22  23
ENDBRANCH   8  22
TORSDOF 6
ENDMDL
