MODEL 1
REMARK VINA RESULT:      -3.6      0.000      0.000
REMARK  9 active torsions:
REMARK  status: ('A' for Active; 'I' for Inactive)
REMARK    1  A    between atoms: C_17  and  N_4 
REMARK    2  A    between atoms: S_16  and  C_7 
REMARK    3  A    between atoms: S_15  and  C_8 
REMARK    4  A    between atoms: C_11  and  C_19 
REMARK    5  A    between atoms: C_22  and  S_15 
REMARK    6  A    between atoms: C_19  and  S_16 
REMARK    7  A    between atoms: C_20  and  C_22 
REMARK    8  A    between atoms: O_25  and  C_20 
REMARK    9  A    between atoms: C_29  and  O_25 
ROOT
ATOM      1  N   UNL d   1     -40.908  14.387  20.156  0.00  0.00    -0.269 N 
ATOM      2  C   UNL d   1     -40.599  14.468  19.383  0.00  0.00     0.201 A 
ATOM      3  C   UNL d   1     -41.538  13.864  20.126  0.00  0.00     0.177 A 
ATOM      4  N   UNL d   1     -41.044  13.991  18.875  0.00  0.00    -0.121 NA
ATOM      5  N   UNL d   1     -41.618  13.625  19.344  0.00  0.00    -0.127 NA
ENDROOT
BRANCH   3   6
ATOM      6  C   UNL d   1     -41.946  13.682  20.809  0.00  0.00     0.078 C 
BRANCH   6   7
ATOM      7  S   UNL d   1     -42.288  12.932  20.913  0.00  0.00    -0.045 SA
BRANCH   7   8
ATOM      8  C   UNL d   1     -43.003  12.829  21.344  0.00  0.00     0.198 A 
ATOM      9  N   UNL d   1     -43.092  12.169  21.852  0.00  0.00    -0.183 NA
ATOM     10  C   UNL d   1     -43.784  12.063  22.274  0.00  0.00     0.283 A 
ATOM     11  C   UNL d   1     -44.407  12.595  22.212  0.00  0.00     0.082 A 
ATOM     12  O   UNL d   1     -43.854  11.384  22.787  0.00  0.00    -0.265 OA
ATOM     13  C   UNL d   1     -44.338  13.251  21.717  0.00  0.00     0.117 A 
ATOM     14  C   UNL d   1     -45.138  12.626  22.558  0.00  0.00     0.013 A 
ATOM     15  N   UNL d   1     -43.651  13.382  21.280  0.00  0.00    -0.214 NA
ATOM     16  S   UNL d   1     -45.022  13.685  21.755  0.00  0.00    -0.068 SA
ATOM     17  C   UNL d   1     -45.521  13.295  22.279  0.00  0.00     0.031 A 
ATOM     18  C   UNL d   1     -46.263  13.307  22.643  0.00  0.00     0.006 A 
ATOM     19  C   UNL d   1     -46.354  12.674  23.134  0.00  0.00     0.001 A 
ATOM     20  C   UNL d   1     -45.637  12.237  23.081  0.00  0.00     0.001 A 
ENDBRANCH   7   8
ENDBRANCH   6   7
ENDBRANCH   3   6
BRANCH   1  21
ATOM     21  C   UNL d   1     -40.603  14.783  20.815  0.00  0.00     0.067 A 
ATOM     22  C   UNL d   1     -40.879  15.534  21.014  0.00  0.00     0.018 A 
ATOM     23  C   UNL d   1     -40.550  15.922  21.696  0.00  0.00     0.002 A 
ATOM     24  C   UNL d   1     -39.972  15.562  22.148  0.00  0.00     0.000 A 
ATOM     25  C   UNL d   1     -39.691  14.801  21.948  0.00  0.00     0.002 A 
ATOM     26  C   UNL d   1     -40.002  14.412  21.287  0.00  0.00     0.018 A 
ENDBRANCH   1  21
BRANCH   2  27
ATOM     27  S   UNL d   1     -39.944  14.946  19.115  0.00  0.00    -0.042 SA
BRANCH  27  28
ATOM     28  C   UNL d   1     -39.776  14.963  18.311  0.00  0.00     0.107 C 
BRANCH  28  29
ATOM     29  C   UNL d   1     -39.135  15.414  18.024  0.00  0.00     0.307 C 
ATOM     30  O   UNL d   1     -38.475  15.557  18.502  0.00  0.00    -0.258 OA
BRANCH  29  31
ATOM     31  O   UNL d   1     -39.179  15.711  17.258  0.00  0.00    -0.271 OA
BRANCH  31  32
ATOM     32  C   UNL d   1     -38.516  15.730  16.758  0.00  0.00     0.126 C 
ATOM     33  C   UNL d   1     -38.580  15.921  15.959  0.00  0.00     0.029 C 
ENDBRANCH  31  32
ENDBRANCH  29  31
ENDBRANCH  28  29
ENDBRANCH  27  28
ENDBRANCH   2  27
TORSDOF 9
ENDMDL
MODEL 2
REMARK VINA RESULT:      -1.7      3.415      7.674
REMARK  9 active torsions:
REMARK  status: ('A' for Active; 'I' for Inactive)
REMARK    1  A    between atoms: C_17  and  N_4 
REMARK    2  A    between atoms: S_16  and  C_7 
REMARK    3  A    between atoms: S_15  and  C_8 
REMARK    4  A    between atoms: C_11  and  C_19 
REMARK    5  A    between atoms: C_22  and  S_15 
REMARK    6  A    between atoms: C_19  and  S_16 
REMARK    7  A    between atoms: C_20  and  C_22 
REMARK    8  A    between atoms: O_25  and  C_20 
REMARK    9  A    between atoms: C_29  and  O_25 
ROOT
ATOM      1  N   UNL d   1     -47.627  12.556  23.130  0.00  0.00    -0.269 N 
ATOM      2  C   UNL d   1     -48.332  12.167  23.354  0.00  0.00     0.201 A 
ATOM      3  C   UNL d   1     -47.004  12.032  23.225  0.00  0.00     0.177 A 
ATOM      4  N   UNL d   1     -48.140  11.398  23.589  0.00  0.00    -0.121 NA
ATOM      5  N   UNL d   1     -47.321  11.328  23.506  0.00  0.00    -0.127 NA
ENDROOT
BRANCH   3   6
ATOM      6  C   UNL d   1     -46.245  12.269  23.045  0.00  0.00     0.078 C 
BRANCH   6   7
ATOM      7  S   UNL d   1     -45.643  11.710  22.921  0.00  0.00    -0.045 SA
BRANCH   7   8
ATOM      8  C   UNL d   1     -44.888  11.933  22.626  0.00  0.00     0.198 A 
ATOM      9  N   UNL d   1     -44.202  11.531  22.890  0.00  0.00    -0.183 NA
ATOM     10  C   UNL d   1     -43.464  11.742  22.607  0.00  0.00     0.283 A 
ATOM     11  C   UNL d   1     -43.375  12.350  22.061  0.00  0.00     0.082 A 
ATOM     12  O   UNL d   1     -42.778  11.319  22.889  0.00  0.00    -0.265 OA
ATOM     13  C   UNL d   1     -44.038  12.757  21.790  0.00  0.00     0.117 A 
ATOM     14  C   UNL d   1     -42.727  12.668  21.696  0.00  0.00     0.013 A 
ATOM     15  N   UNL d   1     -44.794  12.564  22.058  0.00  0.00    -0.214 NA
ATOM     16  S   UNL d   1     -43.803  13.324  21.260  0.00  0.00    -0.068 SA
ATOM     17  C   UNL d   1     -42.985  13.269  21.202  0.00  0.00     0.031 A 
ATOM     18  C   UNL d   1     -42.309  13.579  20.840  0.00  0.00     0.006 A 
ATOM     19  C   UNL d   1     -41.646  13.195  21.091  0.00  0.00     0.001 A 
ATOM     20  C   UNL d   1     -41.910  12.613  21.637  0.00  0.00     0.001 A 
ENDBRANCH   7   8
ENDBRANCH   6   7
ENDBRANCH   3   6
BRANCH   1  21
ATOM     21  C   UNL d   1     -47.601  13.338  22.861  0.00  0.00     0.067 A 
ATOM     22  C   UNL d   1     -47.521  13.960  23.398  0.00  0.00     0.018 A 
ATOM     23  C   UNL d   1     -47.497  14.755  23.098  0.00  0.00     0.002 A 
ATOM     24  C   UNL d   1     -47.551  14.907  22.296  0.00  0.00     0.000 A 
ATOM     25  C   UNL d   1     -47.632  14.278  21.752  0.00  0.00     0.002 A 
ATOM     26  C   UNL d   1     -47.657  13.499  22.029  0.00  0.00     0.018 A 
ENDBRANCH   1  21
BRANCH   2  27
ATOM     27  S   UNL d   1     -49.132  12.467  23.357  0.00  0.00    -0.042 SA
BRANCH  27  28
ATOM     28  C   UNL d   1     -49.745  11.946  23.188  0.00  0.00     0.107 C 
BRANCH  28  29
ATOM     29  C   UNL d   1     -50.518  12.234  23.059  0.00  0.00     0.307 C 
ATOM     30  O   UNL d   1     -51.033  12.351  23.695  0.00  0.00    -0.258 OA
BRANCH  29  31
ATOM     31  O   UNL d   1     -50.751  12.396  22.287  0.00  0.00    -0.271 OA
BRANCH  31  32
ATOM     32  C   UNL d   1     -51.050  13.138  22.067  0.00  0.00     0.126 C 
ATOM     33  C   UNL d   1     -51.062  13.386  21.281  0.00  0.00     0.029 C 
ENDBRANCH  31  32
ENDBRANCH  29  31
ENDBRANCH  28  29
ENDBRANCH  27  28
ENDBRANCH   2  27
TORSDOF 9
ENDMDL
MODEL 3
REMARK VINA RESULT:      -0.6      4.644      7.641
REMARK  9 active torsions:
REMARK  status: ('A' for Active; 'I' for Inactive)
REMARK    1  A    between atoms: C_17  and  N_4 
REMARK    2  A    between atoms: S_16  and  C_7 
REMARK    3  A    between atoms: S_15  and  C_8 
REMARK    4  A    between atoms: C_11  and  C_19 
REMARK    5  A    between atoms: C_22  and  S_15 
REMARK    6  A    between atoms: C_19  and  S_16 
REMARK    7  A    between atoms: C_20  and  C_22 
REMARK    8  A    between atoms: O_25  and  C_20 
REMARK    9  A    between atoms: C_29  and  O_25 
ROOT
ATOM      1  N   UNL d   1     -47.803  13.595  22.941  0.00  0.00    -0.269 N 
ATOM      2  C   UNL d   1     -48.184  14.336  22.866  0.00  0.00     0.201 A 
ATOM      3  C   UNL d   1     -46.994  13.725  22.969  0.00  0.00     0.177 A 
ATOM      4  N   UNL d   1     -47.604  14.925  22.847  0.00  0.00    -0.121 NA
ATOM      5  N   UNL d   1     -46.877  14.537  22.911  0.00  0.00    -0.127 NA
ENDROOT
BRANCH   3   6
ATOM      6  C   UNL d   1     -46.485  13.093  23.042  0.00  0.00     0.078 C 
BRANCH   6   7
ATOM      7  S   UNL d   1     -45.840  13.004  22.526  0.00  0.00    -0.045 SA
BRANCH   7   8
ATOM      8  C   UNL d   1     -45.263  12.402  22.639  0.00  0.00     0.198 A 
ATOM      9  N   UNL d   1     -44.502  12.485  22.300  0.00  0.00    -0.183 NA
ATOM     10  C   UNL d   1     -43.936  11.903  22.406  0.00  0.00     0.283 A 
ATOM     11  C   UNL d   1     -44.098  11.228  22.845  0.00  0.00     0.082 A 
ATOM     12  O   UNL d   1     -43.167  12.007  22.051  0.00  0.00    -0.265 OA
ATOM     13  C   UNL d   1     -44.841  11.129  23.187  0.00  0.00     0.117 A 
ATOM     14  C   UNL d   1     -43.653  10.579  23.035  0.00  0.00     0.013 A 
ATOM     15  N   UNL d   1     -45.429  11.699  23.095  0.00  0.00    -0.214 NA
ATOM     16  S   UNL d   1     -44.857  10.424  23.586  0.00  0.00    -0.068 SA
ATOM     17  C   UNL d   1     -44.116  10.081  23.492  0.00  0.00     0.031 A 
ATOM     18  C   UNL d   1     -43.644   9.427  23.674  0.00  0.00     0.006 A 
ATOM     19  C   UNL d   1     -42.910   9.501  23.350  0.00  0.00     0.001 A 
ATOM     20  C   UNL d   1     -42.913  10.236  22.941  0.00  0.00     0.001 A 
ENDBRANCH   7   8
ENDBRANCH   6   7
ENDBRANCH   3   6
BRANCH   1  21
ATOM     21  C   UNL d   1     -48.206  12.875  22.979  0.00  0.00     0.067 A 
ATOM     22  C   UNL d   1     -48.562  12.633  23.683  0.00  0.00     0.018 A 
ATOM     23  C   UNL d   1     -48.971  11.887  23.697  0.00  0.00     0.002 A 
ATOM     24  C   UNL d   1     -49.015  11.416  23.030  0.00  0.00     0.000 A 
ATOM     25  C   UNL d   1     -48.656  11.661  22.317  0.00  0.00     0.002 A 
ATOM     26  C   UNL d   1     -48.254  12.383  22.288  0.00  0.00     0.018 A 
ENDBRANCH   1  21
BRANCH   2  27
ATOM     27  S   UNL d   1     -49.019  14.506  22.814  0.00  0.00    -0.042 SA
BRANCH  27  28
ATOM     28  C   UNL d   1     -49.259  15.157  22.372  0.00  0.00     0.107 C 
BRANCH  28  29
ATOM     29  C   UNL d   1     -50.063  15.377  22.350  0.00  0.00     0.307 C 
ATOM     30  O   UNL d   1     -50.470  15.554  23.048  0.00  0.00    -0.258 OA
BRANCH  29  31
ATOM     31  O   UNL d   1     -50.438  15.412  21.618  0.00  0.00    -0.271 OA
BRANCH  31  32
ATOM     32  C   UNL d   1     -51.000  14.846  21.387  0.00  0.00     0.126 C 
ATOM     33  C   UNL d   1     -50.863  14.330  20.758  0.00  0.00     0.029 C 
ENDBRANCH  31  32
ENDBRANCH  29  31
ENDBRANCH  28  29
ENDBRANCH  27  28
ENDBRANCH   2  27
TORSDOF 9
ENDMDL
MODEL 4
REMARK VINA RESULT:      -0.6      2.764      5.127
REMARK  9 active torsions:
REMARK  status: ('A' for Active; 'I' for Inactive)
REMARK    1  A    between atoms: C_17  and  N_4 
REMARK    2  A    between atoms: S_16  and  C_7 
REMARK    3  A    between atoms: S_15  and  C_8 
REMARK    4  A    between atoms: C_11  and  C_19 
REMARK    5  A    between atoms: C_22  and  S_15 
REMARK    6  A    between atoms: C_19  and  S_16 
REMARK    7  A    between atoms: C_20  and  C_22 
REMARK    8  A    between atoms: O_25  and  C_20 
REMARK    9  A    between atoms: C_29  and  O_25 
ROOT
ATOM      1  N   UNL d   1     -44.678  12.192  22.593  0.00  0.00    -0.269 N 
ATOM      2  C   UNL d   1     -44.179  12.651  22.102  0.00  0.00     0.201 A 
ATOM      3  C   UNL d   1     -45.379  12.601  22.699  0.00  0.00     0.177 A 
ATOM      4  N   UNL d   1     -44.579  13.347  21.906  0.00  0.00    -0.121 NA
ATOM      5  N   UNL d   1     -45.315  13.305  22.279  0.00  0.00    -0.127 NA
ENDROOT
BRANCH   3   6
ATOM      6  C   UNL d   1     -45.971  12.279  23.158  0.00  0.00     0.078 C 
BRANCH   6   7
ATOM      7  S   UNL d   1     -46.548  12.762  23.510  0.00  0.00    -0.045 SA
BRANCH   7   8
ATOM      8  C   UNL d   1     -47.368  12.659  23.349  0.00  0.00     0.198 A 
ATOM      9  N   UNL d   1     -47.756  11.958  23.593  0.00  0.00    -0.183 NA
ATOM     10  C   UNL d   1     -48.552  11.852  23.440  0.00  0.00     0.283 A 
ATOM     11  C   UNL d   1     -48.990  12.424  23.045  0.00  0.00     0.082 A 
ATOM     12  O   UNL d   1     -48.929  11.131  23.697  0.00  0.00    -0.265 OA
ATOM     13  C   UNL d   1     -48.625  13.121  22.797  0.00  0.00     0.117 A 
ATOM     14  C   UNL d   1     -49.768  12.465  22.825  0.00  0.00     0.013 A 
ATOM     15  N   UNL d   1     -47.824  13.253  22.939  0.00  0.00    -0.214 NA
ATOM     16  S   UNL d   1     -49.173  13.589  22.425  0.00  0.00    -0.068 SA
ATOM     17  C   UNL d   1     -49.886  13.180  22.443  0.00  0.00     0.031 A 
ATOM     18  C   UNL d   1     -50.683  13.200  22.227  0.00  0.00     0.006 A 
ATOM     19  C   UNL d   1     -51.062  12.527  22.460  0.00  0.00     0.001 A 
ATOM     20  C   UNL d   1     -50.480  12.056  22.842  0.00  0.00     0.001 A 
ENDBRANCH   7   8
ENDBRANCH   6   7
ENDBRANCH   3   6
BRANCH   1  21
ATOM     21  C   UNL d   1     -44.465  11.454  22.900  0.00  0.00     0.067 A 
ATOM     22  C   UNL d   1     -44.991  10.820  22.862  0.00  0.00     0.018 A 
ATOM     23  C   UNL d   1     -44.749  10.071  23.185  0.00  0.00     0.002 A 
ATOM     24  C   UNL d   1     -44.012   9.975  23.527  0.00  0.00     0.000 A 
ATOM     25  C   UNL d   1     -43.479  10.617  23.565  0.00  0.00     0.002 A 
ATOM     26  C   UNL d   1     -43.700  11.352  23.256  0.00  0.00     0.018 A 
ENDBRANCH   1  21
BRANCH   2  27
ATOM     27  S   UNL d   1     -43.391  12.475  21.826  0.00  0.00    -0.042 SA
BRANCH  27  28
ATOM     28  C   UNL d   1     -43.050  12.976  21.271  0.00  0.00     0.107 C 
BRANCH  28  29
ATOM     29  C   UNL d   1     -42.224  13.086  21.254  0.00  0.00     0.307 C 
ATOM     30  O   UNL d   1     -41.737  12.694  21.795  0.00  0.00    -0.258 OA
BRANCH  29  31
ATOM     31  O   UNL d   1     -41.908  13.593  20.687  0.00  0.00    -0.271 OA
BRANCH  31  32
ATOM     32  C   UNL d   1     -41.305  14.133  20.871  0.00  0.00     0.126 C 
ATOM     33  C   UNL d   1     -40.915  14.564  20.286  0.00  0.00     0.029 C 
ENDBRANCH  31  32
ENDBRANCH  29  31
ENDBRANCH  28  29
ENDBRANCH  27  28
ENDBRANCH   2  27
TORSDOF 9
ENDMDL
