MODEL 1
REMARK VINA RESULT:      -4.3      0.000      0.000
REMARK  7 active torsions:
REMARK  status: ('A' for Active; 'I' for Inactive)
REMARK    1  A    between atoms: S_2  and  C_1 
REMARK    2  A    between atoms: C_8  and  S_2 
REMARK    3  A    between atoms: N_16  and  C_6 
REMARK    4  A    between atoms: N_9  and  C_22 
REMARK    5  A    between atoms: C_24  and  N_16 
REMARK    6  A    between atoms: C_22  and  C_23 
REMARK    7  A    between atoms: C_23  and  C_24 
ROOT
ATOM      1  C   UNL d   1      58.753  -0.711  29.385  0.00  0.00     0.187 A 
ATOM      2  N   UNL d   1      58.185  -0.605  29.962  0.00  0.00    -0.208 NA
ATOM      3  C   UNL d   1      58.929   0.022  29.055  0.00  0.00     0.118 A 
ATOM      4  S   UNL d   1      58.468   0.578  29.430  0.00  0.00    -0.035 SA
ATOM      5  C   UNL d   1      58.003   0.194  29.996  0.00  0.00     0.196 A 
ATOM      6 CL   UNL d   1      59.470   0.170  28.455  0.00  0.00    -0.073 Cl
ENDROOT
BRANCH   1   7
ATOM      7  S   UNL d   1      59.091  -1.430  29.171  0.00  0.00     0.228 S 
ATOM      8  O   UNL d   1      58.536  -1.541  28.579  0.00  0.00    -0.216 OA
ATOM      9  O   UNL d   1      59.651  -1.317  29.769  0.00  0.00    -0.216 OA
BRANCH   7  10
ATOM     10  C   UNL d   1      59.462  -2.144  28.990  0.00  0.00     0.089 A 
ATOM     11  C   UNL d   1      59.039  -2.764  28.662  0.00  0.00     0.011 A 
ATOM     12  C   UNL d   1      59.411  -3.478  28.482  0.00  0.00     0.001 A 
ATOM     13  C   UNL d   1      60.220  -3.570  28.633  0.00  0.00     0.000 A 
ATOM     14  C   UNL d   1      60.651  -2.948  28.964  0.00  0.00     0.001 A 
ATOM     15  C   UNL d   1      60.599  -4.283  28.455  0.00  0.00     0.000 C 
ATOM     16  C   UNL d   1      60.280  -2.234  29.144  0.00  0.00     0.011 A 
ENDBRANCH   7  10
ENDBRANCH   1   7
BRANCH   5  17
ATOM     17  N   UNL d   1      57.455   0.546  30.504  0.00  0.00    -0.220 NA
BRANCH  17  18
ATOM     18  C   UNL d   1      57.444   0.334  31.301  0.00  0.00     0.103 C 
BRANCH  18  19
ATOM     19  C   UNL d   1      56.767   0.479  31.752  0.00  0.00     0.040 C 
BRANCH  19  20
ATOM     20  C   UNL d   1      56.782   0.339  32.566  0.00  0.00     0.083 C 
BRANCH  20  21
ATOM     21  N   UNL d   1      56.085   0.150  32.957  0.00  0.00    -0.285 N 
ATOM     22  C   UNL d   1      55.518   0.677  33.220  0.00  0.00     0.183 A 
ATOM     23  N   UNL d   1      54.916   0.247  33.578  0.00  0.00    -0.222 NA
ATOM     24  C   UNL d   1      55.114  -0.544  33.534  0.00  0.00     0.120 A 
ATOM     25  C   UNL d   1      55.839  -0.609  33.149  0.00  0.00     0.102 A 
ENDBRANCH  20  21
ENDBRANCH  19  20
ENDBRANCH  18  19
ENDBRANCH  17  18
ENDBRANCH   5  17
TORSDOF 7
ENDMDL
MODEL 2
REMARK VINA RESULT:      -3.2      2.559      6.090
REMARK  7 active torsions:
REMARK  status: ('A' for Active; 'I' for Inactive)
REMARK    1  A    between atoms: S_2  and  C_1 
REMARK    2  A    between atoms: C_8  and  S_2 
REMARK    3  A    between atoms: N_16  and  C_6 
REMARK    4  A    between atoms: N_9  and  C_22 
REMARK    5  A    between atoms: C_24  and  N_16 
REMARK    6  A    between atoms: C_22  and  C_23 
REMARK    7  A    between atoms: C_23  and  C_24 
ROOT
ATOM      1  C   UNL d   1      56.402  -0.138  32.415  0.00  0.00     0.187 A 
ATOM      2  N   UNL d   1      56.784   0.404  31.937  0.00  0.00    -0.208 NA
ATOM      3  C   UNL d   1      56.509  -0.889  32.094  0.00  0.00     0.118 A 
ATOM      4  S   UNL d   1      56.957  -0.807  31.419  0.00  0.00    -0.035 SA
ATOM      5  C   UNL d   1      57.131  -0.005  31.316  0.00  0.00     0.196 A 
ATOM      6 CL   UNL d   1      56.219  -1.595  32.396  0.00  0.00    -0.073 Cl
ENDROOT
BRANCH   1   7
ATOM      7  S   UNL d   1      55.983   0.038  33.099  0.00  0.00     0.228 S 
ATOM      8  O   UNL d   1      55.338   0.298  32.667  0.00  0.00    -0.216 OA
ATOM      9  O   UNL d   1      56.634  -0.225  33.537  0.00  0.00    -0.216 OA
BRANCH   7  10
ATOM     10  C   UNL d   1      55.599   0.199  33.812  0.00  0.00     0.089 A 
ATOM     11  C   UNL d   1      54.799   0.375  33.826  0.00  0.00     0.011 A 
ATOM     12  C   UNL d   1      54.416   0.536  34.538  0.00  0.00     0.001 A 
ATOM     13  C   UNL d   1      54.843   0.520  35.248  0.00  0.00     0.000 A 
ATOM     14  C   UNL d   1      55.650   0.343  35.240  0.00  0.00     0.001 A 
ATOM     15  C   UNL d   1      54.465   0.680  35.966  0.00  0.00     0.000 C 
ATOM     16  C   UNL d   1      56.033   0.182  34.528  0.00  0.00     0.011 A 
ENDBRANCH   7  10
ENDBRANCH   1   7
BRANCH   5  17
ATOM     17  N   UNL d   1      57.573   0.328  30.703  0.00  0.00    -0.220 NA
BRANCH  17  18
ATOM     18  C   UNL d   1      57.986  -0.164  30.185  0.00  0.00     0.103 C 
BRANCH  18  19
ATOM     19  C   UNL d   1      58.561   0.159  29.688  0.00  0.00     0.040 C 
BRANCH  19  20
ATOM     20  C   UNL d   1      58.951  -0.328  29.145  0.00  0.00     0.083 C 
BRANCH  20  21
ATOM     21  N   UNL d   1      59.703  -0.124  28.888  0.00  0.00    -0.285 N 
ATOM     22  C   UNL d   1      59.982   0.633  28.757  0.00  0.00     0.183 A 
ATOM     23  N   UNL d   1      60.762   0.578  28.504  0.00  0.00    -0.222 NA
ATOM     24  C   UNL d   1      60.961  -0.213  28.481  0.00  0.00     0.120 A 
ATOM     25  C   UNL d   1      60.307  -0.653  28.718  0.00  0.00     0.102 A 
ENDBRANCH  20  21
ENDBRANCH  19  20
ENDBRANCH  18  19
ENDBRANCH  17  18
ENDBRANCH   5  17
TORSDOF 7
ENDMDL
MODEL 3
REMARK VINA RESULT:      -1.8      1.063      1.382
REMARK  7 active torsions:
REMARK  status: ('A' for Active; 'I' for Inactive)
REMARK    1  A    between atoms: S_2  and  C_1 
REMARK    2  A    between atoms: C_8  and  S_2 
REMARK    3  A    between atoms: N_16  and  C_6 
REMARK    4  A    between atoms: N_9  and  C_22 
REMARK    5  A    between atoms: C_24  and  N_16 
REMARK    6  A    between atoms: C_22  and  C_23 
REMARK    7  A    between atoms: C_23  and  C_24 
ROOT
ATOM      1  C   UNL d   1      58.003  -0.966  30.336  0.00  0.00     0.187 A 
ATOM      2  N   UNL d   1      57.512  -1.088  30.977  0.00  0.00    -0.208 NA
ATOM      3  C   UNL d   1      57.988  -0.165  30.145  0.00  0.00     0.118 A 
ATOM      4  S   UNL d   1      57.488   0.204  30.670  0.00  0.00    -0.035 SA
ATOM      5  C   UNL d   1      57.188  -0.365  31.190  0.00  0.00     0.196 A 
ATOM      6 CL   UNL d   1      58.402   0.200  29.537  0.00  0.00    -0.073 Cl
ENDROOT
BRANCH   1   7
ATOM      7  S   UNL d   1      58.438  -1.545  29.947  0.00  0.00     0.228 S 
ATOM      8  O   UNL d   1      57.762  -1.862  29.611  0.00  0.00    -0.216 OA
ATOM      9  O   UNL d   1      59.122  -1.227  30.287  0.00  0.00    -0.216 OA
BRANCH   7  10
ATOM     10  C   UNL d   1      58.914  -2.108  29.577  0.00  0.00     0.089 A 
ATOM     11  C   UNL d   1      59.730  -2.076  29.644  0.00  0.00     0.011 A 
ATOM     12  C   UNL d   1      60.206  -2.638  29.274  0.00  0.00     0.001 A 
ATOM     13  C   UNL d   1      59.856  -3.244  28.829  0.00  0.00     0.000 A 
ATOM     14  C   UNL d   1      59.034  -3.282  28.759  0.00  0.00     0.001 A 
ATOM     15  C   UNL d   1      60.327  -3.812  28.456  0.00  0.00     0.000 C 
ATOM     16  C   UNL d   1      58.558  -2.719  29.129  0.00  0.00     0.011 A 
ENDBRANCH   7  10
ENDBRANCH   1   7
BRANCH   5  17
ATOM     17  N   UNL d   1      56.659  -0.235  31.812  0.00  0.00    -0.220 NA
BRANCH  17  18
ATOM     18  C   UNL d   1      56.851   0.310  32.401  0.00  0.00     0.103 C 
BRANCH  18  19
ATOM     19  C   UNL d   1      56.272   0.548  32.940  0.00  0.00     0.040 C 
BRANCH  19  20
ATOM     20  C   UNL d   1      56.235   0.189  33.683  0.00  0.00     0.083 C 
BRANCH  20  21
ATOM     21  N   UNL d   1      55.593   0.340  34.173  0.00  0.00    -0.285 N 
ATOM     22  C   UNL d   1      55.624   0.608  34.944  0.00  0.00     0.183 A 
ATOM     23  N   UNL d   1      54.853   0.681  35.221  0.00  0.00    -0.222 NA
ATOM     24  C   UNL d   1      54.350   0.457  34.618  0.00  0.00     0.120 A 
ATOM     25  C   UNL d   1      54.804   0.245  33.966  0.00  0.00     0.102 A 
ENDBRANCH  20  21
ENDBRANCH  19  20
ENDBRANCH  18  19
ENDBRANCH  17  18
ENDBRANCH   5  17
TORSDOF 7
ENDMDL
