MODEL 1
REMARK VINA RESULT:      41.6      0.000      0.000
REMARK  4 active torsions:
REMARK  status: ('A' for Active; 'I' for Inactive)
REMARK    1  A    between atoms: N_6  and  C_1 
REMARK    2  A    between atoms: C_10  and  C_2 
REMARK       I    between atoms: C_9  and  N_6 
REMARK    3  A    between atoms: C_11  and  C_9 
REMARK    4  A    between atoms: O_20  and  C_10 
ROOT
ATOM      1  C   UNL d   1      46.237 -15.471  43.308  0.00  0.00     0.119 A 
ATOM      2  C   UNL d   1      45.858 -15.229  43.998  0.00  0.00     0.087 A 
ATOM      3  C   UNL d   1      45.698 -14.428  43.925  0.00  0.00     0.008 A 
ATOM      4  C   UNL d   1      45.971 -14.171  43.203  0.00  0.00     0.028 A 
ATOM      5  S   UNL d   1      46.310 -14.815  42.811  0.00  0.00    -0.070 SA
ATOM      6  C   UNL d   1      45.885 -13.378  42.976  0.00  0.00     0.104 A 
ATOM      7  N   UNL d   1      45.519 -12.847  43.487  0.00  0.00    -0.294 NA
ATOM      8  C   UNL d   1      45.240 -13.107  44.221  0.00  0.00     0.099 A 
ATOM      9  C   UNL d   1      45.328 -13.899  44.444  0.00  0.00    -0.004 A 
ATOM     10  C   UNL d   1      45.891 -12.651  42.584  0.00  0.00     0.029 C 
ATOM     11  C   UNL d   1      46.267 -13.736  42.341  0.00  0.00     0.029 C 
ATOM     12  C   UNL d   1      44.962 -13.368  44.955  0.00  0.00     0.029 C 
ATOM     13  C   UNL d   1      45.150 -12.318  44.006  0.00  0.00     0.029 C 
ENDROOT
BRANCH   1  14
ATOM     14  N   UNL d   1      46.502 -16.235  43.136  0.00  0.00    -0.200 NA
ATOM     15  C   UNL d   1      45.959 -16.832  42.968  0.00  0.00     0.302 C 
ATOM     16  O   UNL d   1      45.151 -16.666  42.971  0.00  0.00    -0.263 OA
BRANCH  15  17
ATOM     17  C   UNL d   1      46.222 -17.593  42.798  0.00  0.00     0.158 A 
ATOM     18  O   UNL d   1      46.351 -18.197  43.337  0.00  0.00    -0.300 OA
ATOM     19  C   UNL d   1      46.616 -18.869  42.909  0.00  0.00     0.123 A 
ATOM     20  C   UNL d   1      46.646 -18.668  42.121  0.00  0.00     0.029 A 
ATOM     21  C   UNL d   1      46.404 -17.877  42.029  0.00  0.00     0.032 A 
ENDBRANCH  15  17
ENDBRANCH   1  14
BRANCH   2  22
ATOM     22  C   UNL d   1      45.679 -15.713  44.634  0.00  0.00     0.298 C 
ATOM     23  O   UNL d   1      46.275 -16.191  44.953  0.00  0.00    -0.259 OA
BRANCH  22  24
ATOM     24  O   UNL d   1      44.911 -15.725  44.955  0.00  0.00    -0.296 OA
ATOM     25  C   UNL d   1      44.458 -16.409  44.910  0.00  0.00     0.185 C 
ENDBRANCH  22  24
ENDBRANCH   2  22
TORSDOF 4
ENDMDL
MODEL 2
REMARK VINA RESULT:      42.3      3.168      4.754
REMARK  4 active torsions:
REMARK  status: ('A' for Active; 'I' for Inactive)
REMARK    1  A    between atoms: N_6  and  C_1 
REMARK    2  A    between atoms: C_10  and  C_2 
REMARK       I    between atoms: C_9  and  N_6 
REMARK    3  A    between atoms: C_11  and  C_9 
REMARK    4  A    between atoms: O_20  and  C_10 
ROOT
ATOM      1  C   UNL d   1      46.038 -18.184  41.705  0.00  0.00     0.119 A 
ATOM      2  C   UNL d   1      46.214 -18.940  41.984  0.00  0.00     0.087 A 
ATOM      3  C   UNL d   1      46.298 -18.891  42.798  0.00  0.00     0.008 A 
ATOM      4  C   UNL d   1      46.179 -18.119  43.027  0.00  0.00     0.028 A 
ATOM      5  S   UNL d   1      46.016 -17.671  42.352  0.00  0.00    -0.070 SA
ATOM      6  C   UNL d   1      46.230 -17.903  43.826  0.00  0.00     0.104 A 
ATOM      7  N   UNL d   1      46.404 -18.475  44.391  0.00  0.00    -0.294 NA
ATOM      8  C   UNL d   1      46.525 -19.259  44.159  0.00  0.00     0.099 A 
ATOM      9  C   UNL d   1      46.473 -19.471  43.361  0.00  0.00    -0.004 A 
ATOM     10  C   UNL d   1      46.238 -17.505  44.550  0.00  0.00     0.029 C 
ATOM     11  C   UNL d   1      46.052 -17.202  43.432  0.00  0.00     0.029 C 
ATOM     12  C   UNL d   1      46.647 -20.043  43.926  0.00  0.00     0.029 C 
ATOM     13  C   UNL d   1      46.578 -19.055  44.954  0.00  0.00     0.029 C 
ENDROOT
BRANCH   1  14
ATOM     14  N   UNL d   1      45.907 -17.971  40.917  0.00  0.00    -0.200 NA
ATOM     15  C   UNL d   1      45.196 -17.615  40.699  0.00  0.00     0.302 C 
ATOM     16  O   UNL d   1      44.615 -17.472  41.267  0.00  0.00    -0.263 OA
BRANCH  15  17
ATOM     17  C   UNL d   1      45.065 -17.403  39.914  0.00  0.00     0.158 A 
ATOM     18  O   UNL d   1      45.638 -17.264  39.344  0.00  0.00    -0.300 OA
ATOM     19  C   UNL d   1      45.244 -17.065  38.631  0.00  0.00     0.123 A 
ATOM     20  C   UNL d   1      44.443 -17.084  38.773  0.00  0.00     0.029 A 
ATOM     21  C   UNL d   1      44.308 -17.293  39.566  0.00  0.00     0.032 A 
ENDBRANCH  15  17
ENDBRANCH   1  14
BRANCH   2  22
ATOM     22  C   UNL d   1      46.287 -19.610  41.518  0.00  0.00     0.298 C 
ATOM     23  O   UNL d   1      45.997 -20.330  41.805  0.00  0.00    -0.259 OA
BRANCH  22  24
ATOM     24  O   UNL d   1      46.647 -19.568  40.769  0.00  0.00    -0.296 OA
ATOM     25  C   UNL d   1      46.495 -20.148  40.207  0.00  0.00     0.185 C 
ENDBRANCH  22  24
ENDBRANCH   2  22
TORSDOF 4
ENDMDL
