MODEL 1
REMARK VINA RESULT:      -5.1      0.000      0.000
REMARK  6 active torsions:
REMARK  status: ('A' for Active; 'I' for Inactive)
REMARK    1  A    between atoms: C_2  and  S_1 
REMARK    2  A    between atoms: N_3  and  S_1 
REMARK    3  A    between atoms: C_11  and  N_3 
REMARK    4  A    between atoms: O_13  and  C_5 
REMARK    5  A    between atoms: C_14  and  C_11 
REMARK    6  A    between atoms: C_15  and  O_13 
ROOT
ATOM      1  S   UNL d   1     -41.515-122.846 -52.038  0.00  0.00     0.285 S 
ATOM      2  O   UNL d   1     -41.151-122.110 -52.109  0.00  0.00    -0.198 OA
ATOM      3  O   UNL d   1     -41.879-123.583 -51.968  0.00  0.00    -0.198 OA
ENDROOT
BRANCH   1   4
ATOM      4  C   UNL d   1     -41.436-122.963 -52.851  0.00  0.00     0.107 A 
ATOM      5  C   UNL d   1     -41.593-122.346 -53.374  0.00  0.00     0.040 A 
ATOM      6  C   UNL d   1     -41.514-122.463 -54.187  0.00  0.00     0.128 A 
ATOM      7  C   UNL d   1     -41.279-123.197 -54.477  0.00  0.00     0.163 A 
ATOM      8  C   UNL d   1     -41.123-123.813 -53.955  0.00  0.00     0.032 A 
ATOM      9  F   UNL d   1     -41.200-123.313 -55.290  0.00  0.00    -0.202 F 
ATOM     10  C   UNL d   1     -41.201-123.696 -53.142  0.00  0.00     0.015 A 
BRANCH   6  11
ATOM     11  O   UNL d   1     -41.670-121.846 -54.709  0.00  0.00    -0.303 OA
BRANCH  11  12
ATOM     12  C   UNL d   1     -42.370-121.842 -55.142  0.00  0.00     0.123 C 
ATOM     13  C   UNL d   1     -42.509-121.249 -55.707  0.00  0.00     0.029 C 
ENDBRANCH  11  12
ENDBRANCH   6  11
ENDBRANCH   1   4
BRANCH   1  14
ATOM     14  N   UNL d   1     -41.594-122.730 -51.225  0.00  0.00    -0.157 NA
BRANCH  14  15
ATOM     15  C   UNL d   1     -41.875-123.343 -50.746  0.00  0.00     0.112 C 
BRANCH  15  16
ATOM     16  C   UNL d   1     -41.888-123.251 -49.927  0.00  0.00     0.020 A 
ATOM     17  C   UNL d   1     -41.203-123.395 -49.493  0.00  0.00     0.002 A 
ATOM     18  C   UNL d   1     -41.216-123.304 -48.677  0.00  0.00     0.000 A 
ATOM     19  C   UNL d   1     -41.908-123.070 -48.295  0.00  0.00     0.000 A 
ATOM     20  C   UNL d   1     -42.592-122.926 -48.737  0.00  0.00     0.000 A 
ATOM     21  C   UNL d   1     -42.580-123.018 -49.557  0.00  0.00     0.002 A 
ENDBRANCH  15  16
ENDBRANCH  14  15
ENDBRANCH   1  14
TORSDOF 6
ENDMDL
MODEL 2
REMARK VINA RESULT:      -4.4      1.785      4.859
REMARK  6 active torsions:
REMARK  status: ('A' for Active; 'I' for Inactive)
REMARK    1  A    between atoms: C_2  and  S_1 
REMARK    2  A    between atoms: N_3  and  S_1 
REMARK    3  A    between atoms: C_11  and  N_3 
REMARK    4  A    between atoms: O_13  and  C_5 
REMARK    5  A    between atoms: C_14  and  C_11 
REMARK    6  A    between atoms: C_15  and  O_13 
ROOT
ATOM      1  S   UNL d   1     -41.816-122.833 -51.928  0.00  0.00     0.285 S 
ATOM      2  O   UNL d   1     -42.232-122.121 -51.913  0.00  0.00    -0.198 OA
ATOM      3  O   UNL d   1     -41.400-123.545 -51.942  0.00  0.00    -0.198 OA
ENDROOT
BRANCH   1   4
ATOM      4  C   UNL d   1     -41.733-122.801 -51.107  0.00  0.00     0.107 A 
ATOM      5  C   UNL d   1     -42.178-123.301 -50.627  0.00  0.00     0.040 A 
ATOM      6  C   UNL d   1     -42.095-123.269 -49.807  0.00  0.00     0.128 A 
ATOM      7  C   UNL d   1     -41.567-122.736 -49.467  0.00  0.00     0.163 A 
ATOM      8  C   UNL d   1     -41.123-122.237 -49.946  0.00  0.00     0.032 A 
ATOM      9  F   UNL d   1     -41.484-122.704 -48.647  0.00  0.00    -0.202 F 
ATOM     10  C   UNL d   1     -41.206-122.269 -50.766  0.00  0.00     0.015 A 
BRANCH   6  11
ATOM     11  O   UNL d   1     -42.540-123.768 -49.328  0.00  0.00    -0.303 OA
BRANCH  11  12
ATOM     12  C   UNL d   1     -43.208-123.480 -48.942  0.00  0.00     0.123 C 
ATOM     13  C   UNL d   1     -43.454-123.817 -48.224  0.00  0.00     0.029 C 
ENDBRANCH  11  12
ENDBRANCH   6  11
ENDBRANCH   1   4
BRANCH   1  14
ATOM     14  N   UNL d   1     -41.899-122.865 -52.748  0.00  0.00    -0.157 NA
BRANCH  14  15
ATOM     15  C   UNL d   1     -41.609-122.249 -53.216  0.00  0.00     0.112 C 
BRANCH  15  16
ATOM     16  C   UNL d   1     -41.719-122.266 -54.033  0.00  0.00     0.020 A 
ATOM     17  C   UNL d   1     -42.363-121.873 -54.362  0.00  0.00     0.002 A 
ATOM     18  C   UNL d   1     -42.473-121.891 -55.176  0.00  0.00     0.000 A 
ATOM     19  C   UNL d   1     -41.942-122.298 -55.660  0.00  0.00     0.000 A 
ATOM     20  C   UNL d   1     -41.297-122.690 -55.321  0.00  0.00     0.000 A 
ATOM     21  C   UNL d   1     -41.187-122.673 -54.504  0.00  0.00     0.002 A 
ENDBRANCH  15  16
ENDBRANCH  14  15
ENDBRANCH   1  14
TORSDOF 6
ENDMDL
