MODEL 1
REMARK VINA RESULT:      -9.0      0.000      0.000
REMARK  5 active torsions:
REMARK  status: ('A' for Active; 'I' for Inactive)
REMARK    1  A    between atoms: C_4  and  N_1 
REMARK    2  A    between atoms: C_9  and  C_2 
REMARK    3  A    between atoms: C_14  and  C_6 
REMARK    4  A    between atoms: C_7  and  C_9 
REMARK    5  A    between atoms: O_26  and  C_22 
ROOT
ATOM      1  N   UNL d   1      53.343  31.417  53.543  0.00  0.00    -0.254 N 
ATOM      2  C   UNL d   1      52.934  32.587  53.039  0.00  0.00     0.101 A 
ATOM      3  C   UNL d   1      52.821  31.258  52.924  0.00  0.00     0.305 A 
ATOM      4  C   UNL d   1      52.566  31.981  52.609  0.00  0.00     0.256 A 
ATOM      5  C   UNL d   1      53.413  32.240  53.616  0.00  0.00     0.081 A 
ATOM      6  O   UNL d   1      52.588  30.512  52.656  0.00  0.00    -0.263 OA
ATOM      7  O   UNL d   1      52.037  32.078  51.976  0.00  0.00    -0.281 OA
ENDROOT
BRANCH   2   8
ATOM      8  C   UNL d   1      52.836  33.399  52.910  0.00  0.00     0.223 C 
ATOM      9  O   UNL d   1      53.490  33.878  52.788  0.00  0.00    -0.284 OA
BRANCH   8  10
ATOM     10  C   UNL d   1      52.078  33.729  52.903  0.00  0.00     0.139 A 
ATOM     11  O   UNL d   1      51.619  33.871  52.232  0.00  0.00    -0.302 OA
ATOM     12  C   UNL d   1      50.903  34.204  52.481  0.00  0.00     0.122 A 
ATOM     13  C   UNL d   1      50.241  34.457  52.065  0.00  0.00     0.117 A 
ATOM     14  C   UNL d   1      50.923  34.266  53.301  0.00  0.00     0.027 A 
ATOM     15  C   UNL d   1      49.598  34.771  52.468  0.00  0.00     0.026 A 
ATOM     16  C   UNL d   1      49.617  34.834  53.297  0.00  0.00     0.002 A 
ATOM     17  C   UNL d   1      50.280  34.581  53.709  0.00  0.00     0.002 A 
ATOM     18  C   UNL d   1      51.647  33.973  53.563  0.00  0.00     0.030 A 
BRANCH  13  19
ATOM     19  O   UNL d   1      50.221  34.395  51.243  0.00  0.00    -0.326 OA
ATOM     20  C   UNL d   1      49.499  34.459  50.838  0.00  0.00     0.181 C 
ENDBRANCH  13  19
ENDBRANCH   8  10
ENDBRANCH   2   8
BRANCH   5  21
ATOM     21  C   UNL d   1      53.876  32.644  54.162  0.00  0.00     0.046 A 
ATOM     22  S   UNL d   1      54.627  32.959  54.019  0.00  0.00    -0.085 SA
ATOM     23  C   UNL d   1      54.895  33.317  54.713  0.00  0.00     0.035 A 
ATOM     24  C   UNL d   1      54.305  33.222  55.291  0.00  0.00     0.007 A 
ATOM     25  C   UNL d   1      53.682  32.807  54.945  0.00  0.00     0.009 A 
ENDBRANCH   5  21
BRANCH   1  26
ATOM     26  C   UNL d   1      53.518  30.637  53.764  0.00  0.00     0.179 A 
ATOM     27  N   UNL d   1      54.070  30.135  53.406  0.00  0.00    -0.108 NA
ATOM     28  O   UNL d   1      54.062  29.407  53.807  0.00  0.00    -0.210 OA
ATOM     29  C   UNL d   1      53.498  29.460  54.422  0.00  0.00     0.128 A 
ATOM     30  C   UNL d   1      53.164  30.214  54.396  0.00  0.00     0.067 A 
ATOM     31  C   UNL d   1      53.313  28.861  54.956  0.00  0.00     0.029 C 
ENDBRANCH   1  26
TORSDOF 5
ENDMDL
MODEL 2
REMARK VINA RESULT:      -8.4      1.752      4.722
REMARK  5 active torsions:
REMARK  status: ('A' for Active; 'I' for Inactive)
REMARK    1  A    between atoms: C_4  and  N_1 
REMARK    2  A    between atoms: C_9  and  C_2 
REMARK    3  A    between atoms: C_14  and  C_6 
REMARK    4  A    between atoms: C_7  and  C_9 
REMARK    5  A    between atoms: O_26  and  C_22 
ROOT
ATOM      1  N   UNL d   1      53.088  33.889  54.016  0.00  0.00    -0.254 N 
ATOM      2  C   UNL d   1      53.198  32.750  53.321  0.00  0.00     0.101 A 
ATOM      3  C   UNL d   1      53.864  33.617  54.094  0.00  0.00     0.305 A 
ATOM      4  C   UNL d   1      53.936  32.912  53.665  0.00  0.00     0.256 A 
ATOM      5  C   UNL d   1      52.675  33.352  53.538  0.00  0.00     0.081 A 
ATOM      6  O   UNL d   1      54.471  33.979  54.523  0.00  0.00    -0.263 OA
ATOM      7  O   UNL d   1      54.624  32.453  53.593  0.00  0.00    -0.281 OA
ENDROOT
BRANCH   2   8
ATOM      8  C   UNL d   1      53.021  32.097  52.844  0.00  0.00     0.223 C 
ATOM      9  O   UNL d   1      52.818  32.206  52.057  0.00  0.00    -0.284 OA
BRANCH   8  10
ATOM     10  C   UNL d   1      53.048  31.334  53.160  0.00  0.00     0.139 A 
ATOM     11  O   UNL d   1      53.126  31.145  53.960  0.00  0.00    -0.302 OA
ATOM     12  C   UNL d   1      53.129  30.319  54.025  0.00  0.00     0.122 A 
ATOM     13  C   UNL d   1      53.191  29.820  54.676  0.00  0.00     0.117 A 
ATOM     14  C   UNL d   1      53.052  30.003  53.269  0.00  0.00     0.027 A 
ATOM     15  C   UNL d   1      53.176  29.005  54.570  0.00  0.00     0.026 A 
ATOM     16  C   UNL d   1      53.099  28.686  53.806  0.00  0.00     0.002 A 
ATOM     17  C   UNL d   1      53.038  29.187  53.160  0.00  0.00     0.002 A 
ATOM     18  C   UNL d   1      53.003  30.629  52.735  0.00  0.00     0.030 A 
BRANCH  13  19
ATOM     19  O   UNL d   1      53.267  30.136  55.432  0.00  0.00    -0.326 OA
ATOM     20  C   UNL d   1      53.315  29.632  56.092  0.00  0.00     0.181 C 
ENDBRANCH  13  19
ENDBRANCH   8  10
ENDBRANCH   2   8
BRANCH   5  21
ATOM     21  C   UNL d   1      51.885  33.405  53.315  0.00  0.00     0.046 A 
ATOM     22  S   UNL d   1      51.601  33.765  52.627  0.00  0.00    -0.085 SA
ATOM     23  C   UNL d   1      50.778  33.694  52.619  0.00  0.00     0.035 A 
ATOM     24  C   UNL d   1      50.552  33.287  53.307  0.00  0.00     0.007 A 
ATOM     25  C   UNL d   1      51.238  33.112  53.730  0.00  0.00     0.009 A 
ENDBRANCH   5  21
BRANCH   1  26
ATOM     26  C   UNL d   1      53.148  34.576  54.477  0.00  0.00     0.179 A 
ATOM     27  N   UNL d   1      53.203  34.614  55.301  0.00  0.00    -0.108 NA
ATOM     28  O   UNL d   1      53.251  35.413  55.524  0.00  0.00    -0.210 OA
ATOM     29  C   UNL d   1      53.226  35.875  54.828  0.00  0.00     0.128 A 
ATOM     30  C   UNL d   1      53.163  35.362  54.186  0.00  0.00     0.067 A 
ATOM     31  C   UNL d   1      53.260  36.698  54.796  0.00  0.00     0.029 C 
ENDBRANCH   1  26
TORSDOF 5
ENDMDL
MODEL 3
REMARK VINA RESULT:      -7.4      1.899      3.061
REMARK  5 active torsions:
REMARK  status: ('A' for Active; 'I' for Inactive)
REMARK    1  A    between atoms: C_4  and  N_1 
REMARK    2  A    between atoms: C_9  and  C_2 
REMARK    3  A    between atoms: C_14  and  C_6 
REMARK    4  A    between atoms: C_7  and  C_9 
REMARK    5  A    between atoms: O_26  and  C_22 
ROOT
ATOM      1  N   UNL d   1      52.916  33.905  53.869  0.00  0.00    -0.254 N 
ATOM      2  C   UNL d   1      52.147  34.104  52.792  0.00  0.00     0.101 A 
ATOM      3  C   UNL d   1      52.891  34.717  53.721  0.00  0.00     0.305 A 
ATOM      4  C   UNL d   1      52.416  34.845  53.055  0.00  0.00     0.256 A 
ATOM      5  C   UNL d   1      52.455  33.525  53.294  0.00  0.00     0.081 A 
ATOM      6  O   UNL d   1      53.271  35.308  54.156  0.00  0.00    -0.263 OA
ATOM      7  O   UNL d   1      52.241  35.581  52.713  0.00  0.00    -0.281 OA
ENDROOT
BRANCH   2   8
ATOM      8  C   UNL d   1      51.655  33.973  52.139  0.00  0.00     0.223 C 
ATOM      9  O   UNL d   1      51.939  33.570  51.484  0.00  0.00    -0.284 OA
BRANCH   8  10
ATOM     10  C   UNL d   1      50.876  34.249  52.146  0.00  0.00     0.139 A 
ATOM     11  O   UNL d   1      50.507  34.640  52.772  0.00  0.00    -0.302 OA
ATOM     12  C   UNL d   1      49.731  34.815  52.540  0.00  0.00     0.122 A 
ATOM     13  C   UNL d   1      49.114  35.194  52.929  0.00  0.00     0.117 A 
ATOM     14  C   UNL d   1      49.626  34.533  51.774  0.00  0.00     0.027 A 
ATOM     15  C   UNL d   1      48.390  35.291  52.552  0.00  0.00     0.026 A 
ATOM     16  C   UNL d   1      48.282  35.006  51.778  0.00  0.00     0.002 A 
ATOM     17  C   UNL d   1      48.901  34.628  51.394  0.00  0.00     0.002 A 
ATOM     18  C   UNL d   1      50.331  34.183  51.530  0.00  0.00     0.030 A 
BRANCH  13  19
ATOM     19  O   UNL d   1      49.221  35.477  53.695  0.00  0.00    -0.326 OA
ATOM     20  C   UNL d   1      48.625  35.927  54.060  0.00  0.00     0.181 C 
ENDBRANCH  13  19
ENDBRANCH   8  10
ENDBRANCH   2   8
BRANCH   5  21
ATOM     21  C   UNL d   1      52.325  32.716  53.231  0.00  0.00     0.046 A 
ATOM     22  S   UNL d   1      52.802  32.181  52.818  0.00  0.00    -0.085 SA
ATOM     23  C   UNL d   1      52.473  31.427  52.895  0.00  0.00     0.035 A 
ATOM     24  C   UNL d   1      51.787  31.496  53.359  0.00  0.00     0.007 A 
ATOM     25  C   UNL d   1      51.702  32.291  53.562  0.00  0.00     0.009 A 
ENDBRANCH   5  21
BRANCH   1  26
ATOM     26  C   UNL d   1      53.407  33.914  54.538  0.00  0.00     0.179 A 
ATOM     27  N   UNL d   1      53.187  34.115  55.309  0.00  0.00    -0.108 NA
ATOM     28  O   UNL d   1      53.854  34.046  55.799  0.00  0.00    -0.210 OA
ATOM     29  C   UNL d   1      54.496  33.798  55.324  0.00  0.00     0.128 A 
ATOM     30  C   UNL d   1      54.222  33.717  54.551  0.00  0.00     0.067 A 
ATOM     31  C   UNL d   1      55.264  33.661  55.589  0.00  0.00     0.029 C 
ENDBRANCH   1  26
TORSDOF 5
ENDMDL
MODEL 4
REMARK VINA RESULT:      -6.8      1.261      4.544
REMARK  5 active torsions:
REMARK  status: ('A' for Active; 'I' for Inactive)
REMARK    1  A    between atoms: C_4  and  N_1 
REMARK    2  A    between atoms: C_9  and  C_2 
REMARK    3  A    between atoms: C_14  and  C_6 
REMARK    4  A    between atoms: C_7  and  C_9 
REMARK    5  A    between atoms: O_26  and  C_22 
ROOT
ATOM      1  N   UNL d   1      52.506  33.319  53.290  0.00  0.00    -0.254 N 
ATOM      2  C   UNL d   1      53.312  32.251  53.252  0.00  0.00     0.101 A 
ATOM      3  C   UNL d   1      52.224  32.808  52.706  0.00  0.00     0.305 A 
ATOM      4  C   UNL d   1      52.721  32.146  52.679  0.00  0.00     0.256 A 
ATOM      5  C   UNL d   1      53.180  32.974  53.629  0.00  0.00     0.081 A 
ATOM      6  O   UNL d   1      51.562  32.929  52.226  0.00  0.00    -0.263 OA
ATOM      7  O   UNL d   1      52.639  31.495  52.169  0.00  0.00    -0.281 OA
ENDROOT
BRANCH   2   8
ATOM      8  C   UNL d   1      53.926  31.720  53.414  0.00  0.00     0.223 C 
ATOM      9  O   UNL d   1      54.705  31.939  53.277  0.00  0.00    -0.284 OA
BRANCH   8  10
ATOM     10  C   UNL d   1      53.757  30.969  53.714  0.00  0.00     0.139 A 
ATOM     11  O   UNL d   1      53.637  30.783  54.509  0.00  0.00    -0.302 OA
ATOM     12  C   UNL d   1      53.483  29.970  54.558  0.00  0.00     0.122 A 
ATOM     13  C   UNL d   1      53.324  29.479  55.197  0.00  0.00     0.117 A 
ATOM     14  C   UNL d   1      53.509  29.660  53.796  0.00  0.00     0.027 A 
ATOM     15  C   UNL d   1      53.191  28.677  55.076  0.00  0.00     0.026 A 
ATOM     16  C   UNL d   1      53.217  28.363  54.306  0.00  0.00     0.002 A 
ATOM     17  C   UNL d   1      53.376  28.857  53.671  0.00  0.00     0.002 A 
ATOM     18  C   UNL d   1      53.678  30.276  53.275  0.00  0.00     0.030 A 
BRANCH  13  19
ATOM     19  O   UNL d   1      53.298  29.789  55.960  0.00  0.00    -0.326 OA
ATOM     20  C   UNL d   1      53.316  29.282  56.618  0.00  0.00     0.181 C 
ENDBRANCH  13  19
ENDBRANCH   8  10
ENDBRANCH   2   8
BRANCH   5  21
ATOM     21  C   UNL d   1      53.639  33.291  54.233  0.00  0.00     0.046 A 
ATOM     22  S   UNL d   1      54.340  33.718  54.134  0.00  0.00    -0.085 SA
ATOM     23  C   UNL d   1      54.621  33.933  54.880  0.00  0.00     0.035 A 
ATOM     24  C   UNL d   1      54.088  33.638  55.446  0.00  0.00     0.007 A 
ATOM     25  C   UNL d   1      53.487  33.245  55.041  0.00  0.00     0.009 A 
ENDBRANCH   5  21
BRANCH   1  26
ATOM     26  C   UNL d   1      51.940  33.920  53.217  0.00  0.00     0.179 A 
ATOM     27  N   UNL d   1      52.036  34.643  52.827  0.00  0.00    -0.108 NA
ATOM     28  O   UNL d   1      51.328  35.073  52.893  0.00  0.00    -0.210 OA
ATOM     29  C   UNL d   1      50.786  34.610  53.330  0.00  0.00     0.128 A 
ATOM     30  C   UNL d   1      51.162  33.903  53.528  0.00  0.00     0.067 A 
ATOM     31  C   UNL d   1      50.016  34.826  53.524  0.00  0.00     0.029 C 
ENDBRANCH   1  26
TORSDOF 5
ENDMDL
MODEL 5
REMARK VINA RESULT:      -6.0      1.482      2.389
REMARK  5 active torsions:
REMARK  status: ('A' for Active; 'I' for Inactive)
REMARK    1  A    between atoms: C_4  and  N_1 
REMARK    2  A    between atoms: C_9  and  C_2 
REMARK    3  A    between atoms: C_14  and  C_6 
REMARK    4  A    between atoms: C_7  and  C_9 
REMARK    5  A    between atoms: O_26  and  C_22 
ROOT
ATOM      1  N   UNL d   1      52.162  32.806  53.240  0.00  0.00    -0.254 N 
ATOM      2  C   UNL d   1      51.155  33.686  53.308  0.00  0.00     0.101 A 
ATOM      3  C   UNL d   1      51.454  32.382  53.246  0.00  0.00     0.305 A 
ATOM      4  C   UNL d   1      50.828  32.923  53.288  0.00  0.00     0.256 A 
ATOM      5  C   UNL d   1      51.978  33.614  53.278  0.00  0.00     0.081 A 
ATOM      6  O   UNL d   1      51.374  31.560  53.216  0.00  0.00    -0.263 OA
ATOM      7  O   UNL d   1      50.020  32.733  53.308  0.00  0.00    -0.281 OA
ENDROOT
BRANCH   2   8
ATOM      8  C   UNL d   1      50.727  34.393  53.350  0.00  0.00     0.223 C 
ATOM      9  O   UNL d   1      50.883  34.932  53.949  0.00  0.00    -0.284 OA
BRANCH   8  10
ATOM     10  C   UNL d   1      50.142  34.558  52.790  0.00  0.00     0.139 A 
ATOM     11  O   UNL d   1      49.444  34.974  52.929  0.00  0.00    -0.302 OA
ATOM     12  C   UNL d   1      49.024  35.008  52.216  0.00  0.00     0.122 A 
ATOM     13  C   UNL d   1      48.301  35.347  52.022  0.00  0.00     0.117 A 
ATOM     14  C   UNL d   1      49.463  34.614  51.643  0.00  0.00     0.027 A 
ATOM     15  C   UNL d   1      48.016  35.293  51.253  0.00  0.00     0.026 A 
ATOM     16  C   UNL d   1      48.459  34.894  50.672  0.00  0.00     0.002 A 
ATOM     17  C   UNL d   1      49.180  34.558  50.871  0.00  0.00     0.002 A 
ATOM     18  C   UNL d   1      50.153  34.336  51.996  0.00  0.00     0.030 A 
BRANCH  13  19
ATOM     19  O   UNL d   1      47.861  35.742  52.596  0.00  0.00    -0.326 OA
ATOM     20  C   UNL d   1      47.115  36.056  52.408  0.00  0.00     0.181 C 
ENDBRANCH  13  19
ENDBRANCH   8  10
ENDBRANCH   2   8
BRANCH   5  21
ATOM     21  C   UNL d   1      52.514  34.237  53.285  0.00  0.00     0.046 A 
ATOM     22  S   UNL d   1      52.829  34.595  53.961  0.00  0.00    -0.085 SA
ATOM     23  C   UNL d   1      53.343  35.195  53.720  0.00  0.00     0.035 A 
ATOM     24  C   UNL d   1      53.347  35.208  52.889  0.00  0.00     0.007 A 
ATOM     25  C   UNL d   1      52.835  34.616  52.629  0.00  0.00     0.009 A 
ENDBRANCH   5  21
BRANCH   1  26
ATOM     26  C   UNL d   1      52.692  32.169  53.197  0.00  0.00     0.179 A 
ATOM     27  N   UNL d   1      52.933  31.773  52.512  0.00  0.00    -0.108 NA
ATOM     28  O   UNL d   1      53.465  31.174  52.729  0.00  0.00    -0.210 OA
ATOM     29  C   UNL d   1      53.555  31.199  53.559  0.00  0.00     0.128 A 
ATOM     30  C   UNL d   1      53.081  31.810  53.846  0.00  0.00     0.067 A 
ATOM     31  C   UNL d   1      54.034  30.700  54.006  0.00  0.00     0.029 C 
ENDBRANCH   1  26
TORSDOF 5
ENDMDL
