MODEL 1
REMARK VINA RESULT:      -3.1      0.000      0.000
REMARK  1 active torsions:
REMARK  status: ('A' for Active; 'I' for Inactive)
REMARK       I    between atoms: C_2  and  N_1 
REMARK    1  A    between atoms: C_4  and  C_2 
ROOT
ATOM      1  N   UNL d   1      30.654  16.729 -24.107  0.00  0.00    -0.272 N 
ATOM      2  C   UNL d   1      30.329  16.085 -23.701  0.00  0.00     0.287 C 
ATOM      3  C   UNL d   1      31.420  17.027 -24.023  0.00  0.00     0.067 A 
ATOM      4  C   UNL d   1      30.258  17.170 -24.657  0.00  0.00     0.083 A 
ATOM      5  O   UNL d   1      30.786  15.674 -23.149  0.00  0.00    -0.264 OA
ATOM      6  C   UNL d   1      31.505  17.664 -24.529  0.00  0.00     0.018 A 
ATOM      7  C   UNL d   1      30.786  17.761 -24.928  0.00  0.00     0.021 A 
ATOM      8  C   UNL d   1      32.047  16.801 -23.554  0.00  0.00     0.018 A 
ATOM      9  C   UNL d   1      32.214  18.082 -24.572  0.00  0.00     0.002 A 
ATOM     10  C   UNL d   1      32.764  17.209 -23.586  0.00  0.00     0.002 A 
ATOM     11  C   UNL d   1      32.845  17.849 -24.096  0.00  0.00     0.000 A 
ENDROOT
BRANCH   2  12
ATOM     12  C   UNL d   1      29.547  15.853 -23.848  0.00  0.00     0.156 A 
ATOM     13  O   UNL d   1      29.148  15.618 -24.535  0.00  0.00    -0.300 OA
ATOM     14  C   UNL d   1      28.373  15.453 -24.334  0.00  0.00     0.123 A 
ATOM     15  C   UNL d   1      28.277  15.580 -23.534  0.00  0.00     0.029 A 
ATOM     16  C   UNL d   1      28.998  15.828 -23.225  0.00  0.00     0.032 A 
ENDBRANCH   2  12
TORSDOF 1
ENDMDL
MODEL 2
REMARK VINA RESULT:      -2.9      1.271      3.373
REMARK  1 active torsions:
REMARK  status: ('A' for Active; 'I' for Inactive)
REMARK       I    between atoms: C_2  and  N_1 
REMARK    1  A    between atoms: C_4  and  C_2 
ROOT
ATOM      1  N   UNL d   1      31.337  17.221 -24.058  0.00  0.00    -0.272 N 
ATOM      2  C   UNL d   1      32.106  17.344 -23.780  0.00  0.00     0.287 C 
ATOM      3  C   UNL d   1      30.825  16.611 -23.836  0.00  0.00     0.067 A 
ATOM      4  C   UNL d   1      30.966  17.691 -24.601  0.00  0.00     0.083 A 
ATOM      5  O   UNL d   1      32.429  16.826 -23.223  0.00  0.00    -0.264 OA
ATOM      6  C   UNL d   1      30.124  16.702 -24.247  0.00  0.00     0.018 A 
ATOM      7  C   UNL d   1      30.202  17.373 -24.726  0.00  0.00     0.021 A 
ATOM      8  C   UNL d   1      30.907  15.989 -23.316  0.00  0.00     0.018 A 
ATOM      9  C   UNL d   1      29.498  16.175 -24.144  0.00  0.00     0.002 A 
ATOM     10  C   UNL d   1      30.290  15.453 -23.202  0.00  0.00     0.002 A 
ATOM     11  C   UNL d   1      29.587  15.548 -23.617  0.00  0.00     0.000 A 
ENDROOT
BRANCH   2  12
ATOM     12  C   UNL d   1      32.552  17.984 -24.058  0.00  0.00     0.156 A 
ATOM     13  O   UNL d   1      32.823  18.198 -24.811  0.00  0.00    -0.300 OA
ATOM     14  C   UNL d   1      33.241  18.898 -24.741  0.00  0.00     0.123 A 
ATOM     15  C   UNL d   1      33.237  19.127 -23.958  0.00  0.00     0.029 A 
ATOM     16  C   UNL d   1      32.813  18.568 -23.528  0.00  0.00     0.032 A 
ENDBRANCH   2  12
TORSDOF 1
ENDMDL
MODEL 3
REMARK VINA RESULT:      -2.8      5.026      6.418
REMARK  1 active torsions:
REMARK  status: ('A' for Active; 'I' for Inactive)
REMARK       I    between atoms: C_2  and  N_1 
REMARK    1  A    between atoms: C_4  and  C_2 
ROOT
ATOM      1  N   UNL d   1      32.936  21.283 -21.723  0.00  0.00    -0.272 N 
ATOM      2  C   UNL d   1      32.900  22.090 -21.904  0.00  0.00     0.287 C 
ATOM      3  C   UNL d   1      33.044  20.663 -22.259  0.00  0.00     0.067 A 
ATOM      4  C   UNL d   1      32.869  20.978 -20.978  0.00  0.00     0.083 A 
ATOM      5  O   UNL d   1      32.975  22.339 -22.688  0.00  0.00    -0.264 OA
ATOM      6  C   UNL d   1      33.045  19.960 -21.842  0.00  0.00     0.018 A 
ATOM      7  C   UNL d   1      32.937  20.146 -21.042  0.00  0.00     0.021 A 
ATOM      8  C   UNL d   1      33.142  20.650 -23.069  0.00  0.00     0.018 A 
ATOM      9  C   UNL d   1      33.143  19.237 -22.227  0.00  0.00     0.002 A 
ATOM     10  C   UNL d   1      33.241  19.935 -23.468  0.00  0.00     0.002 A 
ATOM     11  C   UNL d   1      33.241  19.229 -23.045  0.00  0.00     0.000 A 
ENDROOT
BRANCH   2  12
ATOM     12  C   UNL d   1      32.788  22.647 -21.301  0.00  0.00     0.156 A 
ATOM     13  O   UNL d   1      33.215  22.828 -20.615  0.00  0.00    -0.300 OA
ATOM     14  C   UNL d   1      32.831  23.438 -20.230  0.00  0.00     0.123 A 
ATOM     15  C   UNL d   1      32.169  23.643 -20.661  0.00  0.00     0.029 A 
ATOM     16  C   UNL d   1      32.135  23.159 -21.325  0.00  0.00     0.032 A 
ENDBRANCH   2  12
TORSDOF 1
ENDMDL
MODEL 4
REMARK VINA RESULT:      -2.7      5.364      6.464
REMARK  1 active torsions:
REMARK  status: ('A' for Active; 'I' for Inactive)
REMARK       I    between atoms: C_2  and  N_1 
REMARK    1  A    between atoms: C_4  and  C_2 
ROOT
ATOM      1  N   UNL d   1      32.907  21.739 -21.279  0.00  0.00    -0.272 N 
ATOM      2  C   UNL d   1      33.096  20.936 -21.216  0.00  0.00     0.287 C 
ATOM      3  C   UNL d   1      32.842  22.280 -20.657  0.00  0.00     0.067 A 
ATOM      4  C   UNL d   1      32.756  22.120 -21.976  0.00  0.00     0.083 A 
ATOM      5  O   UNL d   1      33.240  20.606 -20.473  0.00  0.00    -0.264 OA
ATOM      6  C   UNL d   1      32.647  23.010 -20.971  0.00  0.00     0.018 A 
ATOM      7  C   UNL d   1      32.591  22.920 -21.792  0.00  0.00     0.021 A 
ATOM      8  C   UNL d   1      32.935  22.201 -19.851  0.00  0.00     0.018 A 
ATOM      9  C   UNL d   1      32.542  23.668 -20.484  0.00  0.00     0.002 A 
ATOM     10  C   UNL d   1      32.834  22.850 -19.352  0.00  0.00     0.002 A 
ATOM     11  C   UNL d   1      32.638  23.582 -19.671  0.00  0.00     0.000 A 
ENDROOT
BRANCH   2  12
ATOM     12  C   UNL d   1      33.140  20.465 -21.895  0.00  0.00     0.156 A 
ATOM     13  O   UNL d   1      33.228  20.642 -22.700  0.00  0.00    -0.300 OA
ATOM     14  C   UNL d   1      33.235  19.938 -23.116  0.00  0.00     0.123 A 
ATOM     15  C   UNL d   1      33.153  19.321 -22.587  0.00  0.00     0.029 A 
ATOM     16  C   UNL d   1      33.093  19.638 -21.830  0.00  0.00     0.032 A 
ENDBRANCH   2  12
TORSDOF 1
ENDMDL
MODEL 5
REMARK VINA RESULT:      -2.6      1.112      1.473
REMARK  1 active torsions:
REMARK  status: ('A' for Active; 'I' for Inactive)
REMARK       I    between atoms: C_2  and  N_1 
REMARK    1  A    between atoms: C_4  and  C_2 
ROOT
ATOM      1  N   UNL d   1      31.020  16.788 -23.949  0.00  0.00    -0.272 N 
ATOM      2  C   UNL d   1      30.267  16.447 -23.987  0.00  0.00     0.287 C 
ATOM      3  C   UNL d   1      31.713  16.423 -23.688  0.00  0.00     0.067 A 
ATOM      4  C   UNL d   1      31.189  17.548 -24.168  0.00  0.00     0.083 A 
ATOM      5  O   UNL d   1      30.160  15.663 -23.748  0.00  0.00    -0.264 OA
ATOM      6  C   UNL d   1      32.325  16.963 -23.745  0.00  0.00     0.018 A 
ATOM      7  C   UNL d   1      32.008  17.667 -24.043  0.00  0.00     0.021 A 
ATOM      8  C   UNL d   1      31.865  15.672 -23.409  0.00  0.00     0.018 A 
ATOM      9  C   UNL d   1      33.093  16.760 -23.523  0.00  0.00     0.002 A 
ATOM     10  C   UNL d   1      32.628  15.455 -23.183  0.00  0.00     0.002 A 
ATOM     11  C   UNL d   1      33.241  16.000 -23.241  0.00  0.00     0.000 A 
ENDROOT
BRANCH   2  12
ATOM     12  C   UNL d   1      29.623  16.889 -24.263  0.00  0.00     0.156 A 
ATOM     13  O   UNL d   1      29.498  17.335 -24.949  0.00  0.00    -0.300 OA
ATOM     14  C   UNL d   1      28.744  17.649 -24.915  0.00  0.00     0.123 A 
ATOM     15  C   UNL d   1      28.392  17.407 -24.219  0.00  0.00     0.029 A 
ATOM     16  C   UNL d   1      28.929  16.937 -23.810  0.00  0.00     0.032 A 
ENDBRANCH   2  12
TORSDOF 1
ENDMDL
MODEL 6
REMARK VINA RESULT:      -2.4      3.660      4.996
REMARK  1 active torsions:
REMARK  status: ('A' for Active; 'I' for Inactive)
REMARK       I    between atoms: C_2  and  N_1 
REMARK    1  A    between atoms: C_4  and  C_2 
ROOT
ATOM      1  N   UNL d   1      33.033  19.852 -22.710  0.00  0.00    -0.272 N 
ATOM      2  C   UNL d   1      32.957  20.085 -21.920  0.00  0.00     0.287 C 
ATOM      3  C   UNL d   1      33.096  19.078 -22.991  0.00  0.00     0.067 A 
ATOM      4  C   UNL d   1      33.058  20.363 -23.337  0.00  0.00     0.083 A 
ATOM      5  O   UNL d   1      32.938  19.513 -21.324  0.00  0.00    -0.264 OA
ATOM      6  C   UNL d   1      33.161  19.105 -23.806  0.00  0.00     0.018 A 
ATOM      7  C   UNL d   1      33.138  19.901 -24.031  0.00  0.00     0.021 A 
ATOM      8  C   UNL d   1      33.102  18.356 -22.612  0.00  0.00     0.018 A 
ATOM      9  C   UNL d   1      33.233  18.414 -24.251  0.00  0.00     0.002 A 
ATOM     10  C   UNL d   1      33.174  17.656 -23.043  0.00  0.00     0.002 A 
ATOM     11  C   UNL d   1      33.238  17.687 -23.862  0.00  0.00     0.000 A 
ENDROOT
BRANCH   2  12
ATOM     12  C   UNL d   1      32.900  20.888 -21.726  0.00  0.00     0.156 A 
ATOM     13  O   UNL d   1      33.239  21.572 -22.049  0.00  0.00    -0.300 OA
ATOM     14  C   UNL d   1      32.974  22.214 -21.619  0.00  0.00     0.123 A 
ATOM     15  C   UNL d   1      32.475  21.947 -21.031  0.00  0.00     0.029 A 
ATOM     16  C   UNL d   1      32.424  21.128 -21.090  0.00  0.00     0.032 A 
ENDBRANCH   2  12
TORSDOF 1
ENDMDL
MODEL 7
REMARK VINA RESULT:      -2.3      4.495      5.772
REMARK  1 active torsions:
REMARK  status: ('A' for Active; 'I' for Inactive)
REMARK       I    between atoms: C_2  and  N_1 
REMARK    1  A    between atoms: C_4  and  C_2 
ROOT
ATOM      1  N   UNL d   1      33.097  20.780 -21.607  0.00  0.00    -0.272 N 
ATOM      2  C   UNL d   1      33.167  20.436 -22.356  0.00  0.00     0.287 C 
ATOM      3  C   UNL d   1      33.064  21.589 -21.437  0.00  0.00     0.067 A 
ATOM      4  C   UNL d   1      33.050  20.365 -20.915  0.00  0.00     0.083 A 
ATOM      5  O   UNL d   1      33.211  20.918 -23.026  0.00  0.00    -0.264 OA
ATOM      6  C   UNL d   1      32.996  21.679 -20.628  0.00  0.00     0.018 A 
ATOM      7  C   UNL d   1      32.986  20.922 -20.293  0.00  0.00     0.021 A 
ATOM      8  C   UNL d   1      33.088  22.250 -21.914  0.00  0.00     0.018 A 
ATOM      9  C   UNL d   1      32.950  22.428 -20.285  0.00  0.00     0.002 A 
ATOM     10  C   UNL d   1      33.043  23.005 -21.587  0.00  0.00     0.002 A 
ATOM     11  C   UNL d   1      32.974  23.092 -20.772  0.00  0.00     0.000 A 
ENDROOT
BRANCH   2  12
ATOM     12  C   UNL d   1      33.193  19.612 -22.435  0.00  0.00     0.156 A 
ATOM     13  O   UNL d   1      33.226  18.994 -21.884  0.00  0.00    -0.300 OA
ATOM     14  C   UNL d   1      33.241  18.288 -22.296  0.00  0.00     0.123 A 
ATOM     15  C   UNL d   1      33.217  18.451 -23.095  0.00  0.00     0.029 A 
ATOM     16  C   UNL d   1      33.187  19.268 -23.190  0.00  0.00     0.032 A 
ENDBRANCH   2  12
TORSDOF 1
ENDMDL
MODEL 8
REMARK VINA RESULT:      -2.1      0.984      3.247
REMARK  1 active torsions:
REMARK  status: ('A' for Active; 'I' for Inactive)
REMARK       I    between atoms: C_2  and  N_1 
REMARK    1  A    between atoms: C_4  and  C_2 
ROOT
ATOM      1  N   UNL d   1      30.369  16.963 -24.156  0.00  0.00    -0.272 N 
ATOM      2  C   UNL d   1      31.173  16.935 -23.963  0.00  0.00     0.287 C 
ATOM      3  C   UNL d   1      29.774  16.471 -23.860  0.00  0.00     0.067 A 
ATOM      4  C   UNL d   1      30.041  17.489 -24.676  0.00  0.00     0.083 A 
ATOM      5  O   UNL d   1      31.446  16.372 -23.424  0.00  0.00    -0.264 OA
ATOM      6  C   UNL d   1      29.064  16.693 -24.200  0.00  0.00     0.018 A 
ATOM      7  C   UNL d   1      29.220  17.327 -24.709  0.00  0.00     0.021 A 
ATOM      8  C   UNL d   1      29.789  15.853 -23.329  0.00  0.00     0.018 A 
ATOM      9  C   UNL d   1      28.362  16.302 -24.013  0.00  0.00     0.002 A 
ATOM     10  C   UNL d   1      29.095  15.452 -23.132  0.00  0.00     0.002 A 
ATOM     11  C   UNL d   1      28.383  15.679 -23.475  0.00  0.00     0.000 A 
ENDROOT
BRANCH   2  12
ATOM     12  C   UNL d   1      31.702  17.470 -24.309  0.00  0.00     0.156 A 
ATOM     13  O   UNL d   1      31.922  17.618 -25.095  0.00  0.00    -0.300 OA
ATOM     14  C   UNL d   1      32.476  18.219 -25.094  0.00  0.00     0.123 A 
ATOM     15  C   UNL d   1      32.609  18.451 -24.323  0.00  0.00     0.029 A 
ATOM     16  C   UNL d   1      32.134  17.993 -23.831  0.00  0.00     0.032 A 
ENDBRANCH   2  12
TORSDOF 1
ENDMDL
MODEL 9
REMARK VINA RESULT:      -1.1      5.560      6.630
REMARK  1 active torsions:
REMARK  status: ('A' for Active; 'I' for Inactive)
REMARK       I    between atoms: C_2  and  N_1 
REMARK    1  A    between atoms: C_4  and  C_2 
ROOT
ATOM      1  N   UNL d   1      32.983  21.917 -22.103  0.00  0.00    -0.272 N 
ATOM      2  C   UNL d   1      33.029  21.835 -22.925  0.00  0.00     0.287 C 
ATOM      3  C   UNL d   1      33.058  21.313 -21.543  0.00  0.00     0.067 A 
ATOM      4  C   UNL d   1      32.856  22.618 -21.719  0.00  0.00     0.083 A 
ATOM      5  O   UNL d   1      33.161  21.090 -23.256  0.00  0.00    -0.264 OA
ATOM      6  C   UNL d   1      32.976  21.642 -20.799  0.00  0.00     0.018 A 
ATOM      7  C   UNL d   1      32.850  22.454 -20.898  0.00  0.00     0.021 A 
ATOM      8  C   UNL d   1      33.188  20.512 -21.616  0.00  0.00     0.018 A 
ATOM      9  C   UNL d   1      33.023  21.175 -20.120  0.00  0.00     0.002 A 
ATOM     10  C   UNL d   1      33.239  20.032 -20.947  0.00  0.00     0.002 A 
ATOM     11  C   UNL d   1      33.156  20.366 -20.200  0.00  0.00     0.000 A 
ENDROOT
BRANCH   2  12
ATOM     12  C   UNL d   1      32.942  22.498 -23.414  0.00  0.00     0.156 A 
ATOM     13  O   UNL d   1      32.639  23.258 -23.286  0.00  0.00    -0.300 OA
ATOM     14  C   UNL d   1      32.700  23.677 -23.985  0.00  0.00     0.123 A 
ATOM     15  C   UNL d   1      33.036  23.194 -24.551  0.00  0.00     0.029 A 
ATOM     16  C   UNL d   1      33.189  22.463 -24.206  0.00  0.00     0.032 A 
ENDBRANCH   2  12
TORSDOF 1
ENDMDL
