MODEL 1
REMARK VINA RESULT:      42.6      0.000      0.000
REMARK  3 active torsions:
REMARK  status: ('A' for Active; 'I' for Inactive)
REMARK    1  A    between atoms: C_12  and  C_3 
REMARK       I    between atoms: C_6  and  N_9 
REMARK    2  A    between atoms: C_7  and  C_6 
REMARK    3  A    between atoms: N_9  and  C_22 
ROOT
ATOM      1  C   UNL d   1      46.081 -18.465  41.641  0.00  0.00     0.019 A 
ATOM      2  C   UNL d   1      45.423 -17.984  41.510  0.00  0.00     0.003 A 
ATOM      3  C   UNL d   1      46.647 -18.560  41.046  0.00  0.00     0.003 A 
ATOM      4  C   UNL d   1      45.896 -17.694  40.193  0.00  0.00     0.085 A 
ATOM      5  C   UNL d   1      46.554 -18.175  40.323  0.00  0.00     0.019 A 
ATOM      6  C   UNL d   1      45.330 -17.598  40.787  0.00  0.00     0.019 A 
ENDROOT
BRANCH   4   7
ATOM      7  N   UNL d   1      45.803 -17.311  39.473  0.00  0.00    -0.208 NA
ATOM      8  C   UNL d   1      45.056 -17.171  39.174  0.00  0.00     0.279 C 
ATOM      9  O   UNL d   1      44.383 -17.418  39.599  0.00  0.00    -0.265 OA
BRANCH   8  10
ATOM     10  C   UNL d   1      44.963 -16.786  38.450  0.00  0.00     0.060 A 
ATOM     11  C   UNL d   1      45.464 -16.169  38.244  0.00  0.00     0.031 A 
ATOM     12  C   UNL d   1      45.371 -15.784  37.520  0.00  0.00     0.119 A 
ATOM     13  O   UNL d   1      45.787 -15.157  37.173  0.00  0.00    -0.300 OA
ATOM     14  C   UNL d   1      44.777 -16.015  37.003  0.00  0.00     0.119 A 
ATOM     15  C   UNL d   1      45.447 -15.001  36.438  0.00  0.00     0.304 A 
ATOM     16  O   UNL d   1      44.820 -15.533  36.330  0.00  0.00    -0.300 OA
ATOM     17  C   UNL d   1      44.271 -16.635  37.208  0.00  0.00     0.026 A 
ATOM     18  C   UNL d   1      44.364 -17.021  37.931  0.00  0.00     0.007 A 
ENDBRANCH   8  10
ENDBRANCH   4   7
BRANCH   1  19
ATOM     19  C   UNL d   1      46.174 -18.850  42.364  0.00  0.00     0.101 A 
ATOM     20  N   UNL d   1      46.110 -19.646  42.529  0.00  0.00    -0.221 NA
ATOM     21  C   UNL d   1      46.254 -19.752  43.342  0.00  0.00     0.179 A 
ATOM     22  N   UNL d   1      46.405 -19.033  43.674  0.00  0.00    -0.282 N 
ATOM     23  S   UNL d   1      46.298 -20.325  43.930  0.00  0.00    -0.048 SA
ATOM     24  C   UNL d   1      46.358 -18.464  43.074  0.00  0.00     0.101 A 
ATOM     25  C   UNL d   1      46.544 -19.154  44.475  0.00  0.00     0.089 A 
ATOM     26  C   UNL d   1      46.480 -19.935  44.632  0.00  0.00     0.057 A 
ENDBRANCH   1  19
TORSDOF 3
ENDMDL
