MODEL 1
REMARK VINA RESULT:      -8.0      0.000      0.000
REMARK  2 active torsions:
REMARK  status: ('A' for Active; 'I' for Inactive)
REMARK    1  A    between atoms: C_4  and  C_1 
REMARK       I    between atoms: N_7  and  C_4 
REMARK    2  A    between atoms: C_17  and  N_8 
ROOT
ATOM      1  C   UNL d   1     -40.168  14.125  18.253  0.00  0.00     0.248 C 
ATOM      2  N   UNL d   1     -39.939  14.321  19.059  0.00  0.00    -0.272 N 
ATOM      3  N   UNL d   1     -39.486  14.711  20.668  0.00  0.00    -0.301 N 
ATOM      4  O   UNL d   1     -40.953  14.029  18.064  0.00  0.00    -0.271 OA
ATOM      5  C   UNL d   1     -40.542  14.415  19.668  0.00  0.00     0.102 A 
ATOM      6  C   UNL d   1     -39.109  14.417  19.238  0.00  0.00     0.102 A 
ATOM      7  C   UNL d   1     -40.320  14.608  20.462  0.00  0.00     0.100 A 
ATOM      8  C   UNL d   1     -38.883  14.616  20.059  0.00  0.00     0.100 A 
ENDROOT
BRANCH   1   9
ATOM      9  C   UNL d   1     -39.605  14.034  17.678  0.00  0.00     0.112 A 
ATOM     10  C   UNL d   1     -38.804  14.385  16.435  0.00  0.00     0.025 A 
ATOM     11  C   UNL d   1     -39.041  13.952  17.097  0.00  0.00     0.074 A 
ATOM     12  C   UNL d   1     -38.197  14.115  15.970  0.00  0.00     0.002 C 
ATOM     13  C   UNL d   1     -39.040  15.078  16.091  0.00  0.00     0.002 C 
ATOM     14  C   UNL d   1     -38.431  13.689  16.622  0.00  0.00     0.012 C 
ATOM     15  C   UNL d   1     -38.804  13.254  17.444  0.00  0.00    -0.023 A 
ATOM     16  C   UNL d   1     -39.527  14.599  17.085  0.00  0.00     0.172 A 
ATOM     17  C   UNL d   1     -39.367  13.340  18.021  0.00  0.00    -0.018 A 
ATOM     18  C   UNL d   1     -40.092  14.685  17.664  0.00  0.00     0.024 A 
ATOM     19  O   UNL d   1     -39.613  15.247  16.606  0.00  0.00    -0.291 OA
ENDBRANCH   1   9
BRANCH   3  20
ATOM     20  C   UNL d   1     -39.254  14.908  21.477  0.00  0.00     0.064 A 
ATOM     21  C   UNL d   1     -39.255  15.725  21.734  0.00  0.00     0.018 A 
ATOM     22  C   UNL d   1     -39.025  15.922  22.537  0.00  0.00     0.002 A 
ATOM     23  C   UNL d   1     -38.792  15.295  23.088  0.00  0.00     0.000 A 
ATOM     24  C   UNL d   1     -38.792  14.473  22.824  0.00  0.00     0.002 A 
ATOM     25  C   UNL d   1     -39.023  14.279  22.019  0.00  0.00     0.018 A 
ENDBRANCH   3  20
TORSDOF 2
ENDMDL
MODEL 2
REMARK VINA RESULT:      -7.9      8.443      9.980
REMARK  2 active torsions:
REMARK  status: ('A' for Active; 'I' for Inactive)
REMARK    1  A    between atoms: C_4  and  C_1 
REMARK       I    between atoms: N_7  and  C_4 
REMARK    2  A    between atoms: C_17  and  N_8 
ROOT
ATOM      1  C   UNL d   1     -48.143  14.205  22.652  0.00  0.00     0.248 C 
ATOM      2  N   UNL d   1     -47.540  13.603  22.774  0.00  0.00    -0.272 N 
ATOM      3  N   UNL d   1     -46.336  12.404  23.017  0.00  0.00    -0.301 N 
ATOM      4  O   UNL d   1     -47.957  14.991  22.742  0.00  0.00    -0.271 OA
ATOM      5  C   UNL d   1     -46.738  13.832  22.991  0.00  0.00     0.102 A 
ATOM      6  C   UNL d   1     -47.755  12.781  22.674  0.00  0.00     0.102 A 
ATOM      7  C   UNL d   1     -46.143  13.243  23.112  0.00  0.00     0.100 A 
ATOM      8  C   UNL d   1     -47.138  12.175  22.800  0.00  0.00     0.100 A 
ENDROOT
BRANCH   1   9
ATOM      9  C   UNL d   1     -48.897  13.993  22.447  0.00  0.00     0.112 A 
ATOM     10  C   UNL d   1     -50.396  13.812  22.619  0.00  0.00     0.025 A 
ATOM     11  C   UNL d   1     -49.659  13.783  22.250  0.00  0.00     0.074 A 
ATOM     12  C   UNL d   1     -51.055  13.541  22.232  0.00  0.00     0.002 C 
ATOM     13  C   UNL d   1     -50.666  14.066  23.338  0.00  0.00     0.002 C 
ATOM     14  C   UNL d   1     -50.328  13.512  21.869  0.00  0.00     0.012 C 
ATOM     15  C   UNL d   1     -49.387  13.528  21.526  0.00  0.00    -0.023 A 
ATOM     16  C   UNL d   1     -49.516  14.109  22.977  0.00  0.00     0.172 A 
ATOM     17  C   UNL d   1     -48.630  13.738  21.726  0.00  0.00    -0.018 A 
ATOM     18  C   UNL d   1     -48.756  14.321  23.178  0.00  0.00     0.024 A 
ATOM     19  O   UNL d   1     -49.968  14.301  23.622  0.00  0.00    -0.291 OA
ENDBRANCH   1   9
BRANCH   3  20
ATOM     20  C   UNL d   1     -45.732  11.798  23.139  0.00  0.00     0.064 A 
ATOM     21  C   UNL d   1     -45.924  11.087  23.576  0.00  0.00     0.018 A 
ATOM     22  C   UNL d   1     -45.325  10.484  23.698  0.00  0.00     0.002 A 
ATOM     23  C   UNL d   1     -44.527  10.594  23.379  0.00  0.00     0.000 A 
ATOM     24  C   UNL d   1     -44.338  11.313  22.939  0.00  0.00     0.002 A 
ATOM     25  C   UNL d   1     -44.941  11.915  22.819  0.00  0.00     0.018 A 
ENDBRANCH   3  20
TORSDOF 2
ENDMDL
MODEL 3
REMARK VINA RESULT:      -7.7      9.409     10.815
REMARK  2 active torsions:
REMARK  status: ('A' for Active; 'I' for Inactive)
REMARK    1  A    between atoms: C_4  and  C_1 
REMARK       I    between atoms: N_7  and  C_4 
REMARK    2  A    between atoms: C_17  and  N_8 
ROOT
ATOM      1  C   UNL d   1     -49.920  12.289  23.084  0.00  0.00     0.248 C 
ATOM      2  N   UNL d   1     -49.075  12.131  23.123  0.00  0.00    -0.272 N 
ATOM      3  N   UNL d   1     -47.391  11.813  23.204  0.00  0.00    -0.301 N 
ATOM      4  O   UNL d   1     -50.436  11.866  23.549  0.00  0.00    -0.271 OA
ATOM      5  C   UNL d   1     -48.774  11.523  23.656  0.00  0.00     0.102 A 
ATOM      6  C   UNL d   1     -48.549  12.587  22.627  0.00  0.00     0.102 A 
ATOM      7  C   UNL d   1     -47.944  11.365  23.697  0.00  0.00     0.100 A 
ATOM      8  C   UNL d   1     -47.692  12.421  22.672  0.00  0.00     0.100 A 
ENDROOT
BRANCH   1   9
ATOM      9  C   UNL d   1     -50.207  12.860  22.585  0.00  0.00     0.112 A 
ATOM     10  C   UNL d   1     -50.835  14.184  22.187  0.00  0.00     0.025 A 
ATOM     11  C   UNL d   1     -50.497  13.438  22.091  0.00  0.00     0.074 A 
ATOM     12  C   UNL d   1     -51.064  14.613  21.538  0.00  0.00     0.002 C 
ATOM     13  C   UNL d   1     -51.019  14.652  22.821  0.00  0.00     0.002 C 
ATOM     14  C   UNL d   1     -50.731  13.878  21.444  0.00  0.00     0.012 C 
ATOM     15  C   UNL d   1     -50.312  12.967  21.453  0.00  0.00    -0.023 A 
ATOM     16  C   UNL d   1     -50.513  13.559  22.891  0.00  0.00     0.172 A 
ATOM     17  C   UNL d   1     -50.025  12.394  21.948  0.00  0.00    -0.018 A 
ATOM     18  C   UNL d   1     -50.224  12.983  23.389  0.00  0.00     0.024 A 
ATOM     19  O   UNL d   1     -50.763  14.156  23.379  0.00  0.00    -0.291 OA
ENDBRANCH   1   9
BRANCH   3  20
ATOM     20  C   UNL d   1     -46.542  11.656  23.242  0.00  0.00     0.064 A 
ATOM     21  C   UNL d   1     -45.991  12.194  22.867  0.00  0.00     0.018 A 
ATOM     22  C   UNL d   1     -45.147  12.038  22.904  0.00  0.00     0.002 A 
ATOM     23  C   UNL d   1     -44.853  11.339  23.320  0.00  0.00     0.000 A 
ATOM     24  C   UNL d   1     -45.412  10.799  23.698  0.00  0.00     0.002 A 
ATOM     25  C   UNL d   1     -46.256  10.957  23.659  0.00  0.00     0.018 A 
ENDBRANCH   3  20
TORSDOF 2
ENDMDL
MODEL 4
REMARK VINA RESULT:      -6.9      1.180      4.652
REMARK  2 active torsions:
REMARK  status: ('A' for Active; 'I' for Inactive)
REMARK    1  A    between atoms: C_4  and  C_1 
REMARK       I    between atoms: N_7  and  C_4 
REMARK    2  A    between atoms: C_17  and  N_8 
ROOT
ATOM      1  C   UNL d   1     -40.365  14.698  20.527  0.00  0.00     0.248 C 
ATOM      2  N   UNL d   1     -40.027  14.642  19.738  0.00  0.00    -0.272 N 
ATOM      3  N   UNL d   1     -39.354  14.528  18.163  0.00  0.00    -0.301 N 
ATOM      4  O   UNL d   1     -41.149  14.520  20.648  0.00  0.00    -0.271 OA
ATOM      5  C   UNL d   1     -40.518  14.396  19.074  0.00  0.00     0.102 A 
ATOM      6  C   UNL d   1     -39.200  14.834  19.631  0.00  0.00     0.102 A 
ATOM      7  C   UNL d   1     -40.188  14.339  18.296  0.00  0.00     0.100 A 
ATOM      8  C   UNL d   1     -38.863  14.774  18.827  0.00  0.00     0.100 A 
ENDROOT
BRANCH   1   9
ATOM      9  C   UNL d   1     -39.907  14.929  21.153  0.00  0.00     0.112 A 
ATOM     10  C   UNL d   1     -39.094  14.771  22.427  0.00  0.00     0.025 A 
ATOM     11  C   UNL d   1     -39.445  15.153  21.786  0.00  0.00     0.074 A 
ATOM     12  C   UNL d   1     -38.658  15.195  22.964  0.00  0.00     0.002 C 
ATOM     13  C   UNL d   1     -39.065  14.007  22.692  0.00  0.00     0.002 C 
ATOM     14  C   UNL d   1     -39.004  15.572  22.331  0.00  0.00     0.012 C 
ATOM     15  C   UNL d   1     -39.475  15.922  21.519  0.00  0.00    -0.023 A 
ATOM     16  C   UNL d   1     -39.649  14.374  21.703  0.00  0.00     0.172 A 
ATOM     17  C   UNL d   1     -39.934  15.695  20.891  0.00  0.00    -0.018 A 
ATOM     18  C   UNL d   1     -40.110  14.147  21.072  0.00  0.00     0.024 A 
ATOM     19  O   UNL d   1     -39.505  13.693  22.118  0.00  0.00    -0.291 OA
ENDBRANCH   1   9
BRANCH   3  20
ATOM     20  C   UNL d   1     -39.012  14.472  17.371  0.00  0.00     0.064 A 
ATOM     21  C   UNL d   1     -39.029  15.152  16.850  0.00  0.00     0.018 A 
ATOM     22  C   UNL d   1     -38.690  15.097  16.063  0.00  0.00     0.002 A 
ATOM     23  C   UNL d   1     -38.331  14.356  15.796  0.00  0.00     0.000 A 
ATOM     24  C   UNL d   1     -38.317  13.672  16.324  0.00  0.00     0.002 A 
ATOM     25  C   UNL d   1     -38.657  13.731  17.112  0.00  0.00     0.018 A 
ENDBRANCH   3  20
TORSDOF 2
ENDMDL
MODEL 5
REMARK VINA RESULT:      -6.9      1.128      1.647
REMARK  2 active torsions:
REMARK  status: ('A' for Active; 'I' for Inactive)
REMARK    1  A    between atoms: C_4  and  C_1 
REMARK       I    between atoms: N_7  and  C_4 
REMARK    2  A    between atoms: C_17  and  N_8 
ROOT
ATOM      1  C   UNL d   1     -39.034  14.055  18.262  0.00  0.00     0.248 C 
ATOM      2  N   UNL d   1     -38.920  14.082  19.115  0.00  0.00    -0.272 N 
ATOM      3  N   UNL d   1     -38.690  14.134  20.815  0.00  0.00    -0.301 N 
ATOM      4  O   UNL d   1     -38.525  13.624  17.797  0.00  0.00    -0.271 OA
ATOM      5  C   UNL d   1     -38.266  13.653  19.477  0.00  0.00     0.102 A 
ATOM      6  C   UNL d   1     -39.466  14.540  19.588  0.00  0.00     0.102 A 
ATOM      7  C   UNL d   1     -38.151  13.677  20.315  0.00  0.00     0.100 A 
ATOM      8  C   UNL d   1     -39.344  14.563  20.453  0.00  0.00     0.100 A 
ENDROOT
BRANCH   1   9
ATOM      9  C   UNL d   1     -39.648  14.456  17.919  0.00  0.00     0.112 A 
ATOM     10  C   UNL d   1     -40.323  15.475  17.017  0.00  0.00     0.025 A 
ATOM     11  C   UNL d   1     -40.259  14.865  17.569  0.00  0.00     0.074 A 
ATOM     12  C   UNL d   1     -41.055  15.747  16.796  0.00  0.00     0.002 C 
ATOM     13  C   UNL d   1     -39.799  15.922  16.592  0.00  0.00     0.002 C 
ATOM     14  C   UNL d   1     -40.991  15.146  17.339  0.00  0.00     0.012 C 
ATOM     15  C   UNL d   1     -40.786  14.416  17.995  0.00  0.00    -0.023 A 
ATOM     16  C   UNL d   1     -39.496  15.052  17.372  0.00  0.00     0.172 A 
ATOM     17  C   UNL d   1     -40.176  14.011  18.342  0.00  0.00    -0.018 A 
ATOM     18  C   UNL d   1     -38.882  14.646  17.720  0.00  0.00     0.024 A 
ATOM     19  O   UNL d   1     -39.143  15.586  16.875  0.00  0.00    -0.291 OA
ENDBRANCH   1   9
BRANCH   3  20
ATOM     20  C   UNL d   1     -38.577  14.163  21.671  0.00  0.00     0.064 A 
ATOM     21  C   UNL d   1     -38.117  14.795  22.020  0.00  0.00     0.018 A 
ATOM     22  C   UNL d   1     -38.004  14.825  22.870  0.00  0.00     0.002 A 
ATOM     23  C   UNL d   1     -38.355  14.215  23.376  0.00  0.00     0.000 A 
ATOM     24  C   UNL d   1     -38.818  13.579  23.020  0.00  0.00     0.002 A 
ATOM     25  C   UNL d   1     -38.929  13.553  22.168  0.00  0.00     0.018 A 
ENDBRANCH   3  20
TORSDOF 2
ENDMDL
