MODEL 1
REMARK VINA RESULT:      13.4      0.000      0.000
REMARK  1 active torsions:
REMARK  status: ('A' for Active; 'I' for Inactive)
REMARK    1  A    between atoms: C_2  and  N_1 
ROOT
ATOM      1  C   UNL d   1     -52.354  24.829  33.553  0.00  0.00     0.129 A 
ATOM      2  C   UNL d   1     -51.604  24.492  33.471  0.00  0.00     0.043 A 
ATOM      3  C   UNL d   1     -50.939  24.980  33.391  0.00  0.00     0.123 A 
ATOM      4  C   UNL d   1     -51.029  25.800  33.394  0.00  0.00     0.224 A 
ATOM      5  C   UNL d   1     -52.438  25.642  33.555  0.00  0.00     0.038 A 
ATOM      6  C   UNL d   1     -51.772  26.130  33.475  0.00  0.00     0.100 A 
ATOM      7  N   UNL d   1     -50.194  24.646  33.309  0.00  0.00    -0.241 NA
ATOM      8  O   UNL d   1     -50.370  26.283  33.314  0.00  0.00    -0.284 OA
ATOM      9 CL   UNL d   1     -51.860  26.946  33.477  0.00  0.00    -0.079 Cl
ATOM     10  C   UNL d   1     -51.518  23.675  33.468  0.00  0.00     0.005 A 
ATOM     11  C   UNL d   1     -50.101  23.823  33.306  0.00  0.00     0.099 A 
ATOM     12  C   UNL d   1     -50.766  23.335  33.386  0.00  0.00     0.021 A 
ENDROOT
BRANCH   1  13
ATOM     13  N   UNL d   1     -53.012  24.346  33.632  0.00  0.00    -0.114 N 
ATOM     14  O   UNL d   1     -52.950  23.618  34.011  0.00  0.00    -0.532 OA
ATOM     15  O   UNL d   1     -53.737  24.588  33.332  0.00  0.00    -0.532 OA
ENDBRANCH   1  13
TORSDOF 1
ENDMDL
MODEL 2
REMARK VINA RESULT:      14.3      1.352      3.017
REMARK  1 active torsions:
REMARK  status: ('A' for Active; 'I' for Inactive)
REMARK    1  A    between atoms: C_2  and  N_1 
ROOT
ATOM      1  C   UNL d   1     -50.413  25.038  33.437  0.00  0.00     0.129 A 
ATOM      2  C   UNL d   1     -51.016  25.600  33.394  0.00  0.00     0.043 A 
ATOM      3  C   UNL d   1     -51.807  25.354  33.350  0.00  0.00     0.123 A 
ATOM      4  C   UNL d   1     -51.986  24.549  33.351  0.00  0.00     0.224 A 
ATOM      5  C   UNL d   1     -50.596  24.241  33.438  0.00  0.00     0.038 A 
ATOM      6  C   UNL d   1     -51.386  23.995  33.394  0.00  0.00     0.100 A 
ATOM      7  N   UNL d   1     -52.408  25.911  33.307  0.00  0.00    -0.241 NA
ATOM      8  O   UNL d   1     -52.769  24.305  33.308  0.00  0.00    -0.284 OA
ATOM      9 CL   UNL d   1     -51.567  23.195  33.395  0.00  0.00    -0.079 Cl
ATOM     10  C   UNL d   1     -50.834  26.401  33.393  0.00  0.00     0.005 A 
ATOM     11  C   UNL d   1     -52.229  26.721  33.306  0.00  0.00     0.099 A 
ATOM     12  C   UNL d   1     -51.439  26.966  33.349  0.00  0.00     0.021 A 
ENDROOT
BRANCH   1  13
ATOM     13  N   UNL d   1     -49.631  25.281  33.481  0.00  0.00    -0.114 N 
ATOM     14  O   UNL d   1     -49.448  26.055  33.695  0.00  0.00    -0.532 OA
ATOM     15  O   UNL d   1     -49.026  24.753  33.310  0.00  0.00    -0.532 OA
ENDBRANCH   1  13
TORSDOF 1
ENDMDL
