MODEL 1
REMARK VINA RESULT:      19.9      0.000      0.000
REMARK  4 active torsions:
REMARK  status: ('A' for Active; 'I' for Inactive)
REMARK    1  A    between atoms: N_7  and  C_1 
REMARK    2  A    between atoms: S_3  and  N_7 
REMARK    3  A    between atoms: N_8  and  S_3 
REMARK    4  A    between atoms: C_12  and  N_5 
ROOT
ATOM      1  C   UNL d   1      45.417 -15.661  44.769  0.00  0.00     0.170 A 
ATOM      2  C   UNL d   1      45.819 -15.036  44.550  0.00  0.00     0.299 A 
ATOM      3  N   UNL d   1      44.586 -14.782  44.589  0.00  0.00    -0.238 N 
ATOM      4  N   UNL d   1      45.255 -14.447  44.430  0.00  0.00    -0.209 N 
ATOM      5  C   UNL d   1      44.688 -15.596  44.816  0.00  0.00     0.105 A 
ATOM      6  O   UNL d   1      46.647 -14.967  44.454  0.00  0.00    -0.263 OA
ATOM      7  C   UNL d   1      43.839 -14.391  44.543  0.00  0.00     0.120 C 
ATOM      8  C   UNL d   1      44.011 -15.801  44.938  0.00  0.00     0.022 C 
ENDROOT
BRANCH   1   9
ATOM      9  N   UNL d   1      45.748 -16.404  44.954  0.00  0.00    -0.137 NA
BRANCH   9  10
ATOM     10  S   UNL d   1      45.866 -16.986  44.356  0.00  0.00     0.351 S 
ATOM     11  O   UNL d   1      45.422 -16.557  43.782  0.00  0.00    -0.180 OA
ATOM     12  O   UNL d   1      46.306 -17.408  44.929  0.00  0.00    -0.180 OA
BRANCH  10  13
ATOM     13  N   UNL d   1      46.036 -17.611  43.835  0.00  0.00    -0.215 N 
ATOM     14  C   UNL d   1      45.922 -17.510  43.006  0.00  0.00     0.093 A 
ATOM     15  C   UNL d   1      46.093 -18.139  42.488  0.00  0.00     0.020 A 
ATOM     16  C   UNL d   1      46.379 -18.869  42.786  0.00  0.00     0.003 A 
ATOM     17  C   UNL d   1      46.492 -18.968  43.607  0.00  0.00     0.020 A 
ATOM     18  C   UNL d   1      46.320 -18.335  44.139  0.00  0.00     0.093 A 
ENDBRANCH  10  13
ENDBRANCH   9  10
ENDBRANCH   1   9
BRANCH   4  19
ATOM     19  C   UNL d   1      45.312 -13.636  44.189  0.00  0.00     0.085 A 
ATOM     20  C   UNL d   1      45.800 -13.135  44.627  0.00  0.00     0.019 A 
ATOM     21  C   UNL d   1      45.861 -12.342  44.398  0.00  0.00     0.002 A 
ATOM     22  C   UNL d   1      45.437 -12.080  43.746  0.00  0.00     0.000 A 
ATOM     23  C   UNL d   1      44.979 -12.596  43.351  0.00  0.00     0.002 A 
ATOM     24  C   UNL d   1      44.924 -13.383  43.586  0.00  0.00     0.019 A 
ENDBRANCH   4  19
TORSDOF 4
ENDMDL
