MODEL 1
REMARK VINA RESULT:      -4.7      0.000      0.000
REMARK  3 active torsions:
REMARK  status: ('A' for Active; 'I' for Inactive)
REMARK    1  A    between atoms: C_13  and  C_5 
REMARK       I    between atoms: C_7  and  N_12 
REMARK    2  A    between atoms: C_10  and  C_7 
REMARK    3  A    between atoms: N_12  and  C_15 
ROOT
ATOM      1  C   UNL d   1     -41.821-122.337 -50.513  0.00  0.00     0.021 A 
ATOM      2  C   UNL d   1     -41.472-122.345 -51.905  0.00  0.00     0.085 A 
ATOM      3  C   UNL d   1     -41.820-122.712 -51.254  0.00  0.00     0.021 A 
ATOM      4  C   UNL d   1     -41.471-121.597 -50.434  0.00  0.00     0.002 A 
ATOM      5  C   UNL d   1     -41.123-121.226 -51.074  0.00  0.00     0.002 A 
ATOM      6  C   UNL d   1     -41.123-121.601 -51.815  0.00  0.00     0.019 A 
ENDROOT
BRANCH   1   7
ATOM      7  C   UNL d   1     -42.173-122.715 -49.869  0.00  0.00     0.102 A 
ATOM      8  N   UNL d   1     -41.717-122.841 -49.185  0.00  0.00    -0.162 NA
ATOM      9  N   UNL d   1     -42.066-123.223 -48.530  0.00  0.00    -0.189 N 
ATOM     10  C   UNL d   1     -42.859-123.473 -48.561  0.00  0.00     0.187 A 
ATOM     11  C   UNL d   1     -41.766-123.420 -47.798  0.00  0.00     0.224 A 
ATOM     12  N   UNL d   1     -43.021-123.816 -47.849  0.00  0.00    -0.127 NA
ATOM     13  C   UNL d   1     -43.298-123.336 -49.259  0.00  0.00     0.042 A 
ATOM     14  N   UNL d   1     -42.353-123.787 -47.373  0.00  0.00    -0.124 NA
ATOM     15  C   UNL d   1     -42.950-122.956 -49.909  0.00  0.00     0.024 A 
ENDBRANCH   1   7
BRANCH   2  16
ATOM     16  N   UNL d   1     -41.471-122.715 -52.637  0.00  0.00    -0.206 NA
ATOM     17  C   UNL d   1     -41.718-122.304 -53.303  0.00  0.00     0.302 C 
ATOM     18  O   UNL d   1     -41.968-121.518 -53.243  0.00  0.00    -0.263 OA
BRANCH  17  19
ATOM     19  C   UNL d   1     -41.717-122.675 -54.037  0.00  0.00     0.158 A 
ATOM     20  O   UNL d   1     -41.575-123.471 -54.180  0.00  0.00    -0.300 OA
ATOM     21  C   UNL d   1     -41.629-123.603 -54.990  0.00  0.00     0.123 A 
ATOM     22  C   UNL d   1     -41.806-122.877 -55.357  0.00  0.00     0.029 A 
ATOM     23  C   UNL d   1     -41.860-122.307 -54.769  0.00  0.00     0.032 A 
ENDBRANCH  17  19
ENDBRANCH   2  16
TORSDOF 3
ENDMDL
