MODEL 1
REMARK VINA RESULT:      52.4      0.000      0.000
REMARK  4 active torsions:
REMARK  status: ('A' for Active; 'I' for Inactive)
REMARK    1  A    between atoms: C_6  and  C_1 
REMARK    2  A    between atoms: C_8  and  N_3 
REMARK    3  A    between atoms: C_9  and  C_6 
REMARK    4  A    between atoms: N_7  and  C_9 
ROOT
ATOM      1  C   UNL d   1     -55.096-101.845 -42.309  0.00  0.00     0.058 A 
ATOM      2  C   UNL d   1     -55.140-101.096 -42.608  0.00  0.00     0.067 A 
ATOM      3  N   UNL d   1     -55.066-101.113 -43.413  0.00  0.00    -0.306 N 
ATOM      4  C   UNL d   1     -54.977-101.885 -43.590  0.00  0.00     0.064 A 
ATOM      5  C   UNL d   1     -54.999-102.339 -42.871  0.00  0.00     0.022 A 
ATOM      6  C   UNL d   1     -55.245-100.420 -42.146  0.00  0.00     0.019 C 
ATOM      7  C   UNL d   1     -54.885-102.164 -44.322  0.00  0.00     0.019 C 
ENDROOT
BRANCH   1   8
ATOM      8  C   UNL d   1     -55.147-102.080 -41.489  0.00  0.00     0.214 C 
ATOM      9  O   UNL d   1     -55.485-102.777 -41.283  0.00  0.00    -0.285 OA
BRANCH   8  10
ATOM     10  C   UNL d   1     -54.843-101.588 -40.842  0.00  0.00     0.123 C 
BRANCH  10  11
ATOM     11  N   UNL d   1     -54.820-101.837 -40.054  0.00  0.00    -0.300 N 
ATOM     12  C   UNL d   1     -54.869-102.621 -39.834  0.00  0.00     0.080 A 
ATOM     13  C   UNL d   1     -54.845-102.879 -39.000  0.00  0.00     0.019 A 
ATOM     14  C   UNL d   1     -54.775-102.344 -38.463  0.00  0.00     0.003 A 
ATOM     15  C   UNL d   1     -54.724-101.531 -38.673  0.00  0.00     0.019 A 
ATOM     16  C   UNL d   1     -54.753-102.608 -37.655  0.00  0.00     0.000 C 
ATOM     17  C   UNL d   1     -54.746-101.276 -39.462  0.00  0.00     0.080 A 
ENDBRANCH  10  11
ENDBRANCH   8  10
ENDBRANCH   1   8
BRANCH   3  18
ATOM     18  C   UNL d   1     -55.067-100.533 -44.013  0.00  0.00     0.064 A 
ATOM     19  C   UNL d   1     -55.388 -99.823 -43.930  0.00  0.00     0.020 A 
ATOM     20  C   UNL d   1     -55.388 -99.218 -44.558  0.00  0.00     0.031 A 
ATOM     21  C   UNL d   1     -55.054 -99.384 -45.243  0.00  0.00     0.140 A 
ATOM     22  C   UNL d   1     -54.713-100.107 -45.364  0.00  0.00     0.031 A 
ATOM     23  F   UNL d   1     -55.052 -98.782 -45.874  0.00  0.00    -0.204 F 
ATOM     24  C   UNL d   1     -54.731-100.665 -44.737  0.00  0.00     0.020 A 
ENDBRANCH   3  18
TORSDOF 4
ENDMDL
