MODEL 1
REMARK VINA RESULT:      19.3      0.000      0.000
REMARK  7 active torsions:
REMARK  status: ('A' for Active; 'I' for Inactive)
REMARK    1  A    between atoms: C_6  and  N_1 
REMARK    2  A    between atoms: C_7  and  C_6 
REMARK    3  A    between atoms: O_10  and  C_7 
REMARK    4  A    between atoms: C_13  and  O_10 
REMARK    5  A    between atoms: C_14  and  C_13 
REMARK    6  A    between atoms: C_16  and  C_14 
REMARK    7  A    between atoms: C_15  and  C_16 
ROOT
ATOM      1  N   UNL d   1      14.401  12.631  -1.531  0.00  0.00    -0.246 N 
ATOM      2  C   UNL d   1      13.958  12.086  -1.085  0.00  0.00     0.378 A 
ATOM      3  O   UNL d   1      13.351  11.790  -1.568  0.00  0.00    -0.258 OA
ATOM      4  C   UNL d   1      14.065  12.670  -2.286  0.00  0.00     0.092 A 
ATOM      5  C   UNL d   1      13.417  12.150  -2.307  0.00  0.00     0.121 A 
ATOM      6  O   UNL d   1      14.106  11.883  -0.301  0.00  0.00    -0.237 OA
ATOM      7  C   UNL d   1      14.265  13.110  -2.958  0.00  0.00     0.020 A 
ATOM      8  C   UNL d   1      12.974  12.079  -3.008  0.00  0.00     0.026 A 
ATOM      9  C   UNL d   1      13.818  13.030  -3.646  0.00  0.00     0.002 A 
ATOM     10  C   UNL d   1      13.176  12.518  -3.671  0.00  0.00     0.002 A 
ENDROOT
BRANCH   1  11
ATOM     11  C   UNL d   1      15.060  13.074  -1.305  0.00  0.00     0.154 C 
BRANCH  11  12
ATOM     12  C   UNL d   1      15.205  13.214  -0.513  0.00  0.00     0.318 C 
ATOM     13  O   UNL d   1      15.438  12.595  -0.019  0.00  0.00    -0.257 OA
BRANCH  12  14
ATOM     14  O   UNL d   1      15.120  13.975  -0.207  0.00  0.00    -0.270 OA
BRANCH  14  15
ATOM     15  C   UNL d   1      15.403  14.722  -0.409  0.00  0.00     0.126 C 
BRANCH  15  16
ATOM     16  C   UNL d   1      15.055  15.397  -0.095  0.00  0.00     0.027 C 
BRANCH  16  17
ATOM     17  C   UNL d   1      15.282  16.146  -0.354  0.00  0.00     0.002 C 
BRANCH  17  18
ATOM     18  C   UNL d   1      15.069  16.409  -1.103  0.00  0.00     0.000 C 
ATOM     19  C   UNL d   1      15.314  17.149  -1.362  0.00  0.00     0.000 C 
ENDBRANCH  17  18
ENDBRANCH  16  17
ENDBRANCH  15  16
ENDBRANCH  14  15
ENDBRANCH  12  14
ENDBRANCH  11  12
ENDBRANCH   1  11
TORSDOF 7
ENDMDL
MODEL 2
REMARK VINA RESULT:      19.7      2.049      3.438
REMARK  7 active torsions:
REMARK  status: ('A' for Active; 'I' for Inactive)
REMARK    1  A    between atoms: C_6  and  N_1 
REMARK    2  A    between atoms: C_7  and  C_6 
REMARK    3  A    between atoms: O_10  and  C_7 
REMARK    4  A    between atoms: C_13  and  O_10 
REMARK    5  A    between atoms: C_14  and  C_13 
REMARK    6  A    between atoms: C_16  and  C_14 
REMARK    7  A    between atoms: C_15  and  C_16 
ROOT
ATOM      1  N   UNL d   1      12.956  12.860  -4.103  0.00  0.00    -0.246 N 
ATOM      2  C   UNL d   1      12.998  12.564  -4.880  0.00  0.00     0.378 A 
ATOM      3  O   UNL d   1      13.181  13.196  -5.387  0.00  0.00    -0.258 OA
ATOM      4  C   UNL d   1      13.114  13.671  -4.134  0.00  0.00     0.092 A 
ATOM      5  C   UNL d   1      13.253  13.877  -4.927  0.00  0.00     0.121 A 
ATOM      6  O   UNL d   1      12.876  11.779  -5.096  0.00  0.00    -0.237 OA
ATOM      7  C   UNL d   1      13.150  14.250  -3.543  0.00  0.00     0.020 A 
ATOM      8  C   UNL d   1      13.427  14.668  -5.120  0.00  0.00     0.026 A 
ATOM      9  C   UNL d   1      13.323  15.031  -3.747  0.00  0.00     0.002 A 
ATOM     10  C   UNL d   1      13.461  15.238  -4.530  0.00  0.00     0.002 A 
ENDROOT
BRANCH   1  11
ATOM     11  C   UNL d   1      12.792  12.457  -3.401  0.00  0.00     0.154 C 
BRANCH  11  12
ATOM     12  C   UNL d   1      13.383  12.039  -3.023  0.00  0.00     0.318 C 
ATOM     13  O   UNL d   1      14.067  11.824  -3.434  0.00  0.00    -0.257 OA
BRANCH  12  14
ATOM     14  O   UNL d   1      13.297  11.830  -2.230  0.00  0.00    -0.270 OA
BRANCH  14  15
ATOM     15  C   UNL d   1      13.801  11.779  -1.581  0.00  0.00     0.126 C 
BRANCH  15  16
ATOM     16  C   UNL d   1      13.905  12.426  -1.084  0.00  0.00     0.027 C 
BRANCH  16  17
ATOM     17  C   UNL d   1      14.184  12.324  -0.315  0.00  0.00     0.002 C 
BRANCH  17  18
ATOM     18  C   UNL d   1      14.915  12.629  -0.095  0.00  0.00     0.000 C 
ATOM     19  C   UNL d   1      15.061  13.433  -0.167  0.00  0.00     0.000 C 
ENDBRANCH  17  18
ENDBRANCH  16  17
ENDBRANCH  15  16
ENDBRANCH  14  15
ENDBRANCH  12  14
ENDBRANCH  11  12
ENDBRANCH   1  11
TORSDOF 7
ENDMDL
MODEL 3
REMARK VINA RESULT:      20.0      0.810      3.661
REMARK  7 active torsions:
REMARK  status: ('A' for Active; 'I' for Inactive)
REMARK    1  A    between atoms: C_6  and  N_1 
REMARK    2  A    between atoms: C_7  and  C_6 
REMARK    3  A    between atoms: O_10  and  C_7 
REMARK    4  A    between atoms: C_13  and  O_10 
REMARK    5  A    between atoms: C_14  and  C_13 
REMARK    6  A    between atoms: C_16  and  C_14 
REMARK    7  A    between atoms: C_15  and  C_16 
ROOT
ATOM      1  N   UNL d   1      15.037  13.343  -1.046  0.00  0.00    -0.246 N 
ATOM      2  C   UNL d   1      15.466  13.254  -0.338  0.00  0.00     0.378 A 
ATOM      3  O   UNL d   1      15.591  14.009  -0.016  0.00  0.00    -0.258 OA
ATOM      4  C   UNL d   1      14.900  14.151  -1.157  0.00  0.00     0.092 A 
ATOM      5  C   UNL d   1      15.242  14.561  -0.520  0.00  0.00     0.121 A 
ATOM      6  O   UNL d   1      15.717  12.536  -0.023  0.00  0.00    -0.237 OA
ATOM      7  C   UNL d   1      14.508  14.569  -1.755  0.00  0.00     0.020 A 
ATOM      8  C   UNL d   1      15.186  15.391  -0.490  0.00  0.00     0.026 A 
ATOM      9  C   UNL d   1      14.459  15.391  -1.714  0.00  0.00     0.002 A 
ATOM     10  C   UNL d   1      14.796  15.800  -1.085  0.00  0.00     0.002 A 
ENDROOT
BRANCH   1  11
ATOM     11  C   UNL d   1      14.776  12.763  -1.573  0.00  0.00     0.154 C 
BRANCH  11  12
ATOM     12  C   UNL d   1      14.116  12.317  -1.392  0.00  0.00     0.318 C 
ATOM     13  O   UNL d   1      14.063  11.929  -0.665  0.00  0.00    -0.257 OA
BRANCH  12  14
ATOM     14  O   UNL d   1      13.500  12.253  -1.937  0.00  0.00    -0.270 OA
BRANCH  14  15
ATOM     15  C   UNL d   1      13.350  11.783  -2.597  0.00  0.00     0.126 C 
BRANCH  15  16
ATOM     16  C   UNL d   1      13.386  12.105  -3.353  0.00  0.00     0.027 C 
BRANCH  16  17
ATOM     17  C   UNL d   1      12.796  11.943  -3.907  0.00  0.00     0.002 C 
BRANCH  17  18
ATOM     18  C   UNL d   1      12.829  12.277  -4.657  0.00  0.00     0.000 C 
ATOM     19  C   UNL d   1      13.403  12.837  -4.831  0.00  0.00     0.000 C 
ENDBRANCH  17  18
ENDBRANCH  16  17
ENDBRANCH  15  16
ENDBRANCH  14  15
ENDBRANCH  12  14
ENDBRANCH  11  12
ENDBRANCH   1  11
TORSDOF 7
ENDMDL
