MODEL 1
REMARK VINA RESULT:      54.4      0.000      0.000
REMARK  5 active torsions:
REMARK  status: ('A' for Active; 'I' for Inactive)
REMARK    1  A    between atoms: C_4  and  C_1 
REMARK    2  A    between atoms: C_9  and  C_4 
REMARK    3  A    between atoms: N_5  and  C_9 
REMARK    4  A    between atoms: C_19  and  N_6 
REMARK    5  A    between atoms: C_18  and  C_19 
ROOT
ATOM      1  N   UNL d   1      13.158  13.895  -4.452  0.00  0.00    -0.297 N 
ATOM      2  N   UNL d   1      13.169  12.486  -3.578  0.00  0.00    -0.300 N 
ATOM      3  C   UNL d   1      13.235  13.911  -3.636  0.00  0.00     0.100 A 
ATOM      4  C   UNL d   1      13.085  13.163  -4.844  0.00  0.00     0.100 A 
ATOM      5  C   UNL d   1      13.092  12.463  -4.398  0.00  0.00     0.100 A 
ATOM      6  C   UNL d   1      13.242  13.210  -3.190  0.00  0.00     0.100 A 
ENDROOT
BRANCH   1   7
ATOM      7  C   UNL d   1      13.152  14.591  -4.890  0.00  0.00     0.123 C 
BRANCH   7   8
ATOM      8  C   UNL d   1      13.817  14.819  -5.320  0.00  0.00     0.216 C 
ATOM      9  O   UNL d   1      14.229  14.264  -5.770  0.00  0.00    -0.285 OA
BRANCH   8  10
ATOM     10  C   UNL d   1      14.074  15.609  -5.301  0.00  0.00     0.080 A 
ATOM     11  C   UNL d   1      13.774  16.150  -5.827  0.00  0.00     0.202 A 
ATOM     12  C   UNL d   1      14.026  16.929  -5.811  0.00  0.00     0.078 A 
ATOM     13  O   UNL d   1      13.212  15.912  -6.382  0.00  0.00    -0.286 OA
ATOM     14  C   UNL d   1      13.718  17.475  -6.349  0.00  0.00     0.007 C 
ATOM     15  C   UNL d   1      14.594  17.175  -5.253  0.00  0.00     0.199 A 
ATOM     16  C   UNL d   1      14.899  16.620  -4.715  0.00  0.00     0.042 A 
ATOM     17  O   UNL d   1      14.845  17.954  -5.237  0.00  0.00    -0.286 OA
ATOM     18  C   UNL d   1      14.642  15.838  -4.736  0.00  0.00     0.010 A 
ENDBRANCH   8  10
ENDBRANCH   7   8
ENDBRANCH   1   7
BRANCH   2  19
ATOM     19  C   UNL d   1      13.175  11.785  -3.137  0.00  0.00     0.080 C 
BRANCH  19  20
ATOM     20  C   UNL d   1      13.483  11.785  -2.371  0.00  0.00     0.020 A 
ATOM     21  C   UNL d   1      14.300  11.790  -2.254  0.00  0.00     0.028 A 
ATOM     22  C   UNL d   1      14.602  11.790  -1.491  0.00  0.00     0.119 A 
ATOM     23  O   UNL d   1      15.376  11.795  -1.211  0.00  0.00    -0.300 OA
ATOM     24  C   UNL d   1      14.090  11.785  -0.846  0.00  0.00     0.119 A 
ATOM     25  C   UNL d   1      15.356  11.793  -0.389  0.00  0.00     0.304 A 
ATOM     26  O   UNL d   1      14.557  11.786  -0.163  0.00  0.00    -0.300 OA
ATOM     27  C   UNL d   1      13.274  11.779  -0.960  0.00  0.00     0.026 A 
ATOM     28  C   UNL d   1      12.974  11.779  -1.733  0.00  0.00     0.004 A 
ENDBRANCH  19  20
ENDBRANCH   2  19
TORSDOF 5
ENDMDL
MODEL 2
REMARK VINA RESULT:      55.2      2.534      5.392
REMARK  5 active torsions:
REMARK  status: ('A' for Active; 'I' for Inactive)
REMARK    1  A    between atoms: C_4  and  C_1 
REMARK    2  A    between atoms: C_9  and  C_4 
REMARK    3  A    between atoms: N_5  and  C_9 
REMARK    4  A    between atoms: C_19  and  N_6 
REMARK    5  A    between atoms: C_18  and  C_19 
ROOT
ATOM      1  N   UNL d   1      14.695  13.155  -0.062  0.00  0.00    -0.297 N 
ATOM      2  N   UNL d   1      15.224  14.726  -0.034  0.00  0.00    -0.300 N 
ATOM      3  C   UNL d   1      15.497  13.325  -0.081  0.00  0.00     0.100 A 
ATOM      4  C   UNL d   1      14.143  13.778  -0.028  0.00  0.00     0.100 A 
ATOM      5  C   UNL d   1      14.417  14.561  -0.014  0.00  0.00     0.100 A 
ATOM      6  C   UNL d   1      15.771  14.109  -0.067  0.00  0.00     0.100 A 
ENDROOT
BRANCH   1   7
ATOM      7  C   UNL d   1      14.428  12.377  -0.076  0.00  0.00     0.123 C 
BRANCH   7   8
ATOM      8  C   UNL d   1      13.731  12.183  -0.470  0.00  0.00     0.216 C 
ATOM      9  O   UNL d   1      13.048  12.008  -0.040  0.00  0.00    -0.285 OA
BRANCH   8  10
ATOM     10  C   UNL d   1      13.713  12.161  -1.300  0.00  0.00     0.080 A 
ATOM     11  C   UNL d   1      14.387  11.991  -1.720  0.00  0.00     0.202 A 
ATOM     12  C   UNL d   1      14.372  11.969  -2.538  0.00  0.00     0.078 A 
ATOM     13  O   UNL d   1      15.091  11.839  -1.317  0.00  0.00    -0.286 OA
ATOM     14  C   UNL d   1      15.061  11.796  -2.960  0.00  0.00     0.007 C 
ATOM     15  C   UNL d   1      13.664  12.122  -2.949  0.00  0.00     0.199 A 
ATOM     16  C   UNL d   1      12.976  12.295  -2.518  0.00  0.00     0.042 A 
ATOM     17  O   UNL d   1      13.650  12.100  -3.768  0.00  0.00    -0.286 OA
ATOM     18  C   UNL d   1      12.996  12.316  -1.695  0.00  0.00     0.010 A 
ENDBRANCH   8  10
ENDBRANCH   7   8
ENDBRANCH   1   7
BRANCH   2  19
ATOM     19  C   UNL d   1      15.493  15.510  -0.020  0.00  0.00     0.080 C 
BRANCH  19  20
ATOM     20  C   UNL d   1      15.375  15.995  -0.676  0.00  0.00     0.020 A 
ATOM     21  C   UNL d   1      15.416  15.678  -1.438  0.00  0.00     0.028 A 
ATOM     22  C   UNL d   1      15.298  16.164  -2.088  0.00  0.00     0.119 A 
ATOM     23  O   UNL d   1      15.305  16.004  -2.896  0.00  0.00    -0.300 OA
ATOM     24  C   UNL d   1      15.140  16.965  -1.980  0.00  0.00     0.119 A 
ATOM     25  C   UNL d   1      15.152  16.704  -3.300  0.00  0.00     0.304 A 
ATOM     26  O   UNL d   1      15.049  17.299  -2.731  0.00  0.00    -0.300 OA
ATOM     27  C   UNL d   1      15.098  17.284  -1.222  0.00  0.00     0.026 A 
ATOM     28  C   UNL d   1      15.218  16.789  -0.568  0.00  0.00     0.004 A 
ENDBRANCH  19  20
ENDBRANCH   2  19
TORSDOF 5
ENDMDL
