MODEL 1
REMARK VINA RESULT:     102.0      0.000      0.000
REMARK  2 active torsions:
REMARK  status: ('A' for Active; 'I' for Inactive)
REMARK    1  A    between atoms: C_5  and  C_1 
REMARK    2  A    between atoms: C_10  and  N_4 
ROOT
ATOM      1  N   UNL d   1     -56.489 -99.634 -44.020  0.00  0.00    -0.273 N 
ATOM      2  C   UNL d   1     -55.729-100.196 -43.065  0.00  0.00     0.057 A 
ATOM      3  C   UNL d   1     -55.720 -99.324 -44.084  0.00  0.00     0.265 A 
ATOM      4  C   UNL d   1     -56.490-100.166 -43.396  0.00  0.00     0.086 A 
ATOM      5  C   UNL d   1     -55.256 -99.669 -43.498  0.00  0.00     0.066 A 
ATOM      6  O   UNL d   1     -55.474 -98.766 -44.643  0.00  0.00    -0.267 OA
ENDROOT
BRANCH   2   7
ATOM      7  C   UNL d   1     -55.539-100.673 -42.430  0.00  0.00     0.149 A 
ATOM      8  N   UNL d   1     -55.494-100.495 -41.656  0.00  0.00    -0.227 NA
ATOM      9  C   UNL d   1     -55.278-101.176 -41.238  0.00  0.00     0.099 A 
ATOM     10  C   UNL d   1     -55.154-101.308 -40.442  0.00  0.00     0.021 A 
ATOM     11  C   UNL d   1     -55.191-101.778 -41.781  0.00  0.00     0.083 A 
ATOM     12  C   UNL d   1     -54.937-102.070 -40.193  0.00  0.00     0.002 A 
ATOM     13  C   UNL d   1     -54.851-102.672 -40.735  0.00  0.00     0.002 A 
ATOM     14  C   UNL d   1     -54.979-102.530 -41.544  0.00  0.00     0.019 A 
ATOM     15  N   UNL d   1     -55.355-101.462 -42.528  0.00  0.00    -0.288 N 
ATOM     16  C   UNL d   1     -55.337-101.874 -43.255  0.00  0.00     0.101 C 
ENDBRANCH   2   7
BRANCH   1  17
ATOM     17  C   UNL d   1     -57.097 -99.419 -44.509  0.00  0.00     0.067 A 
ATOM     18  C   UNL d   1     -57.865 -99.614 -44.312  0.00  0.00     0.018 A 
ATOM     19  C   UNL d   1     -58.499 -99.400 -44.803  0.00  0.00     0.001 A 
ATOM     20  C   UNL d   1     -59.255 -99.601 -44.594  0.00  0.00     0.000 C 
ATOM     21  C   UNL d   1     -58.344 -98.979 -45.508  0.00  0.00     0.000 A 
ATOM     22  C   UNL d   1     -57.576 -98.784 -45.705  0.00  0.00     0.002 A 
ATOM     23  C   UNL d   1     -58.985 -98.755 -46.019  0.00  0.00     0.000 C 
ATOM     24  C   UNL d   1     -56.949 -99.003 -45.205  0.00  0.00     0.018 A 
ENDBRANCH   1  17
TORSDOF 2
ENDMDL
