MODEL 1
REMARK VINA RESULT:      -8.0      0.000      0.000
REMARK  4 active torsions:
REMARK  status: ('A' for Active; 'I' for Inactive)
REMARK    1  A    between atoms: O_8  and  C_1 
REMARK    2  A    between atoms: C_9  and  C_5 
REMARK    3  A    between atoms: C_11  and  O_8 
REMARK    4  A    between atoms: N_12  and  C_9 
ROOT
ATOM      1  C   UNL d   1     -48.717  12.989  23.288  0.00  0.00     0.161 A 
ATOM      2  C   UNL d   1     -47.134  12.482  23.382  0.00  0.00     0.108 A 
ATOM      3  C   UNL d   1     -47.759  11.934  23.494  0.00  0.00     0.064 A 
ATOM      4  C   UNL d   1     -48.547  12.189  23.447  0.00  0.00     0.222 A 
ATOM      5  C   UNL d   1     -46.357  12.235  23.427  0.00  0.00     0.079 A 
ATOM      6  O   UNL d   1     -47.308  13.280  23.223  0.00  0.00    -0.305 OA
ATOM      7  C   UNL d   1     -48.099  13.533  23.177  0.00  0.00     0.126 A 
ATOM      8  C   UNL d   1     -47.572  11.147  23.650  0.00  0.00     0.009 A 
ATOM      9  C   UNL d   1     -46.178  11.448  23.583  0.00  0.00     0.199 A 
ATOM     10  O   UNL d   1     -49.162  11.647  23.559  0.00  0.00    -0.284 OA
ATOM     11  C   UNL d   1     -46.789  10.904  23.695  0.00  0.00     0.042 A 
ATOM     12  O   UNL d   1     -45.391  11.202  23.628  0.00  0.00    -0.286 OA
ATOM     13  C   UNL d   1     -48.267  14.329  23.019  0.00  0.00     0.029 C 
ENDROOT
BRANCH   1  14
ATOM     14  O   UNL d   1     -49.503  13.235  23.243  0.00  0.00    -0.301 OA
BRANCH  14  15
ATOM     15  C   UNL d   1     -49.899  13.250  22.518  0.00  0.00     0.106 A 
ATOM     16  C   UNL d   1     -50.671  13.521  22.480  0.00  0.00     0.057 A 
ATOM     17 BR   UNL d   1     -51.057  13.780  23.164  0.00  0.00    -0.047 Br
ATOM     18  C   UNL d   1     -51.064  13.536  21.753  0.00  0.00     0.009 A 
ATOM     19  C   UNL d   1     -50.680  13.277  21.065  0.00  0.00     0.001 A 
ATOM     20  C   UNL d   1     -49.899  13.005  21.113  0.00  0.00     0.002 A 
ATOM     21  C   UNL d   1     -49.512  12.992  21.838  0.00  0.00     0.025 A 
ENDBRANCH  14  15
ENDBRANCH   1  14
BRANCH   5  22
ATOM     22  C   UNL d   1     -45.754  12.771  23.317  0.00  0.00     0.085 C 
BRANCH  22  23
ATOM     23  N   UNL d   1     -45.264  12.821  22.668  0.00  0.00    -0.302 N 
ATOM     24  C   UNL d   1     -44.609  12.360  22.524  0.00  0.00     0.080 A 
ATOM     25  C   UNL d   1     -44.290  12.595  21.824  0.00  0.00     0.021 A 
ATOM     26  C   UNL d   1     -44.732  13.190  21.532  0.00  0.00     0.021 A 
ATOM     27  C   UNL d   1     -45.346  13.336  22.058  0.00  0.00     0.080 A 
ENDBRANCH  22  23
ENDBRANCH   5  22
TORSDOF 4
ENDMDL
MODEL 2
REMARK VINA RESULT:      -6.8      8.784     10.139
REMARK  4 active torsions:
REMARK  status: ('A' for Active; 'I' for Inactive)
REMARK    1  A    between atoms: O_8  and  C_1 
REMARK    2  A    between atoms: C_9  and  C_5 
REMARK    3  A    between atoms: C_11  and  O_8 
REMARK    4  A    between atoms: N_12  and  C_9 
ROOT
ATOM      1  C   UNL d   1     -39.397  15.903  20.128  0.00  0.00     0.161 A 
ATOM      2  C   UNL d   1     -39.621  15.905  18.479  0.00  0.00     0.108 A 
ATOM      3  C   UNL d   1     -40.283  15.913  18.993  0.00  0.00     0.064 A 
ATOM      4  C   UNL d   1     -40.169  15.912  19.815  0.00  0.00     0.222 A 
ATOM      5  C   UNL d   1     -39.730  15.906  17.669  0.00  0.00     0.079 A 
ATOM      6  O   UNL d   1     -38.851  15.896  18.795  0.00  0.00    -0.305 OA
ATOM      7  C   UNL d   1     -38.740  15.895  19.619  0.00  0.00     0.126 A 
ATOM      8  C   UNL d   1     -41.039  15.921  18.666  0.00  0.00     0.009 A 
ATOM      9  C   UNL d   1     -40.486  15.914  17.349  0.00  0.00     0.199 A 
ATOM     10  O   UNL d   1     -40.823  15.919  20.321  0.00  0.00    -0.284 OA
ATOM     11  C   UNL d   1     -41.142  15.922  17.852  0.00  0.00     0.042 A 
ATOM     12  O   UNL d   1     -40.592  15.915  16.531  0.00  0.00    -0.286 OA
ATOM     13  C   UNL d   1     -37.972  15.887  19.930  0.00  0.00     0.029 C 
ENDROOT
BRANCH   1  14
ATOM     14  O   UNL d   1     -39.291  15.902  20.947  0.00  0.00    -0.301 OA
BRANCH  14  15
ATOM     15  C   UNL d   1     -39.186  15.193  21.357  0.00  0.00     0.106 A 
ATOM     16  C   UNL d   1     -39.072  15.204  22.168  0.00  0.00     0.057 A 
ATOM     17 BR   UNL d   1     -39.062  15.922  22.579  0.00  0.00    -0.047 Br
ATOM     18  C   UNL d   1     -38.968  14.493  22.576  0.00  0.00     0.009 A 
ATOM     19  C   UNL d   1     -38.977  13.771  22.168  0.00  0.00     0.001 A 
ATOM     20  C   UNL d   1     -39.093  13.769  21.347  0.00  0.00     0.002 A 
ATOM     21  C   UNL d   1     -39.197  14.479  20.945  0.00  0.00     0.025 A 
ENDBRANCH  14  15
ENDBRANCH   1  14
BRANCH   5  22
ATOM     22  C   UNL d   1     -39.084  15.898  17.174  0.00  0.00     0.085 C 
BRANCH  22  23
ATOM     23  N   UNL d   1     -38.788  15.252  16.773  0.00  0.00    -0.302 N 
ATOM     24  C   UNL d   1     -38.180  15.259  16.233  0.00  0.00     0.080 A 
ATOM     25  C   UNL d   1     -38.069  14.506  15.974  0.00  0.00     0.021 A 
ATOM     26  C   UNL d   1     -38.595  14.033  16.342  0.00  0.00     0.021 A 
ATOM     27  C   UNL d   1     -39.050  14.497  16.845  0.00  0.00     0.080 A 
ENDBRANCH  22  23
ENDBRANCH   5  22
TORSDOF 4
ENDMDL
MODEL 3
REMARK VINA RESULT:      -6.6      7.903     10.007
REMARK  4 active torsions:
REMARK  status: ('A' for Active; 'I' for Inactive)
REMARK    1  A    between atoms: O_8  and  C_1 
REMARK    2  A    between atoms: C_9  and  C_5 
REMARK    3  A    between atoms: C_11  and  O_8 
REMARK    4  A    between atoms: N_12  and  C_9 
ROOT
ATOM      1  C   UNL d   1     -39.358  14.723  18.121  0.00  0.00     0.161 A 
ATOM      2  C   UNL d   1     -39.852  15.129  19.658  0.00  0.00     0.108 A 
ATOM      3  C   UNL d   1     -40.356  14.681  19.159  0.00  0.00     0.064 A 
ATOM      4  C   UNL d   1     -40.107  14.480  18.393  0.00  0.00     0.222 A 
ATOM      5  C   UNL d   1     -40.094  15.329  20.412  0.00  0.00     0.079 A 
ATOM      6  O   UNL d   1     -39.105  15.369  19.383  0.00  0.00    -0.305 OA
ATOM      7  C   UNL d   1     -38.858  15.166  18.615  0.00  0.00     0.126 A 
ATOM      8  C   UNL d   1     -41.093  14.450  19.444  0.00  0.00     0.009 A 
ATOM      9  C   UNL d   1     -40.830  15.095  20.691  0.00  0.00     0.199 A 
ATOM     10  O   UNL d   1     -40.605  14.038  17.902  0.00  0.00    -0.284 OA
ATOM     11  C   UNL d   1     -41.330  14.654  20.203  0.00  0.00     0.042 A 
ATOM     12  O   UNL d   1     -41.070  15.299  21.453  0.00  0.00    -0.286 OA
ATOM     13  C   UNL d   1     -38.113  15.408  18.345  0.00  0.00     0.029 C 
ENDROOT
BRANCH   1  14
ATOM     14  O   UNL d   1     -39.118  14.519  17.358  0.00  0.00    -0.301 OA
BRANCH  14  15
ATOM     15  C   UNL d   1     -38.724  13.806  17.217  0.00  0.00     0.106 A 
ATOM     16  C   UNL d   1     -38.375  13.671  16.489  0.00  0.00     0.057 A 
ATOM     17 BR   UNL d   1     -38.415  14.243  15.893  0.00  0.00    -0.047 Br
ATOM     18  C   UNL d   1     -37.981  12.957  16.350  0.00  0.00     0.009 A 
ATOM     19  C   UNL d   1     -37.940  12.380  16.945  0.00  0.00     0.001 A 
ATOM     20  C   UNL d   1     -38.296  12.526  17.679  0.00  0.00     0.002 A 
ATOM     21  C   UNL d   1     -38.686  13.237  17.812  0.00  0.00     0.025 A 
ENDBRANCH  14  15
ENDBRANCH   1  14
BRANCH   5  22
ATOM     22  C   UNL d   1     -39.601  15.763  20.893  0.00  0.00     0.085 C 
BRANCH  22  23
ATOM     23  N   UNL d   1     -39.246  15.507  21.580  0.00  0.00    -0.302 N 
ATOM     24  C   UNL d   1     -39.197  15.922  22.279  0.00  0.00     0.080 A 
ATOM     25  C   UNL d   1     -38.803  15.465  22.811  0.00  0.00     0.021 A 
ATOM     26  C   UNL d   1     -38.607  14.778  22.458  0.00  0.00     0.021 A 
ATOM     27  C   UNL d   1     -38.883  14.799  21.685  0.00  0.00     0.080 A 
ENDBRANCH  22  23
ENDBRANCH   5  22
TORSDOF 4
ENDMDL
MODEL 4
REMARK VINA RESULT:      -6.1      8.350      9.933
REMARK  4 active torsions:
REMARK  status: ('A' for Active; 'I' for Inactive)
REMARK    1  A    between atoms: O_8  and  C_1 
REMARK    2  A    between atoms: C_9  and  C_5 
REMARK    3  A    between atoms: C_11  and  O_8 
REMARK    4  A    between atoms: N_12  and  C_9 
ROOT
ATOM      1  C   UNL d   1     -39.364  15.238  20.376  0.00  0.00     0.161 A 
ATOM      2  C   UNL d   1     -39.538  14.912  18.753  0.00  0.00     0.108 A 
ATOM      3  C   UNL d   1     -38.778  15.071  19.071  0.00  0.00     0.064 A 
ATOM      4  C   UNL d   1     -38.694  15.233  19.880  0.00  0.00     0.222 A 
ATOM      5  C   UNL d   1     -39.624  14.751  17.957  0.00  0.00     0.079 A 
ATOM      6  O   UNL d   1     -40.204  14.917  19.251  0.00  0.00    -0.305 OA
ATOM      7  C   UNL d   1     -40.117  15.080  20.062  0.00  0.00     0.126 A 
ATOM      8  C   UNL d   1     -38.127  15.062  18.567  0.00  0.00     0.009 A 
ATOM      9  C   UNL d   1     -38.971  14.744  17.459  0.00  0.00     0.199 A 
ATOM     10  O   UNL d   1     -37.945  15.390  20.193  0.00  0.00    -0.284 OA
ATOM     11  C   UNL d   1     -38.221  14.901  17.767  0.00  0.00     0.042 A 
ATOM     12  O   UNL d   1     -39.062  14.582  16.655  0.00  0.00    -0.286 OA
ATOM     13  C   UNL d   1     -40.784  15.084  20.554  0.00  0.00     0.029 C 
ENDROOT
BRANCH   1  14
ATOM     14  O   UNL d   1     -39.272  15.400  21.180  0.00  0.00    -0.301 OA
BRANCH  14  15
ATOM     15  C   UNL d   1     -39.119  14.792  21.718  0.00  0.00     0.106 A 
ATOM     16  C   UNL d   1     -39.051  14.961  22.516  0.00  0.00     0.057 A 
ATOM     17 BR   UNL d   1     -39.135  15.737  22.788  0.00  0.00    -0.047 Br
ATOM     18  C   UNL d   1     -38.897  14.350  23.052  0.00  0.00     0.009 A 
ATOM     19  C   UNL d   1     -38.812  13.570  22.783  0.00  0.00     0.001 A 
ATOM     20  C   UNL d   1     -38.883  13.408  21.974  0.00  0.00     0.002 A 
ATOM     21  C   UNL d   1     -39.035  14.018  21.445  0.00  0.00     0.025 A 
ENDBRANCH  14  15
ENDBRANCH   1  14
BRANCH   5  22
ATOM     22  C   UNL d   1     -40.363  14.597  17.653  0.00  0.00     0.085 C 
BRANCH  22  23
ATOM     23  N   UNL d   1     -40.825  15.111  17.220  0.00  0.00    -0.302 N 
ATOM     24  C   UNL d   1     -41.522  15.453  17.466  0.00  0.00     0.080 A 
ATOM     25  C   UNL d   1     -41.792  15.919  16.869  0.00  0.00     0.021 A 
ATOM     26  C   UNL d   1     -41.280  15.873  16.260  0.00  0.00     0.021 A 
ATOM     27  C   UNL d   1     -40.671  15.367  16.475  0.00  0.00     0.080 A 
ENDBRANCH  22  23
ENDBRANCH   5  22
TORSDOF 4
ENDMDL
MODEL 5
REMARK VINA RESULT:      -6.1      7.953      9.915
REMARK  4 active torsions:
REMARK  status: ('A' for Active; 'I' for Inactive)
REMARK    1  A    between atoms: O_8  and  C_1 
REMARK    2  A    between atoms: C_9  and  C_5 
REMARK    3  A    between atoms: C_11  and  O_8 
REMARK    4  A    between atoms: N_12  and  C_9 
ROOT
ATOM      1  C   UNL d   1     -39.334  14.056  18.308  0.00  0.00     0.161 A 
ATOM      2  C   UNL d   1     -39.724  14.593  19.835  0.00  0.00     0.108 A 
ATOM      3  C   UNL d   1     -40.329  14.449  19.272  0.00  0.00     0.064 A 
ATOM      4  C   UNL d   1     -40.132  14.182  18.511  0.00  0.00     0.222 A 
ATOM      5  C   UNL d   1     -39.915  14.856  20.584  0.00  0.00     0.079 A 
ATOM      6  O   UNL d   1     -38.928  14.466  19.628  0.00  0.00    -0.305 OA
ATOM      7  C   UNL d   1     -38.734  14.198  18.865  0.00  0.00     0.126 A 
ATOM      8  C   UNL d   1     -41.113  14.579  19.490  0.00  0.00     0.009 A 
ATOM      9  C   UNL d   1     -40.698  14.983  20.796  0.00  0.00     0.199 A 
ATOM     10  O   UNL d   1     -40.729  14.041  17.957  0.00  0.00    -0.284 OA
ATOM     11  C   UNL d   1     -41.298  14.843  20.245  0.00  0.00     0.042 A 
ATOM     12  O   UNL d   1     -40.887  15.249  21.554  0.00  0.00    -0.286 OA
ATOM     13  C   UNL d   1     -37.940  14.073  18.663  0.00  0.00     0.029 C 
ENDROOT
BRANCH   1  14
ATOM     14  O   UNL d   1     -39.146  13.790  17.550  0.00  0.00    -0.301 OA
BRANCH  14  15
ATOM     15  C   UNL d   1     -38.938  14.325  16.955  0.00  0.00     0.106 A 
ATOM     16  C   UNL d   1     -38.541  14.060  16.289  0.00  0.00     0.057 A 
ATOM     17 BR   UNL d   1     -38.348  13.260  16.208  0.00  0.00    -0.047 Br
ATOM     18  C   UNL d   1     -38.334  14.598  15.696  0.00  0.00     0.009 A 
ATOM     19  C   UNL d   1     -38.526  15.401  15.774  0.00  0.00     0.001 A 
ATOM     20  C   UNL d   1     -38.928  15.660  16.451  0.00  0.00     0.002 A 
ATOM     21  C   UNL d   1     -39.131  15.122  17.039  0.00  0.00     0.025 A 
ENDBRANCH  14  15
ENDBRANCH   1  14
BRANCH   5  22
ATOM     22  C   UNL d   1     -39.324  14.994  21.127  0.00  0.00     0.085 C 
BRANCH  22  23
ATOM     23  N   UNL d   1     -39.148  14.536  21.778  0.00  0.00    -0.302 N 
ATOM     24  C   UNL d   1     -39.181  13.723  21.816  0.00  0.00     0.080 A 
ATOM     25  C   UNL d   1     -38.965  13.502  22.558  0.00  0.00     0.021 A 
ATOM     26  C   UNL d   1     -38.798  14.157  22.979  0.00  0.00     0.021 A 
ATOM     27  C   UNL d   1     -38.912  14.810  22.494  0.00  0.00     0.080 A 
ENDBRANCH  22  23
ENDBRANCH   5  22
TORSDOF 4
ENDMDL
MODEL 6
REMARK VINA RESULT:      -6.0      7.341     10.125
REMARK  4 active torsions:
REMARK  status: ('A' for Active; 'I' for Inactive)
REMARK    1  A    between atoms: O_8  and  C_1 
REMARK    2  A    between atoms: C_9  and  C_5 
REMARK    3  A    between atoms: C_11  and  O_8 
REMARK    4  A    between atoms: N_12  and  C_9 
ROOT
ATOM      1  C   UNL d   1     -39.296  15.694  18.046  0.00  0.00     0.161 A 
ATOM      2  C   UNL d   1     -39.790  15.685  19.635  0.00  0.00     0.108 A 
ATOM      3  C   UNL d   1     -38.981  15.803  19.447  0.00  0.00     0.064 A 
ATOM      4  C   UNL d   1     -38.737  15.806  18.653  0.00  0.00     0.222 A 
ATOM      5  C   UNL d   1     -40.033  15.681  20.415  0.00  0.00     0.079 A 
ATOM      6  O   UNL d   1     -40.344  15.573  19.025  0.00  0.00    -0.305 OA
ATOM      7  C   UNL d   1     -40.097  15.577  18.231  0.00  0.00     0.126 A 
ATOM      8  C   UNL d   1     -38.443  15.912  20.060  0.00  0.00     0.009 A 
ATOM      9  C   UNL d   1     -39.491  15.791  21.022  0.00  0.00     0.199 A 
ATOM     10  O   UNL d   1     -37.940  15.922  18.469  0.00  0.00    -0.284 OA
ATOM     11  C   UNL d   1     -38.694  15.907  20.842  0.00  0.00     0.042 A 
ATOM     12  O   UNL d   1     -39.741  15.786  21.809  0.00  0.00    -0.286 OA
ATOM     13  C   UNL d   1     -40.654  15.465  17.627  0.00  0.00     0.029 C 
ENDROOT
BRANCH   1  14
ATOM     14  O   UNL d   1     -39.046  15.699  17.259  0.00  0.00    -0.301 OA
BRANCH  14  15
ATOM     15  C   UNL d   1     -38.791  15.003  16.894  0.00  0.00     0.106 A 
ATOM     16  C   UNL d   1     -38.445  15.035  16.152  0.00  0.00     0.057 A 
ATOM     17 BR   UNL d   1     -38.348  15.760  15.767  0.00  0.00    -0.047 Br
ATOM     18  C   UNL d   1     -38.191  14.337  15.789  0.00  0.00     0.009 A 
ATOM     19  C   UNL d   1     -38.286  13.608  16.172  0.00  0.00     0.001 A 
ATOM     20  C   UNL d   1     -38.638  13.585  16.922  0.00  0.00     0.002 A 
ATOM     21  C   UNL d   1     -38.889  14.281  17.280  0.00  0.00     0.025 A 
ENDBRANCH  14  15
ENDBRANCH   1  14
BRANCH   5  22
ATOM     22  C   UNL d   1     -40.819  15.567  20.593  0.00  0.00     0.085 C 
BRANCH  22  23
ATOM     23  N   UNL d   1     -41.166  14.867  20.826  0.00  0.00    -0.302 N 
ATOM     24  C   UNL d   1     -40.779  14.213  21.118  0.00  0.00     0.080 A 
ATOM     25  C   UNL d   1     -41.330  13.649  21.276  0.00  0.00     0.021 A 
ATOM     26  C   UNL d   1     -42.049  13.939  21.089  0.00  0.00     0.021 A 
ATOM     27  C   UNL d   1     -41.952  14.703  20.806  0.00  0.00     0.080 A 
ENDBRANCH  22  23
ENDBRANCH   5  22
TORSDOF 4
ENDMDL
MODEL 7
REMARK VINA RESULT:      -5.9      1.908      4.704
REMARK  4 active torsions:
REMARK  status: ('A' for Active; 'I' for Inactive)
REMARK    1  A    between atoms: O_8  and  C_1 
REMARK    2  A    between atoms: C_9  and  C_5 
REMARK    3  A    between atoms: C_11  and  O_8 
REMARK    4  A    between atoms: N_12  and  C_9 
ROOT
ATOM      1  C   UNL d   1     -46.565  12.801  23.043  0.00  0.00     0.161 A 
ATOM      2  C   UNL d   1     -48.030  13.466  22.615  0.00  0.00     0.108 A 
ATOM      3  C   UNL d   1     -47.403  13.960  22.875  0.00  0.00     0.064 A 
ATOM      4  C   UNL d   1     -46.674  13.625  23.087  0.00  0.00     0.222 A 
ATOM      5  C   UNL d   1     -48.749  13.793  22.405  0.00  0.00     0.079 A 
ATOM      6  O   UNL d   1     -47.918  12.643  22.572  0.00  0.00    -0.305 OA
ATOM      7  C   UNL d   1     -47.186  12.311  22.786  0.00  0.00     0.126 A 
ATOM      8  C   UNL d   1     -47.528  14.773  22.913  0.00  0.00     0.009 A 
ATOM      9  C   UNL d   1     -48.867  14.604  22.445  0.00  0.00     0.199 A 
ATOM     10  O   UNL d   1     -46.057  14.112  23.343  0.00  0.00    -0.284 OA
ATOM     11  C   UNL d   1     -48.253  15.094  22.700  0.00  0.00     0.042 A 
ATOM     12  O   UNL d   1     -49.595  14.930  22.232  0.00  0.00    -0.286 OA
ATOM     13  C   UNL d   1     -47.079  11.490  22.741  0.00  0.00     0.029 C 
ENDROOT
BRANCH   1  14
ATOM     14  O   UNL d   1     -45.837  12.475  23.256  0.00  0.00    -0.301 OA
BRANCH  14  15
ATOM     15  C   UNL d   1     -45.208  12.465  22.721  0.00  0.00     0.106 A 
ATOM     16  C   UNL d   1     -44.628  11.890  22.784  0.00  0.00     0.057 A 
ATOM     17 BR   UNL d   1     -44.669  11.319  23.381  0.00  0.00    -0.047 Br
ATOM     18  C   UNL d   1     -43.999  11.882  22.247  0.00  0.00     0.009 A 
ATOM     19  C   UNL d   1     -43.955  12.453  21.648  0.00  0.00     0.001 A 
ATOM     20  C   UNL d   1     -44.546  13.032  21.591  0.00  0.00     0.002 A 
ATOM     21  C   UNL d   1     -45.169  13.035  22.127  0.00  0.00     0.025 A 
ENDBRANCH  14  15
ENDBRANCH   1  14
BRANCH   5  22
ATOM     22  C   UNL d   1     -49.354  13.310  22.154  0.00  0.00     0.085 C 
BRANCH  22  23
ATOM     23  N   UNL d   1     -49.983  13.050  22.602  0.00  0.00    -0.302 N 
ATOM     24  C   UNL d   1     -50.537  12.497  22.377  0.00  0.00     0.080 A 
ATOM     25  C   UNL d   1     -51.057  12.406  22.984  0.00  0.00     0.021 A 
ATOM     26  C   UNL d   1     -50.838  12.890  23.579  0.00  0.00     0.021 A 
ATOM     27  C   UNL d   1     -50.164  13.296  23.344  0.00  0.00     0.080 A 
ENDBRANCH  22  23
ENDBRANCH   5  22
TORSDOF 4
ENDMDL
