MODEL 1
REMARK VINA RESULT:       0.1      0.000      0.000
REMARK  5 active torsions:
REMARK  status: ('A' for Active; 'I' for Inactive)
REMARK    1  A    between atoms: C_6  and  C_1 
REMARK    2  A    between atoms: C_7  and  C_2 
REMARK    3  A    between atoms: O_12  and  C_6 
REMARK    4  A    between atoms: O_14  and  C_11 
REMARK    5  A    between atoms: C_17  and  O_12 
ROOT
ATOM      1  C   UNL d   1     -41.915-122.586 -51.499  0.00  0.00     0.088 A 
ATOM      2  C   UNL d   1     -41.585-123.174 -51.022  0.00  0.00     0.105 A 
ATOM      3  C   UNL d   1     -41.774-122.769 -52.288  0.00  0.00     0.032 A 
ATOM      4  O   UNL d   1     -41.234-123.730 -51.533  0.00  0.00    -0.307 OA
ATOM      5  C   UNL d   1     -41.353-123.476 -52.309  0.00  0.00     0.100 A 
ATOM      6  C   UNL d   1     -41.972-122.388 -52.982  0.00  0.00     0.026 A 
ATOM      7  C   UNL d   1     -41.130-123.800 -53.038  0.00  0.00     0.027 A 
ATOM      8  C   UNL d   1     -41.749-122.712 -53.711  0.00  0.00     0.094 A 
ATOM      9  C   UNL d   1     -41.328-123.419 -53.732  0.00  0.00     0.026 A 
ENDROOT
BRANCH   2  10
ATOM     10  C   UNL d   1     -41.592-123.219 -50.201  0.00  0.00     0.023 A 
ATOM     11  C   UNL d   1     -42.074-123.783 -49.811  0.00  0.00     0.002 A 
ATOM     12  C   UNL d   1     -42.072-123.817 -48.976  0.00  0.00     0.000 A 
ATOM     13  C   UNL d   1     -41.588-123.288 -48.539  0.00  0.00     0.000 A 
ATOM     14  C   UNL d   1     -41.123-122.744 -48.934  0.00  0.00     0.000 A 
ATOM     15  C   UNL d   1     -41.125-122.709 -49.755  0.00  0.00     0.002 A 
ENDBRANCH   2  10
BRANCH   1  16
ATOM     16  C   UNL d   1     -42.225-122.106 -50.898  0.00  0.00     0.302 C 
ATOM     17  O   UNL d   1     -41.764-121.514 -50.564  0.00  0.00    -0.259 OA
BRANCH  16  18
ATOM     18  O   UNL d   1     -43.000-122.215 -50.627  0.00  0.00    -0.271 OA
BRANCH  18  19
ATOM     19  C   UNL d   1     -43.483-121.563 -50.436  0.00  0.00     0.126 C 
ATOM     20  C   UNL d   1     -44.311-121.648 -50.424  0.00  0.00     0.029 C 
ENDBRANCH  18  19
ENDBRANCH  16  18
ENDBRANCH   1  16
BRANCH   8  21
ATOM     21  O   UNL d   1     -41.954-122.319 -54.414  0.00  0.00    -0.328 OA
ATOM     22  C   UNL d   1     -41.705-122.626 -55.157  0.00  0.00     0.181 C 
ENDBRANCH   8  21
TORSDOF 5
ENDMDL
MODEL 2
REMARK VINA RESULT:       1.7      1.216      3.871
REMARK  5 active torsions:
REMARK  status: ('A' for Active; 'I' for Inactive)
REMARK    1  A    between atoms: C_6  and  C_1 
REMARK    2  A    between atoms: C_7  and  C_2 
REMARK    3  A    between atoms: O_12  and  C_6 
REMARK    4  A    between atoms: O_14  and  C_11 
REMARK    5  A    between atoms: C_17  and  O_12 
ROOT
ATOM      1  C   UNL d   1     -41.852-122.116 -52.136  0.00  0.00     0.088 A 
ATOM      2  C   UNL d   1     -41.842-122.691 -52.727  0.00  0.00     0.105 A 
ATOM      3  C   UNL d   1     -41.859-122.484 -51.401  0.00  0.00     0.032 A 
ATOM      4  O   UNL d   1     -41.842-123.430 -52.343  0.00  0.00    -0.307 OA
ATOM      5  C   UNL d   1     -41.852-123.297 -51.530  0.00  0.00     0.100 A 
ATOM      6  C   UNL d   1     -41.870-122.188 -50.641  0.00  0.00     0.026 A 
ATOM      7  C   UNL d   1     -41.857-123.815 -50.883  0.00  0.00     0.027 A 
ATOM      8  C   UNL d   1     -41.874-122.706 -49.994  0.00  0.00     0.094 A 
ATOM      9  C   UNL d   1     -41.868-123.519 -50.122  0.00  0.00     0.026 A 
ENDROOT
BRANCH   2  10
ATOM     10  C   UNL d   1     -41.832-122.577 -53.541  0.00  0.00     0.023 A 
ATOM     11  C   UNL d   1     -41.124-122.680 -53.976  0.00  0.00     0.002 A 
ATOM     12  C   UNL d   1     -41.128-122.560 -54.803  0.00  0.00     0.000 A 
ATOM     13  C   UNL d   1     -41.842-122.339 -55.188  0.00  0.00     0.000 A 
ATOM     14  C   UNL d   1     -42.525-122.242 -54.749  0.00  0.00     0.000 A 
ATOM     15  C   UNL d   1     -42.521-122.359 -53.936  0.00  0.00     0.002 A 
ENDBRANCH   2  10
BRANCH   1  16
ATOM     16  C   UNL d   1     -41.851-121.444 -52.624  0.00  0.00     0.302 C 
ATOM     17  O   UNL d   1     -42.434-121.346 -53.192  0.00  0.00    -0.259 OA
BRANCH  16  18
ATOM     18  O   UNL d   1     -41.262-120.866 -52.545  0.00  0.00    -0.271 OA
BRANCH  18  19
ATOM     19  C   UNL d   1     -41.459-120.057 -52.502  0.00  0.00     0.126 C 
ATOM     20  C   UNL d   1     -41.124-119.579 -51.908  0.00  0.00     0.029 C 
ENDBRANCH  18  19
ENDBRANCH  16  18
ENDBRANCH   1  16
BRANCH   8  21
ATOM     21  O   UNL d   1     -41.886-122.398 -49.222  0.00  0.00    -0.328 OA
ATOM     22  C   UNL d   1     -42.366-122.758 -48.632  0.00  0.00     0.181 C 
ENDBRANCH   8  21
TORSDOF 5
ENDMDL
MODEL 3
REMARK VINA RESULT:       3.0      1.275      1.833
REMARK  5 active torsions:
REMARK  status: ('A' for Active; 'I' for Inactive)
REMARK    1  A    between atoms: C_6  and  C_1 
REMARK    2  A    between atoms: C_7  and  C_2 
REMARK    3  A    between atoms: O_12  and  C_6 
REMARK    4  A    between atoms: O_14  and  C_11 
REMARK    5  A    between atoms: C_17  and  O_12 
ROOT
ATOM      1  C   UNL d   1     -42.319-122.736 -50.320  0.00  0.00     0.088 A 
ATOM      2  C   UNL d   1     -41.756-122.550 -49.746  0.00  0.00     0.105 A 
ATOM      3  C   UNL d   1     -42.133-122.344 -51.017  0.00  0.00     0.032 A 
ATOM      4  O   UNL d   1     -41.212-122.030 -50.103  0.00  0.00    -0.307 OA
ATOM      5  C   UNL d   1     -41.449-121.907 -50.883  0.00  0.00     0.100 A 
ATOM      6  C   UNL d   1     -42.494-122.327 -51.749  0.00  0.00     0.026 A 
ATOM      7  C   UNL d   1     -41.127-121.449 -51.494  0.00  0.00     0.027 A 
ATOM      8  C   UNL d   1     -42.172-121.870 -52.361  0.00  0.00     0.094 A 
ATOM      9  C   UNL d   1     -41.488-121.433 -52.226  0.00  0.00     0.026 A 
ENDROOT
BRANCH   2  10
ATOM     10  C   UNL d   1     -41.722-122.816 -48.969  0.00  0.00     0.023 A 
ATOM     11  C   UNL d   1     -41.247-123.477 -48.767  0.00  0.00     0.002 A 
ATOM     12  C   UNL d   1     -41.222-123.737 -47.973  0.00  0.00     0.000 A 
ATOM     13  C   UNL d   1     -41.671-123.334 -47.389  0.00  0.00     0.000 A 
ATOM     14  C   UNL d   1     -42.130-122.691 -47.601  0.00  0.00     0.000 A 
ATOM     15  C   UNL d   1     -42.155-122.435 -48.382  0.00  0.00     0.002 A 
ENDBRANCH   2  10
BRANCH   1  16
ATOM     16  C   UNL d   1     -42.791-123.243 -49.863  0.00  0.00     0.302 C 
ATOM     17  O   UNL d   1     -42.443-123.817 -49.391  0.00  0.00    -0.259 OA
BRANCH  16  18
ATOM     18  O   UNL d   1     -43.617-123.178 -49.875  0.00  0.00    -0.271 OA
BRANCH  18  19
ATOM     19  C   UNL d   1     -44.101-123.808 -49.623  0.00  0.00     0.126 C 
ATOM     20  C   UNL d   1     -44.927-123.707 -49.580  0.00  0.00     0.029 C 
ENDBRANCH  18  19
ENDBRANCH  16  18
ENDBRANCH   1  16
BRANCH   8  21
ATOM     21  O   UNL d   1     -42.545-121.858 -53.103  0.00  0.00    -0.328 OA
ATOM     22  C   UNL d   1     -42.265-122.354 -53.723  0.00  0.00     0.181 C 
ENDBRANCH   8  21
TORSDOF 5
ENDMDL
