MODEL 1
REMARK VINA RESULT:      -7.9      0.000      0.000
REMARK  5 active torsions:
REMARK  status: ('A' for Active; 'I' for Inactive)
REMARK    1  A    between atoms: C_6  and  C_1 
REMARK    2  A    between atoms: C_7  and  C_6 
REMARK    3  A    between atoms: C_10  and  O_14 
REMARK    4  A    between atoms: C_20  and  C_10 
REMARK    5  A    between atoms: O_14  and  C_12 
ROOT
ATOM      1  C   UNL d   1     -49.394  12.480  23.257  0.00  0.00     0.141 A 
ATOM      2  C   UNL d   1     -48.204  11.938  23.506  0.00  0.00     0.064 A 
ATOM      3  C   UNL d   1     -49.011  11.793  23.496  0.00  0.00     0.220 A 
ATOM      4  C   UNL d   1     -48.082  12.720  23.272  0.00  0.00     0.105 A 
ATOM      5  O   UNL d   1     -48.821  13.061  23.116  0.00  0.00    -0.304 OA
ATOM      6  C   UNL d   1     -47.323  13.020  23.231  0.00  0.00     0.050 A 
ATOM      7  C   UNL d   1     -47.562  11.461  23.698  0.00  0.00     0.007 A 
ATOM      8  C   UNL d   1     -46.681  12.542  23.423  0.00  0.00     0.105 A 
ATOM      9  O   UNL d   1     -49.382  11.078  23.692  0.00  0.00    -0.284 OA
ATOM     10  C   UNL d   1     -46.802  11.764  23.656  0.00  0.00     0.025 A 
ENDROOT
BRANCH   1  11
ATOM     11  C   UNL d   1     -50.208  12.581  23.170  0.00  0.00     0.053 C 
BRANCH  11  12
ATOM     12  C   UNL d   1     -50.509  13.113  22.611  0.00  0.00     0.102 A 
ATOM     13  O   UNL d   1     -50.546  13.001  21.798  0.00  0.00    -0.305 OA
ATOM     14  C   UNL d   1     -50.886  13.671  21.460  0.00  0.00     0.123 A 
ATOM     15  C   UNL d   1     -51.063  14.205  22.064  0.00  0.00     0.029 A 
ATOM     16  C   UNL d   1     -50.831  13.863  22.780  0.00  0.00     0.027 A 
ENDBRANCH  11  12
ENDBRANCH   1  11
BRANCH   8  17
ATOM     17  O   UNL d   1     -45.917  12.845  23.381  0.00  0.00    -0.273 OA
BRANCH  17  18
ATOM     18  C   UNL d   1     -45.397  12.576  22.805  0.00  0.00     0.300 C 
ATOM     19  O   UNL d   1     -45.000  11.862  22.913  0.00  0.00    -0.259 OA
BRANCH  18  20
ATOM     20  C   UNL d   1     -45.277  13.025  22.120  0.00  0.00     0.069 C 
ATOM     21  C   UNL d   1     -44.528  13.039  21.769  0.00  0.00     0.006 C 
ENDBRANCH  18  20
ENDBRANCH  17  18
ENDBRANCH   8  17
TORSDOF 5
ENDMDL
MODEL 2
REMARK VINA RESULT:      -7.2      1.247      1.977
REMARK  5 active torsions:
REMARK  status: ('A' for Active; 'I' for Inactive)
REMARK    1  A    between atoms: C_6  and  C_1 
REMARK    2  A    between atoms: C_7  and  C_6 
REMARK    3  A    between atoms: C_10  and  O_14 
REMARK    4  A    between atoms: C_20  and  C_10 
REMARK    5  A    between atoms: O_14  and  C_12 
ROOT
ATOM      1  C   UNL d   1     -48.654  14.164  22.632  0.00  0.00     0.141 A 
ATOM      2  C   UNL d   1     -47.337  14.107  22.816  0.00  0.00     0.064 A 
ATOM      3  C   UNL d   1     -47.951  14.582  22.553  0.00  0.00     0.220 A 
ATOM      4  C   UNL d   1     -47.658  13.388  23.061  0.00  0.00     0.105 A 
ATOM      5  O   UNL d   1     -48.478  13.419  22.949  0.00  0.00    -0.304 OA
ATOM      6  C   UNL d   1     -47.170  12.801  23.353  0.00  0.00     0.050 A 
ATOM      7  C   UNL d   1     -46.525  14.234  22.865  0.00  0.00     0.007 A 
ATOM      8  C   UNL d   1     -46.357  12.928  23.402  0.00  0.00     0.105 A 
ATOM      9  O   UNL d   1     -47.880  15.354  22.256  0.00  0.00    -0.284 OA
ATOM     10  C   UNL d   1     -46.038  13.644  23.158  0.00  0.00     0.025 A 
ENDROOT
BRANCH   1  11
ATOM     11  C   UNL d   1     -49.409  14.433  22.434  0.00  0.00     0.053 C 
BRANCH  11  12
ATOM     12  C   UNL d   1     -49.986  13.905  22.162  0.00  0.00     0.102 A 
ATOM     13  O   UNL d   1     -50.051  13.599  21.404  0.00  0.00    -0.305 OA
ATOM     14  C   UNL d   1     -50.705  13.098  21.382  0.00  0.00     0.123 A 
ATOM     15  C   UNL d   1     -51.051  13.091  22.133  0.00  0.00     0.029 A 
ATOM     16  C   UNL d   1     -50.608  13.590  22.619  0.00  0.00     0.027 A 
ENDBRANCH  11  12
ENDBRANCH   1  11
BRANCH   8  17
ATOM     17  O   UNL d   1     -45.867  12.337  23.696  0.00  0.00    -0.273 OA
BRANCH  17  18
ATOM     18  C   UNL d   1     -45.491  11.819  23.181  0.00  0.00     0.300 C 
ATOM     19  O   UNL d   1     -45.008  12.116  22.581  0.00  0.00    -0.259 OA
BRANCH  18  20
ATOM     20  C   UNL d   1     -45.599  11.004  23.270  0.00  0.00     0.069 C 
ATOM     21  C   UNL d   1     -45.007  10.551  23.629  0.00  0.00     0.006 C 
ENDBRANCH  18  20
ENDBRANCH  17  18
ENDBRANCH   8  17
TORSDOF 5
ENDMDL
MODEL 3
REMARK VINA RESULT:      -7.0      1.342      2.070
REMARK  5 active torsions:
REMARK  status: ('A' for Active; 'I' for Inactive)
REMARK    1  A    between atoms: C_6  and  C_1 
REMARK    2  A    between atoms: C_7  and  C_6 
REMARK    3  A    between atoms: C_10  and  O_14 
REMARK    4  A    between atoms: C_20  and  C_10 
REMARK    5  A    between atoms: O_14  and  C_12 
ROOT
ATOM      1  C   UNL d   1     -49.282  14.192  22.945  0.00  0.00     0.141 A 
ATOM      2  C   UNL d   1     -48.072  14.684  22.685  0.00  0.00     0.064 A 
ATOM      3  C   UNL d   1     -48.876  14.833  22.626  0.00  0.00     0.220 A 
ATOM      4  C   UNL d   1     -47.974  13.947  23.043  0.00  0.00     0.105 A 
ATOM      5  O   UNL d   1     -48.725  13.638  23.206  0.00  0.00    -0.304 OA
ATOM      6  C   UNL d   1     -47.223  13.654  23.174  0.00  0.00     0.050 A 
ATOM      7  C   UNL d   1     -47.413  15.124  22.460  0.00  0.00     0.007 A 
ATOM      8  C   UNL d   1     -46.564  14.094  22.948  0.00  0.00     0.105 A 
ATOM      9  O   UNL d   1     -49.226  15.511  22.301  0.00  0.00    -0.284 OA
ATOM     10  C   UNL d   1     -46.661  14.827  22.592  0.00  0.00     0.025 A 
ENDROOT
BRANCH   1  11
ATOM     11  C   UNL d   1     -50.101  14.110  22.999  0.00  0.00     0.053 C 
BRANCH  11  12
ATOM     12  C   UNL d   1     -50.447  13.358  23.021  0.00  0.00     0.102 A 
ATOM     13  O   UNL d   1     -50.537  12.841  22.390  0.00  0.00    -0.305 OA
ATOM     14  C   UNL d   1     -50.909  12.159  22.664  0.00  0.00     0.123 A 
ATOM     15  C   UNL d   1     -51.054  12.250  23.473  0.00  0.00     0.029 A 
ATOM     16  C   UNL d   1     -50.768  12.993  23.698  0.00  0.00     0.027 A 
ENDBRANCH  11  12
ENDBRANCH   1  11
BRANCH   8  17
ATOM     17  O   UNL d   1     -45.808  13.797  23.080  0.00  0.00    -0.273 OA
BRANCH  17  18
ATOM     18  C   UNL d   1     -45.538  13.150  22.653  0.00  0.00     0.300 C 
ATOM     19  O   UNL d   1     -45.751  12.388  22.885  0.00  0.00    -0.259 OA
BRANCH  18  20
ATOM     20  C   UNL d   1     -45.053  13.269  21.993  0.00  0.00     0.069 C 
ATOM     21  C   UNL d   1     -44.459  12.721  21.820  0.00  0.00     0.006 C 
ENDBRANCH  18  20
ENDBRANCH  17  18
ENDBRANCH   8  17
TORSDOF 5
ENDMDL
MODEL 4
REMARK VINA RESULT:      -6.9      1.172      1.464
REMARK  5 active torsions:
REMARK  status: ('A' for Active; 'I' for Inactive)
REMARK    1  A    between atoms: C_6  and  C_1 
REMARK    2  A    between atoms: C_7  and  C_6 
REMARK    3  A    between atoms: C_10  and  O_14 
REMARK    4  A    between atoms: C_20  and  C_10 
REMARK    5  A    between atoms: O_14  and  C_12 
ROOT
ATOM      1  C   UNL d   1     -48.685  13.366  23.117  0.00  0.00     0.141 A 
ATOM      2  C   UNL d   1     -47.543  12.694  23.244  0.00  0.00     0.064 A 
ATOM      3  C   UNL d   1     -48.352  12.658  23.370  0.00  0.00     0.220 A 
ATOM      4  C   UNL d   1     -47.368  13.427  22.909  0.00  0.00     0.105 A 
ATOM      5  O   UNL d   1     -48.077  13.849  22.828  0.00  0.00    -0.304 OA
ATOM      6  C   UNL d   1     -46.596  13.617  22.722  0.00  0.00     0.050 A 
ATOM      7  C   UNL d   1     -46.939  12.153  23.389  0.00  0.00     0.007 A 
ATOM      8  C   UNL d   1     -45.992  13.076  22.867  0.00  0.00     0.105 A 
ATOM      9  O   UNL d   1     -48.769  12.021  23.698  0.00  0.00    -0.284 OA
ATOM     10  C   UNL d   1     -46.166  12.346  23.200  0.00  0.00     0.025 A 
ENDROOT
BRANCH   1  11
ATOM     11  C   UNL d   1     -49.484  13.568  23.142  0.00  0.00     0.053 C 
BRANCH  11  12
ATOM     12  C   UNL d   1     -49.720  14.360  23.096  0.00  0.00     0.102 A 
ATOM     13  O   UNL d   1     -49.679  14.919  23.696  0.00  0.00    -0.305 OA
ATOM     14  C   UNL d   1     -49.973  15.632  23.406  0.00  0.00     0.123 A 
ATOM     15  C   UNL d   1     -50.199  15.519  22.619  0.00  0.00     0.029 A 
ATOM     16  C   UNL d   1     -50.044  14.731  22.423  0.00  0.00     0.027 A 
ENDBRANCH  11  12
ENDBRANCH   1  11
BRANCH   8  17
ATOM     17  O   UNL d   1     -45.215  13.268  22.678  0.00  0.00    -0.273 OA
BRANCH  17  18
ATOM     18  C   UNL d   1     -44.871  12.972  21.993  0.00  0.00     0.300 C 
ATOM     19  O   UNL d   1     -45.282  13.010  21.279  0.00  0.00    -0.259 OA
BRANCH  18  20
ATOM     20  C   UNL d   1     -44.115  12.637  22.027  0.00  0.00     0.069 C 
ATOM     21  C   UNL d   1     -43.596  12.740  21.392  0.00  0.00     0.006 C 
ENDBRANCH  18  20
ENDBRANCH  17  18
ENDBRANCH   8  17
TORSDOF 5
ENDMDL
MODEL 5
REMARK VINA RESULT:      -6.5      0.810      4.151
REMARK  5 active torsions:
REMARK  status: ('A' for Active; 'I' for Inactive)
REMARK    1  A    between atoms: C_6  and  C_1 
REMARK    2  A    between atoms: C_7  and  C_6 
REMARK    3  A    between atoms: C_10  and  O_14 
REMARK    4  A    between atoms: C_20  and  C_10 
REMARK    5  A    between atoms: O_14  and  C_12 
ROOT
ATOM      1  C   UNL d   1     -47.454  12.078  23.381  0.00  0.00     0.141 A 
ATOM      2  C   UNL d   1     -48.741  11.751  23.463  0.00  0.00     0.064 A 
ATOM      3  C   UNL d   1     -47.978  11.461  23.523  0.00  0.00     0.220 A 
ATOM      4  C   UNL d   1     -48.695  12.555  23.282  0.00  0.00     0.105 A 
ATOM      5  O   UNL d   1     -47.895  12.763  23.230  0.00  0.00    -0.304 OA
ATOM      6  C   UNL d   1     -49.380  12.992  23.189  0.00  0.00     0.050 A 
ATOM      7  C   UNL d   1     -49.476  11.390  23.549  0.00  0.00     0.007 A 
ATOM      8  C   UNL d   1     -50.114  12.631  23.275  0.00  0.00     0.105 A 
ATOM      9  O   UNL d   1     -47.764  10.678  23.697  0.00  0.00    -0.284 OA
ATOM     10  C   UNL d   1     -50.160  11.831  23.454  0.00  0.00     0.025 A 
ENDROOT
BRANCH   1  11
ATOM     11  C   UNL d   1     -46.630  12.032  23.385  0.00  0.00     0.053 C 
BRANCH  11  12
ATOM     12  C   UNL d   1     -46.173  12.638  23.056  0.00  0.00     0.102 A 
ATOM     13  O   UNL d   1     -46.005  13.366  23.396  0.00  0.00    -0.305 OA
ATOM     14  C   UNL d   1     -45.533  13.794  22.874  0.00  0.00     0.123 A 
ATOM     15  C   UNL d   1     -45.403  13.330  22.202  0.00  0.00     0.029 A 
ATOM     16  C   UNL d   1     -45.798  12.613  22.311  0.00  0.00     0.027 A 
ENDBRANCH  11  12
ENDBRANCH   1  11
BRANCH   8  17
ATOM     17  O   UNL d   1     -50.802  13.072  23.181  0.00  0.00    -0.273 OA
BRANCH  17  18
ATOM     18  C   UNL d   1     -50.961  13.441  22.464  0.00  0.00     0.300 C 
ATOM     19  O   UNL d   1     -51.063  12.987  21.783  0.00  0.00    -0.259 OA
BRANCH  18  20
ATOM     20  C   UNL d   1     -51.017  14.266  22.432  0.00  0.00     0.069 C 
ATOM     21  C   UNL d   1     -51.064  14.642  21.697  0.00  0.00     0.006 C 
ENDBRANCH  18  20
ENDBRANCH  17  18
ENDBRANCH   8  17
TORSDOF 5
ENDMDL
MODEL 6
REMARK VINA RESULT:      -6.2      1.453      4.608
REMARK  5 active torsions:
REMARK  status: ('A' for Active; 'I' for Inactive)
REMARK    1  A    between atoms: C_6  and  C_1 
REMARK    2  A    between atoms: C_7  and  C_6 
REMARK    3  A    between atoms: C_10  and  O_14 
REMARK    4  A    between atoms: C_20  and  C_10 
REMARK    5  A    between atoms: O_14  and  C_12 
ROOT
ATOM      1  C   UNL d   1     -47.098  14.312  22.914  0.00  0.00     0.141 A 
ATOM      2  C   UNL d   1     -48.321  14.775  22.667  0.00  0.00     0.064 A 
ATOM      3  C   UNL d   1     -47.522  14.929  22.573  0.00  0.00     0.220 A 
ATOM      4  C   UNL d   1     -48.398  14.058  23.068  0.00  0.00     0.105 A 
ATOM      5  O   UNL d   1     -47.639  13.766  23.223  0.00  0.00    -0.304 OA
ATOM      6  C   UNL d   1     -49.141  13.764  23.240  0.00  0.00     0.050 A 
ATOM      7  C   UNL d   1     -48.992  15.194  22.440  0.00  0.00     0.007 A 
ATOM      8  C   UNL d   1     -49.812  14.183  23.012  0.00  0.00     0.105 A 
ATOM      9  O   UNL d   1     -47.191  15.591  22.200  0.00  0.00    -0.284 OA
ATOM     10  C   UNL d   1     -49.736  14.897  22.613  0.00  0.00     0.025 A 
ENDROOT
BRANCH   1  11
ATOM     11  C   UNL d   1     -46.276  14.241  22.945  0.00  0.00     0.053 C 
BRANCH  11  12
ATOM     12  C   UNL d   1     -45.911  13.511  22.805  0.00  0.00     0.102 A 
ATOM     13  O   UNL d   1     -45.876  12.874  23.322  0.00  0.00    -0.305 OA
ATOM     14  C   UNL d   1     -45.460  12.265  22.955  0.00  0.00     0.123 A 
ATOM     15  C   UNL d   1     -45.233  12.523  22.203  0.00  0.00     0.029 A 
ATOM     16  C   UNL d   1     -45.511  13.295  22.107  0.00  0.00     0.027 A 
ENDBRANCH  11  12
ENDBRANCH   1  11
BRANCH   8  17
ATOM     17  O   UNL d   1     -50.560  13.886  23.186  0.00  0.00    -0.273 OA
BRANCH  17  18
ATOM     18  C   UNL d   1     -50.729  13.093  23.055  0.00  0.00     0.300 C 
ATOM     19  O   UNL d   1     -50.728  12.795  22.286  0.00  0.00    -0.259 OA
BRANCH  18  20
ATOM     20  C   UNL d   1     -50.899  12.600  23.697  0.00  0.00     0.069 C 
ATOM     21  C   UNL d   1     -51.064  11.801  23.564  0.00  0.00     0.006 C 
ENDBRANCH  18  20
ENDBRANCH  17  18
ENDBRANCH   8  17
TORSDOF 5
ENDMDL
MODEL 7
REMARK VINA RESULT:      -5.9      8.617     10.115
REMARK  5 active torsions:
REMARK  status: ('A' for Active; 'I' for Inactive)
REMARK    1  A    between atoms: C_6  and  C_1 
REMARK    2  A    between atoms: C_7  and  C_6 
REMARK    3  A    between atoms: C_10  and  O_14 
REMARK    4  A    between atoms: C_20  and  C_10 
REMARK    5  A    between atoms: O_14  and  C_12 
ROOT
ATOM      1  C   UNL d   1     -40.192  14.977  18.016  0.00  0.00     0.141 A 
ATOM      2  C   UNL d   1     -40.458  14.709  19.293  0.00  0.00     0.064 A 
ATOM      3  C   UNL d   1     -40.546  14.437  18.525  0.00  0.00     0.220 A 
ATOM      4  C   UNL d   1     -40.046  15.424  19.265  0.00  0.00     0.105 A 
ATOM      5  O   UNL d   1     -39.879  15.594  18.471  0.00  0.00    -0.304 OA
ATOM      6  C   UNL d   1     -39.877  15.825  19.956  0.00  0.00     0.050 A 
ATOM      7  C   UNL d   1     -40.698  14.401  20.018  0.00  0.00     0.007 A 
ATOM      8  C   UNL d   1     -40.118  15.517  20.681  0.00  0.00     0.105 A 
ATOM      9  O   UNL d   1     -40.927  13.737  18.295  0.00  0.00    -0.284 OA
ATOM     10  C   UNL d   1     -40.528  14.806  20.709  0.00  0.00     0.025 A 
ENDROOT
BRANCH   1  11
ATOM     11  C   UNL d   1     -40.151  14.921  17.194  0.00  0.00     0.053 C 
BRANCH  11  12
ATOM     12  C   UNL d   1     -39.457  15.124  16.792  0.00  0.00     0.102 A 
ATOM     13  O   UNL d   1     -39.225  15.879  16.567  0.00  0.00    -0.305 OA
ATOM     14  C   UNL d   1     -38.498  15.822  16.182  0.00  0.00     0.123 A 
ATOM     15  C   UNL d   1     -38.275  15.026  16.166  0.00  0.00     0.029 A 
ATOM     16  C   UNL d   1     -38.867  14.591  16.544  0.00  0.00     0.027 A 
ENDBRANCH  11  12
ENDBRANCH   1  11
BRANCH   8  17
ATOM     17  O   UNL d   1     -39.947  15.922  21.376  0.00  0.00    -0.273 OA
BRANCH  17  18
ATOM     18  C   UNL d   1     -39.245  15.776  21.777  0.00  0.00     0.300 C 
ATOM     19  O   UNL d   1     -38.523  15.907  21.401  0.00  0.00    -0.259 OA
BRANCH  18  20
ATOM     20  C   UNL d   1     -39.270  15.498  22.556  0.00  0.00     0.069 C 
ATOM     21  C   UNL d   1     -38.778  15.841  23.126  0.00  0.00     0.006 C 
ENDBRANCH  18  20
ENDBRANCH  17  18
ENDBRANCH   8  17
TORSDOF 5
ENDMDL
MODEL 8
REMARK VINA RESULT:      -5.5      8.784     10.190
REMARK  5 active torsions:
REMARK  status: ('A' for Active; 'I' for Inactive)
REMARK    1  A    between atoms: C_6  and  C_1 
REMARK    2  A    between atoms: C_7  and  C_6 
REMARK    3  A    between atoms: C_10  and  O_14 
REMARK    4  A    between atoms: C_20  and  C_10 
REMARK    5  A    between atoms: O_14  and  C_12 
ROOT
ATOM      1  C   UNL d   1     -39.897  14.635  20.434  0.00  0.00     0.141 A 
ATOM      2  C   UNL d   1     -40.324  14.751  19.179  0.00  0.00     0.064 A 
ATOM      3  C   UNL d   1     -40.458  14.992  19.951  0.00  0.00     0.220 A 
ATOM      4  C   UNL d   1     -39.675  14.242  19.179  0.00  0.00     0.105 A 
ATOM      5  O   UNL d   1     -39.406  14.166  19.959  0.00  0.00    -0.304 OA
ATOM      6  C   UNL d   1     -39.414  13.914  18.478  0.00  0.00     0.050 A 
ATOM      7  C   UNL d   1     -40.708  14.929  18.473  0.00  0.00     0.007 A 
ATOM      8  C   UNL d   1     -39.797  14.092  17.771  0.00  0.00     0.105 A 
ATOM      9  O   UNL d   1     -41.056  15.506  20.206  0.00  0.00    -0.284 OA
ATOM     10  C   UNL d   1     -40.443  14.599  17.771  0.00  0.00     0.025 A 
ENDROOT
BRANCH   1  11
ATOM     11  C   UNL d   1     -39.827  14.723  21.252  0.00  0.00     0.053 C 
BRANCH  11  12
ATOM     12  C   UNL d   1     -39.220  14.343  21.666  0.00  0.00     0.102 A 
ATOM     13  O   UNL d   1     -38.436  14.581  21.715  0.00  0.00    -0.305 OA
ATOM     14  C   UNL d   1     -38.029  14.040  22.184  0.00  0.00     0.123 A 
ATOM     15  C   UNL d   1     -38.562  13.458  22.430  0.00  0.00     0.029 A 
ATOM     16  C   UNL d   1     -39.302  13.643  22.111  0.00  0.00     0.027 A 
ENDBRANCH  11  12
ENDBRANCH   1  11
BRANCH   8  17
ATOM     17  O   UNL d   1     -39.533  13.761  17.066  0.00  0.00    -0.273 OA
BRANCH  17  18
ATOM     18  C   UNL d   1     -38.921  14.115  16.648  0.00  0.00     0.300 C 
ATOM     19  O   UNL d   1     -38.980  14.908  16.427  0.00  0.00    -0.259 OA
BRANCH  18  20
ATOM     20  C   UNL d   1     -38.250  13.673  16.452  0.00  0.00     0.069 C 
ATOM     21  C   UNL d   1     -37.943  13.717  15.685  0.00  0.00     0.006 C 
ENDBRANCH  18  20
ENDBRANCH  17  18
ENDBRANCH   8  17
TORSDOF 5
ENDMDL
MODEL 9
REMARK VINA RESULT:      -5.1      1.288      4.773
REMARK  5 active torsions:
REMARK  status: ('A' for Active; 'I' for Inactive)
REMARK    1  A    between atoms: C_6  and  C_1 
REMARK    2  A    between atoms: C_7  and  C_6 
REMARK    3  A    between atoms: C_10  and  O_14 
REMARK    4  A    between atoms: C_20  and  C_10 
REMARK    5  A    between atoms: O_14  and  C_12 
ROOT
ATOM      1  C   UNL d   1     -45.576  12.449  22.875  0.00  0.00     0.141 A 
ATOM      2  C   UNL d   1     -46.656  13.188  22.628  0.00  0.00     0.064 A 
ATOM      3  C   UNL d   1     -45.843  13.146  22.530  0.00  0.00     0.220 A 
ATOM      4  C   UNL d   1     -46.899  12.514  23.037  0.00  0.00     0.105 A 
ATOM      5  O   UNL d   1     -46.229  12.051  23.193  0.00  0.00    -0.304 OA
ATOM      6  C   UNL d   1     -47.689  12.407  23.214  0.00  0.00     0.050 A 
ATOM      7  C   UNL d   1     -47.210  13.752  22.399  0.00  0.00     0.007 A 
ATOM      8  C   UNL d   1     -48.243  12.971  22.985  0.00  0.00     0.105 A 
ATOM      9  O   UNL d   1     -45.367  13.708  22.149  0.00  0.00    -0.284 OA
ATOM     10  C   UNL d   1     -48.001  13.642  22.578  0.00  0.00     0.025 A 
ENDROOT
BRANCH   1  11
ATOM     11  C   UNL d   1     -44.795  12.186  22.905  0.00  0.00     0.053 C 
BRANCH  11  12
ATOM     12  C   UNL d   1     -44.620  11.413  23.145  0.00  0.00     0.102 A 
ATOM     13  O   UNL d   1     -45.101  10.918  23.590  0.00  0.00    -0.305 OA
ATOM     14  C   UNL d   1     -44.707  10.202  23.698  0.00  0.00     0.123 A 
ATOM     15  C   UNL d   1     -43.974  10.250  23.318  0.00  0.00     0.029 A 
ATOM     16  C   UNL d   1     -43.917  11.000  22.973  0.00  0.00     0.027 A 
ENDBRANCH  11  12
ENDBRANCH   1  11
BRANCH   8  17
ATOM     17  O   UNL d   1     -49.038  12.862  23.164  0.00  0.00    -0.273 OA
BRANCH  17  18
ATOM     18  C   UNL d   1     -49.571  12.663  22.571  0.00  0.00     0.300 C 
ATOM     19  O   UNL d   1     -49.468  11.964  22.146  0.00  0.00    -0.259 OA
BRANCH  18  20
ATOM     20  C   UNL d   1     -50.207  13.166  22.407  0.00  0.00     0.069 C 
ATOM     21  C   UNL d   1     -50.801  12.915  21.888  0.00  0.00     0.006 C 
ENDBRANCH  18  20
ENDBRANCH  17  18
ENDBRANCH   8  17
TORSDOF 5
ENDMDL
