MODEL 1
REMARK VINA RESULT:      10.1      0.000      0.000
REMARK  2 active torsions:
REMARK  status: ('A' for Active; 'I' for Inactive)
REMARK    1  A    between atoms: C_6  and  C_1 
REMARK    2  A    between atoms: C_7  and  C_5 
ROOT
ATOM      1  C   UNL d   1      13.429  12.222  -4.342  0.00  0.00     0.169 A 
ATOM      2  C   UNL d   1      13.963  12.374  -3.711  0.00  0.00     0.048 A 
ATOM      3  N   UNL d   1      12.872  11.779  -3.190  0.00  0.00    -0.148 NA
ATOM      4  N   UNL d   1      12.769  11.861  -4.017  0.00  0.00    -0.142 NA
ATOM      5  C   UNL d   1      13.625  12.105  -3.013  0.00  0.00     0.105 A 
ENDROOT
BRANCH   5   6
ATOM      6  C   UNL d   1      13.959  12.144  -2.262  0.00  0.00     0.019 A 
ATOM      7  C   UNL d   1      14.669  12.549  -2.150  0.00  0.00     0.002 A 
ATOM      8  C   UNL d   1      15.007  12.590  -1.401  0.00  0.00     0.011 A 
ATOM      9  C   UNL d   1      14.652  12.234  -0.747  0.00  0.00     0.058 A 
ATOM     10  C   UNL d   1      13.944  11.832  -0.866  0.00  0.00     0.011 A 
ATOM     11 CL   UNL d   1      14.984  12.276  -0.015  0.00  0.00    -0.082 Cl
ATOM     12  C   UNL d   1      13.593  11.782  -1.613  0.00  0.00     0.002 A 
ENDBRANCH   5   6
BRANCH   1  13
ATOM     13  C   UNL d   1      13.557  12.409  -5.145  0.00  0.00     0.231 C 
ATOM     14  O   UNL d   1      13.708  11.813  -5.706  0.00  0.00    -0.643 OA
ATOM     15  O   UNL d   1      13.529  13.212  -5.373  0.00  0.00    -0.643 OA
ENDBRANCH   1  13
TORSDOF 2
ENDMDL
MODEL 2
REMARK VINA RESULT:      10.5      2.691      3.700
REMARK  2 active torsions:
REMARK  status: ('A' for Active; 'I' for Inactive)
REMARK    1  A    between atoms: C_6  and  C_1 
REMARK    2  A    between atoms: C_7  and  C_5 
ROOT
ATOM      1  C   UNL d   1      14.513  12.723  -1.133  0.00  0.00     0.169 A 
ATOM      2  C   UNL d   1      14.346  12.991  -1.912  0.00  0.00     0.048 A 
ATOM      3  N   UNL d   1      13.775  11.780  -1.765  0.00  0.00    -0.148 NA
ATOM      4  N   UNL d   1      14.162  11.987  -1.052  0.00  0.00    -0.142 NA
ATOM      5  C   UNL d   1      13.899  12.419  -2.295  0.00  0.00     0.105 A 
ENDROOT
BRANCH   5   6
ATOM      6  C   UNL d   1      13.615  12.456  -3.066  0.00  0.00     0.019 A 
ATOM      7  C   UNL d   1      13.629  11.780  -3.540  0.00  0.00     0.002 A 
ATOM      8  C   UNL d   1      13.346  11.812  -4.312  0.00  0.00     0.011 A 
ATOM      9  C   UNL d   1      13.045  12.509  -4.633  0.00  0.00     0.058 A 
ATOM     10  C   UNL d   1      13.034  13.179  -4.155  0.00  0.00     0.011 A 
ATOM     11 CL   UNL d   1      12.769  12.537  -5.389  0.00  0.00    -0.082 Cl
ATOM     12  C   UNL d   1      13.315  13.161  -3.377  0.00  0.00     0.002 A 
ENDBRANCH   5   6
BRANCH   1  13
ATOM     13  C   UNL d   1      14.953  13.137  -0.558  0.00  0.00     0.231 C 
ATOM     14  O   UNL d   1      14.778  13.928  -0.369  0.00  0.00    -0.643 OA
ATOM     15  O   UNL d   1      15.577  12.736  -0.175  0.00  0.00    -0.643 OA
ENDBRANCH   1  13
TORSDOF 2
ENDMDL
