MODEL 1
REMARK VINA RESULT:      54.3      0.000      0.000
REMARK  12 active torsions:
REMARK  status: ('A' for Active; 'I' for Inactive)
REMARK    1  A    between atoms: C_18  and  N_1 
REMARK    2  A    between atoms: C_9  and  N_3 
REMARK    3  A    between atoms: C_12  and  C_9 
REMARK       I    between atoms: N_19  and  C_12 
REMARK    4  A    between atoms: C_14  and  C_22 
REMARK       I    between atoms: N_15  and  C_14 
REMARK    5  A    between atoms: C_20  and  N_15 
REMARK    6  A    between atoms: C_27  and  C_18 
REMARK    7  A    between atoms: C_23  and  N_19 
REMARK    8  A    between atoms: O_21  and  C_24 
REMARK    9  A    between atoms: C_22  and  C_29 
REMARK   10  A    between atoms: C_24  and  C_23 
REMARK   11  A    between atoms: C_30  and  C_27 
REMARK   12  A    between atoms: C_29  and  C_30 
ROOT
ATOM      1  N   UNL d   1     -50.657  25.931  33.329  0.00  0.00    -0.225 N 
ATOM      2  C   UNL d   1     -51.454  25.718  33.337  0.00  0.00     0.342 A 
ATOM      3  N   UNL d   1     -51.679  24.916  33.340  0.00  0.00    -0.253 N 
ATOM      4  C   UNL d   1     -50.290  24.554  33.325  0.00  0.00     0.102 A 
ATOM      5  C   UNL d   1     -50.082  25.347  33.322  0.00  0.00     0.276 A 
ATOM      6  C   UNL d   1     -51.095  24.327  33.333  0.00  0.00     0.080 A 
ATOM      7  S   UNL d   1     -49.826  23.850  33.319  0.00  0.00    -0.080 SA
ATOM      8  C   UNL d   1     -51.138  23.487  33.334  0.00  0.00     0.025 A 
ATOM      9  O   UNL d   1     -52.043  26.294  33.344  0.00  0.00    -0.245 OA
ATOM     10  C   UNL d   1     -50.353  23.192  33.325  0.00  0.00     0.037 A 
ATOM     11  O   UNL d   1     -49.292  25.567  33.313  0.00  0.00    -0.266 OA
ENDROOT
BRANCH   1  12
ATOM     12  C   UNL d   1     -50.454  26.718  33.326  0.00  0.00     0.087 C 
BRANCH  12  13
ATOM     13  C   UNL d   1     -49.672  26.941  33.489  0.00  0.00     0.019 C 
BRANCH  13  14
ATOM     14  C   UNL d   1     -49.405  26.955  34.268  0.00  0.00     0.002 C 
BRANCH  14  15
ATOM     15  C   UNL d   1     -48.935  27.575  34.531  0.00  0.00     0.005 C 
BRANCH  15  16
ATOM     16  C   UNL d   1     -49.131  27.983  35.216  0.00  0.00     0.062 C 
BRANCH  16  17
ATOM     17  C   UNL d   1     -48.657  28.609  35.478  0.00  0.00     0.279 C 
ATOM     18  N   UNL d   1     -48.389  29.178  34.939  0.00  0.00    -0.208 NA
ATOM     19  O   UNL d   1     -48.456  28.662  36.276  0.00  0.00    -0.265 OA
BRANCH  18  20
ATOM     20  C   UNL d   1     -47.920  29.796  35.202  0.00  0.00     0.085 A 
ATOM     21  C   UNL d   1     -48.226  30.558  35.211  0.00  0.00     0.019 A 
ATOM     22  C   UNL d   1     -47.755  31.184  35.476  0.00  0.00     0.002 A 
ATOM     23  C   UNL d   1     -46.979  31.038  35.729  0.00  0.00     0.000 A 
ATOM     24  C   UNL d   1     -46.681  30.273  35.716  0.00  0.00     0.002 A 
ATOM     25  C   UNL d   1     -47.148  29.650  35.453  0.00  0.00     0.019 A 
ENDBRANCH  18  20
ENDBRANCH  16  17
ENDBRANCH  15  16
ENDBRANCH  14  15
ENDBRANCH  13  14
ENDBRANCH  12  13
ENDBRANCH   1  12
BRANCH   3  26
ATOM     26  C   UNL d   1     -52.480  24.716  33.349  0.00  0.00     0.147 C 
BRANCH  26  27
ATOM     27  C   UNL d   1     -52.723  24.001  33.694  0.00  0.00     0.297 C 
ATOM     28  O   UNL d   1     -52.616  23.289  33.307  0.00  0.00    -0.264 OA
ATOM     29  N   UNL d   1     -53.085  24.008  34.449  0.00  0.00    -0.203 NA
BRANCH  29  30
ATOM     30  C   UNL d   1     -53.333  23.291  34.802  0.00  0.00     0.129 C 
BRANCH  30  31
ATOM     31  C   UNL d   1     -53.637  23.290  35.569  0.00  0.00     0.137 C 
BRANCH  31  32
ATOM     32  O   UNL d   1     -53.734  23.995  35.978  0.00  0.00    -0.325 OA
ATOM     33  C   UNL d   1     -53.222  24.183  36.596  0.00  0.00     0.182 C 
ENDBRANCH  31  32
ENDBRANCH  30  31
ENDBRANCH  29  30
ENDBRANCH  26  27
ENDBRANCH   3  26
TORSDOF 12
ENDMDL
