MODEL 1
REMARK VINA RESULT:      -2.0      0.000      0.000
REMARK  3 active torsions:
REMARK  status: ('A' for Active; 'I' for Inactive)
REMARK    1  A    between atoms: C_6  and  C_1 
REMARK    2  A    between atoms: C_7  and  C_2 
REMARK    3  A    between atoms: O_14  and  C_12 
ROOT
ATOM      1  C   UNL d   1      30.433  16.892 -24.024  0.00  0.00     0.084 A 
ATOM      2  C   UNL d   1      30.133  16.139 -23.867  0.00  0.00     0.105 A 
ATOM      3  C   UNL d   1      31.241  16.875 -23.878  0.00  0.00     0.031 A 
ATOM      4  O   UNL d   1      30.758  15.658 -23.624  0.00  0.00    -0.307 OA
ATOM      5  C   UNL d   1      31.441  16.118 -23.633  0.00  0.00     0.100 A 
ATOM      6  C   UNL d   1      31.823  17.450 -23.937  0.00  0.00     0.026 A 
ATOM      7  C   UNL d   1      32.224  15.930 -23.444  0.00  0.00     0.027 A 
ATOM      8  C   UNL d   1      32.608  17.277 -23.752  0.00  0.00     0.094 A 
ATOM      9  C   UNL d   1      32.811  16.507 -23.502  0.00  0.00     0.026 A 
ENDROOT
BRANCH   2  10
ATOM     10  C   UNL d   1      29.340  15.910 -23.942  0.00  0.00     0.023 A 
ATOM     11  C   UNL d   1      28.851  15.923 -23.277  0.00  0.00     0.002 A 
ATOM     12  C   UNL d   1      28.071  15.699 -23.347  0.00  0.00     0.000 A 
ATOM     13  C   UNL d   1      27.780  15.461 -24.080  0.00  0.00     0.000 A 
ATOM     14  C   UNL d   1      28.282  15.453 -24.739  0.00  0.00     0.000 A 
ATOM     15  C   UNL d   1      29.047  15.673 -24.671  0.00  0.00     0.002 A 
ENDBRANCH   2  10
BRANCH   1  16
ATOM     16  C   UNL d   1      30.001  17.546 -24.282  0.00  0.00     0.299 C 
ATOM     17  O   UNL d   1      29.608  18.017 -23.739  0.00  0.00    -0.264 OA
ATOM     18  N   UNL d   1      29.959  17.731 -25.077  0.00  0.00    -0.102 N 
ENDBRANCH   1  16
BRANCH   8  19
ATOM     19  O   UNL d   1      33.190  17.852 -23.811  0.00  0.00    -0.328 OA
ATOM     20  C   UNL d   1      33.089  18.580 -23.427  0.00  0.00     0.181 C 
ENDBRANCH   8  19
TORSDOF 3
ENDMDL
MODEL 2
REMARK VINA RESULT:      -1.3      4.678      6.898
REMARK  3 active torsions:
REMARK  status: ('A' for Active; 'I' for Inactive)
REMARK    1  A    between atoms: C_6  and  C_1 
REMARK    2  A    between atoms: C_7  and  C_2 
REMARK    3  A    between atoms: O_14  and  C_12 
ROOT
ATOM      1  C   UNL d   1      32.608  21.826 -21.023  0.00  0.00     0.084 A 
ATOM      2  C   UNL d   1      32.859  21.785 -20.238  0.00  0.00     0.105 A 
ATOM      3  C   UNL d   1      32.730  21.089 -21.364  0.00  0.00     0.031 A 
ATOM      4  O   UNL d   1      33.137  21.021 -20.096  0.00  0.00    -0.307 OA
ATOM      5  C   UNL d   1      33.055  20.595 -20.796  0.00  0.00     0.100 A 
ATOM      6  C   UNL d   1      32.588  20.802 -22.120  0.00  0.00     0.026 A 
ATOM      7  C   UNL d   1      33.241  19.810 -20.978  0.00  0.00     0.027 A 
ATOM      8  C   UNL d   1      32.769  20.021 -22.315  0.00  0.00     0.094 A 
ATOM      9  C   UNL d   1      33.099  19.519 -21.737  0.00  0.00     0.026 A 
ENDROOT
BRANCH   2  10
ATOM     10  C   UNL d   1      32.835  22.407 -19.690  0.00  0.00     0.023 A 
ATOM     11  C   UNL d   1      32.401  22.316 -18.994  0.00  0.00     0.002 A 
ATOM     12  C   UNL d   1      32.376  22.924 -18.454  0.00  0.00     0.000 A 
ATOM     13  C   UNL d   1      32.784  23.624 -18.608  0.00  0.00     0.000 A 
ATOM     14  C   UNL d   1      33.215  23.702 -19.311  0.00  0.00     0.000 A 
ATOM     15  C   UNL d   1      33.241  23.105 -19.842  0.00  0.00     0.002 A 
ENDBRANCH   2  10
BRANCH   1  16
ATOM     16  C   UNL d   1      32.289  22.488 -21.400  0.00  0.00     0.299 C 
ATOM     17  O   UNL d   1      31.492  22.659 -21.324  0.00  0.00    -0.264 OA
ATOM     18  N   UNL d   1      32.763  22.978 -21.851  0.00  0.00    -0.102 N 
ENDBRANCH   1  16
BRANCH   8  19
ATOM     19  O   UNL d   1      32.627  19.734 -23.071  0.00  0.00    -0.328 OA
ATOM     20  C   UNL d   1      33.127  19.157 -23.392  0.00  0.00     0.181 C 
ENDBRANCH   8  19
TORSDOF 3
ENDMDL
MODEL 3
REMARK VINA RESULT:      -1.0      3.572      6.114
REMARK  3 active torsions:
REMARK  status: ('A' for Active; 'I' for Inactive)
REMARK    1  A    between atoms: C_6  and  C_1 
REMARK    2  A    between atoms: C_7  and  C_2 
REMARK    3  A    between atoms: O_14  and  C_12 
ROOT
ATOM      1  C   UNL d   1      32.791  20.748 -21.740  0.00  0.00     0.084 A 
ATOM      2  C   UNL d   1      32.849  21.528 -22.003  0.00  0.00     0.105 A 
ATOM      3  C   UNL d   1      32.925  20.256 -22.384  0.00  0.00     0.031 A 
ATOM      4  O   UNL d   1      33.018  21.516 -22.811  0.00  0.00    -0.307 OA
ATOM      5  C   UNL d   1      33.064  20.726 -23.041  0.00  0.00     0.100 A 
ATOM      6  C   UNL d   1      32.938  19.439 -22.458  0.00  0.00     0.026 A 
ATOM      7  C   UNL d   1      33.218  20.385 -23.779  0.00  0.00     0.027 A 
ATOM      8  C   UNL d   1      33.090  19.085 -23.188  0.00  0.00     0.094 A 
ATOM      9  C   UNL d   1      33.232  19.564 -23.856  0.00  0.00     0.026 A 
ENDROOT
BRANCH   2  10
ATOM     10  C   UNL d   1      32.753  22.205 -21.533  0.00  0.00     0.023 A 
ATOM     11  C   UNL d   1      32.166  22.751 -21.727  0.00  0.00     0.002 A 
ATOM     12  C   UNL d   1      32.068  23.417 -21.268  0.00  0.00     0.000 A 
ATOM     13  C   UNL d   1      32.557  23.536 -20.616  0.00  0.00     0.000 A 
ATOM     14  C   UNL d   1      33.143  22.979 -20.432  0.00  0.00     0.000 A 
ATOM     15  C   UNL d   1      33.239  22.326 -20.882  0.00  0.00     0.002 A 
ENDBRANCH   2  10
BRANCH   1  16
ATOM     16  C   UNL d   1      32.629  20.503 -20.968  0.00  0.00     0.299 C 
ATOM     17  O   UNL d   1      33.241  20.280 -20.472  0.00  0.00    -0.264 OA
ATOM     18  N   UNL d   1      31.860  20.481 -20.692  0.00  0.00    -0.102 N 
ENDBRANCH   1  16
BRANCH   8  19
ATOM     19  O   UNL d   1      33.103  18.267 -23.263  0.00  0.00    -0.328 OA
ATOM     20  C   UNL d   1      32.404  17.860 -23.443  0.00  0.00     0.181 C 
ENDBRANCH   8  19
TORSDOF 3
ENDMDL
MODEL 4
REMARK VINA RESULT:      -0.3      1.059      3.637
REMARK  3 active torsions:
REMARK  status: ('A' for Active; 'I' for Inactive)
REMARK    1  A    between atoms: C_6  and  C_1 
REMARK    2  A    between atoms: C_7  and  C_2 
REMARK    3  A    between atoms: O_14  and  C_12 
ROOT
ATOM      1  C   UNL d   1      30.249  17.139 -23.935  0.00  0.00     0.084 A 
ATOM      2  C   UNL d   1      30.927  16.710 -23.744  0.00  0.00     0.105 A 
ATOM      3  C   UNL d   1      29.597  16.703 -23.688  0.00  0.00     0.031 A 
ATOM      4  O   UNL d   1      30.692  16.008 -23.378  0.00  0.00    -0.307 OA
ATOM      5  C   UNL d   1      29.870  16.009 -23.346  0.00  0.00     0.100 A 
ATOM      6  C   UNL d   1      28.791  16.848 -23.729  0.00  0.00     0.026 A 
ATOM      7  C   UNL d   1      29.338  15.453 -23.043  0.00  0.00     0.027 A 
ATOM      8  C   UNL d   1      28.249  16.302 -23.430  0.00  0.00     0.094 A 
ATOM      9  C   UNL d   1      28.526  15.596 -23.083  0.00  0.00     0.026 A 
ENDROOT
BRANCH   2  10
ATOM     10  C   UNL d   1      31.707  16.946 -23.895  0.00  0.00     0.023 A 
ATOM     11  C   UNL d   1      32.118  16.605 -24.523  0.00  0.00     0.002 A 
ATOM     12  C   UNL d   1      32.885  16.834 -24.675  0.00  0.00     0.000 A 
ATOM     13  C   UNL d   1      33.240  17.405 -24.198  0.00  0.00     0.000 A 
ATOM     14  C   UNL d   1      32.815  17.740 -23.570  0.00  0.00     0.000 A 
ATOM     15  C   UNL d   1      32.063  17.515 -23.422  0.00  0.00     0.002 A 
ENDBRANCH   2  10
BRANCH   1  16
ATOM     16  C   UNL d   1      30.225  17.875 -24.308  0.00  0.00     0.299 C 
ATOM     17  O   UNL d   1      30.409  18.554 -23.888  0.00  0.00    -0.264 OA
ATOM     18  N   UNL d   1      30.020  17.936 -25.097  0.00  0.00    -0.102 N 
ENDBRANCH   1  16
BRANCH   8  19
ATOM     19  O   UNL d   1      27.442  16.446 -23.471  0.00  0.00    -0.328 OA
ATOM     20  C   UNL d   1      26.954  16.236 -22.834  0.00  0.00     0.181 C 
ENDBRANCH   8  19
TORSDOF 3
ENDMDL
MODEL 5
REMARK VINA RESULT:       0.5      2.829      4.502
REMARK  3 active torsions:
REMARK  status: ('A' for Active; 'I' for Inactive)
REMARK    1  A    between atoms: C_6  and  C_1 
REMARK    2  A    between atoms: C_7  and  C_2 
REMARK    3  A    between atoms: O_14  and  C_12 
ROOT
ATOM      1  C   UNL d   1      32.780  19.755 -22.943  0.00  0.00     0.084 A 
ATOM      2  C   UNL d   1      32.822  19.030 -22.550  0.00  0.00     0.105 A 
ATOM      3  C   UNL d   1      32.922  20.347 -22.391  0.00  0.00     0.031 A 
ATOM      4  O   UNL d   1      32.991  19.177 -21.755  0.00  0.00    -0.307 OA
ATOM      5  C   UNL d   1      33.051  19.993 -21.663  0.00  0.00     0.100 A 
ATOM      6  C   UNL d   1      32.950  21.164 -22.457  0.00  0.00     0.026 A 
ATOM      7  C   UNL d   1      33.210  20.452 -20.994  0.00  0.00     0.027 A 
ATOM      8  C   UNL d   1      33.108  21.635 -21.797  0.00  0.00     0.094 A 
ATOM      9  C   UNL d   1      33.240  21.274 -21.057  0.00  0.00     0.026 A 
ENDROOT
BRANCH   2  10
ATOM     10  C   UNL d   1      32.714  18.285 -22.898  0.00  0.00     0.023 A 
ATOM     11  C   UNL d   1      32.073  18.165 -23.404  0.00  0.00     0.002 A 
ATOM     12  C   UNL d   1      31.963  17.435 -23.747  0.00  0.00     0.000 A 
ATOM     13  C   UNL d   1      32.494  16.825 -23.585  0.00  0.00     0.000 A 
ATOM     14  C   UNL d   1      33.133  16.959 -23.075  0.00  0.00     0.000 A 
ATOM     15  C   UNL d   1      33.241  17.676 -22.738  0.00  0.00     0.002 A 
ENDBRANCH   2  10
BRANCH   1  16
ATOM     16  C   UNL d   1      32.623  19.867 -23.745  0.00  0.00     0.299 C 
ATOM     17  O   UNL d   1      33.241  19.959 -24.275  0.00  0.00    -0.264 OA
ATOM     18  N   UNL d   1      31.853  19.889 -24.020  0.00  0.00    -0.102 N 
ENDBRANCH   1  16
BRANCH   8  19
ATOM     19  O   UNL d   1      33.137  22.452 -21.863  0.00  0.00    -0.328 OA
ATOM     20  C   UNL d   1      32.588  22.917 -21.450  0.00  0.00     0.181 C 
ENDBRANCH   8  19
TORSDOF 3
ENDMDL
MODEL 6
REMARK VINA RESULT:       0.5      3.860      5.731
REMARK  3 active torsions:
REMARK  status: ('A' for Active; 'I' for Inactive)
REMARK    1  A    between atoms: C_6  and  C_1 
REMARK    2  A    between atoms: C_7  and  C_2 
REMARK    3  A    between atoms: O_14  and  C_12 
ROOT
ATOM      1  C   UNL d   1      32.790  20.833 -21.866  0.00  0.00     0.084 A 
ATOM      2  C   UNL d   1      32.956  20.451 -22.578  0.00  0.00     0.105 A 
ATOM      3  C   UNL d   1      32.864  21.642 -21.993  0.00  0.00     0.031 A 
ATOM      4  O   UNL d   1      33.132  21.025 -23.145  0.00  0.00    -0.307 OA
ATOM      5  C   UNL d   1      33.074  21.759 -22.777  0.00  0.00     0.100 A 
ATOM      6  C   UNL d   1      32.768  22.288 -21.497  0.00  0.00     0.026 A 
ATOM      7  C   UNL d   1      33.190  22.523 -23.072  0.00  0.00     0.027 A 
ATOM      8  C   UNL d   1      32.880  23.056 -21.778  0.00  0.00     0.094 A 
ATOM      9  C   UNL d   1      33.093  23.175 -22.575  0.00  0.00     0.026 A 
ENDROOT
BRANCH   2  10
ATOM     10  C   UNL d   1      32.946  19.631 -22.699  0.00  0.00     0.023 A 
ATOM     11  C   UNL d   1      32.639  19.329 -23.403  0.00  0.00     0.002 A 
ATOM     12  C   UNL d   1      32.627  18.525 -23.526  0.00  0.00     0.000 A 
ATOM     13  C   UNL d   1      32.923  18.020 -22.944  0.00  0.00     0.000 A 
ATOM     14  C   UNL d   1      33.228  18.336 -22.242  0.00  0.00     0.000 A 
ATOM     15  C   UNL d   1      33.240  19.126 -22.122  0.00  0.00     0.002 A 
ENDBRANCH   2  10
BRANCH   1  16
ATOM     16  C   UNL d   1      32.586  20.472 -21.153  0.00  0.00     0.299 C 
ATOM     17  O   UNL d   1      31.800  20.322 -20.979  0.00  0.00    -0.264 OA
ATOM     18  N   UNL d   1      33.163  20.260 -20.614  0.00  0.00    -0.102 N 
ENDBRANCH   1  16
BRANCH   8  19
ATOM     19  O   UNL d   1      32.783  23.702 -21.281  0.00  0.00    -0.328 OA
ATOM     20  C   UNL d   1      32.442  23.598 -20.533  0.00  0.00     0.181 C 
ENDBRANCH   8  19
TORSDOF 3
ENDMDL
MODEL 7
REMARK VINA RESULT:       0.9      1.503      2.227
REMARK  3 active torsions:
REMARK  status: ('A' for Active; 'I' for Inactive)
REMARK    1  A    between atoms: C_6  and  C_1 
REMARK    2  A    between atoms: C_7  and  C_2 
REMARK    3  A    between atoms: O_14  and  C_12 
ROOT
ATOM      1  C   UNL d   1      31.459  17.520 -23.778  0.00  0.00     0.084 A 
ATOM      2  C   UNL d   1      31.079  17.419 -24.503  0.00  0.00     0.105 A 
ATOM      3  C   UNL d   1      31.896  18.215 -23.818  0.00  0.00     0.031 A 
ATOM      4  O   UNL d   1      31.282  18.054 -24.991  0.00  0.00    -0.307 OA
ATOM      5  C   UNL d   1      31.787  18.542 -24.562  0.00  0.00     0.100 A 
ATOM      6  C   UNL d   1      32.379  18.593 -23.273  0.00  0.00     0.026 A 
ATOM      7  C   UNL d   1      32.160  19.251 -24.768  0.00  0.00     0.027 A 
ATOM      8  C   UNL d   1      32.757  19.300 -23.466  0.00  0.00     0.094 A 
ATOM      9  C   UNL d   1      32.647  19.633 -24.222  0.00  0.00     0.026 A 
ENDROOT
BRANCH   2  10
ATOM     10  C   UNL d   1      30.580  16.788 -24.703  0.00  0.00     0.023 A 
ATOM     11  C   UNL d   1      29.763  16.901 -24.699  0.00  0.00     0.002 A 
ATOM     12  C   UNL d   1      29.270  16.284 -24.895  0.00  0.00     0.000 A 
ATOM     13  C   UNL d   1      29.593  15.553 -25.096  0.00  0.00     0.000 A 
ATOM     14  C   UNL d   1      30.415  15.453 -25.096  0.00  0.00     0.000 A 
ATOM     15  C   UNL d   1      30.899  16.058 -24.904  0.00  0.00     0.002 A 
ENDBRANCH   2  10
BRANCH   1  16
ATOM     16  C   UNL d   1      31.411  17.015 -23.127  0.00  0.00     0.299 C 
ATOM     17  O   UNL d   1      30.827  17.125 -22.564  0.00  0.00    -0.264 OA
ATOM     18  N   UNL d   1      31.944  16.401 -23.036  0.00  0.00    -0.102 N 
ENDBRANCH   1  16
BRANCH   8  19
ATOM     19  O   UNL d   1      33.241  19.679 -22.921  0.00  0.00    -0.328 OA
ATOM     20  C   UNL d   1      32.901  20.103 -22.295  0.00  0.00     0.181 C 
ENDBRANCH   8  19
TORSDOF 3
ENDMDL
