MODEL 1
REMARK VINA RESULT:      13.4      0.000      0.000
REMARK  5 active torsions:
REMARK  status: ('A' for Active; 'I' for Inactive)
REMARK    1  A    between atoms: C_7  and  C_1 
REMARK    2  A    between atoms: O_13  and  C_7 
REMARK    3  A    between atoms: C_15  and  C_9 
REMARK    4  A    between atoms: C_11  and  C_15 
REMARK    5  A    between atoms: C_18  and  O_13 
ROOT
ATOM      1  C   UNL d   1      45.549 -15.058  44.549  0.00  0.00     0.127 A 
ATOM      2  C   UNL d   1      44.916 -14.786  44.132  0.00  0.00     0.305 A 
ATOM      3  O   UNL d   1      44.827 -13.963  43.966  0.00  0.00    -0.273 OA
ATOM      4  C   UNL d   1      46.143 -14.530  44.833  0.00  0.00     0.013 A 
ATOM      5  C   UNL d   1      45.400 -13.424  44.236  0.00  0.00     0.103 A 
ATOM      6  C   UNL d   1      46.071 -13.713  44.678  0.00  0.00     0.023 A 
ATOM      7  O   UNL d   1      44.333 -15.338  43.858  0.00  0.00    -0.259 OA
ATOM      8  C   UNL d   1      45.328 -12.619  44.083  0.00  0.00     0.023 A 
ATOM      9  C   UNL d   1      46.645 -13.186  44.950  0.00  0.00     0.002 A 
ATOM     10  C   UNL d   1      46.555 -12.362  44.784  0.00  0.00     0.000 A 
ATOM     11  C   UNL d   1      45.923 -12.089  44.367  0.00  0.00     0.002 A 
ENDROOT
BRANCH   1  12
ATOM     12  C   UNL d   1      45.571 -15.866  44.673  0.00  0.00     0.305 C 
ATOM     13  O   UNL d   1      44.888 -16.269  44.949  0.00  0.00    -0.259 OA
BRANCH  12  14
ATOM     14  O   UNL d   1      46.255 -16.327  44.537  0.00  0.00    -0.271 OA
BRANCH  14  15
ATOM     15  C   UNL d   1      46.183 -17.145  44.344  0.00  0.00     0.126 C 
ATOM     16  C   UNL d   1      46.162 -17.364  43.552  0.00  0.00     0.029 C 
ENDBRANCH  14  15
ENDBRANCH  12  14
ENDBRANCH   1  12
BRANCH   8  17
ATOM     17  C   UNL d   1      44.683 -12.341  43.658  0.00  0.00     0.002 C 
BRANCH  17  18
ATOM     18  C   UNL d   1      44.781 -12.084  42.867  0.00  0.00     0.000 C 
ATOM     19  C   UNL d   1      44.449 -12.513  42.251  0.00  0.00     0.000 C 
ENDBRANCH  17  18
ENDBRANCH   8  17
TORSDOF 5
ENDMDL
