MODEL 1
REMARK VINA RESULT:      64.2      0.000      0.000
REMARK  9 active torsions:
REMARK  status: ('A' for Active; 'I' for Inactive)
REMARK    1  A    between atoms: S_10  and  C_3 
REMARK    2  A    between atoms: C_17  and  N_5 
REMARK    3  A    between atoms: C_12  and  S_10 
REMARK    4  A    between atoms: C_11  and  C_12 
REMARK       I    between atoms: N_13  and  C_11 
REMARK    5  A    between atoms: C_26  and  C_12 
REMARK    6  A    between atoms: C_23  and  N_13 
REMARK    7  A    between atoms: C_15  and  C_23 
REMARK    8  A    between atoms: C_22  and  C_17 
REMARK    9  A    between atoms: C_30  and  C_26 
ROOT
ATOM      1  C   UNL d   1     -54.715-101.321 -42.703  0.00  0.00     0.081 A 
ATOM      2  C   UNL d   1     -54.716-100.590 -42.318  0.00  0.00     0.117 A 
ATOM      3  C   UNL d   1     -54.717 -99.927 -43.587  0.00  0.00     0.182 A 
ATOM      4  N   UNL d   1     -54.717 -99.897 -42.755  0.00  0.00    -0.215 NA
ATOM      5  N   UNL d   1     -54.716-100.661 -43.968  0.00  0.00    -0.253 N 
ATOM      6  C   UNL d   1     -54.715-101.360 -43.526  0.00  0.00     0.268 A 
ATOM      7  S   UNL d   1     -54.716-100.728 -41.508  0.00  0.00    -0.068 SA
ATOM      8  C   UNL d   1     -54.713-101.914 -42.129  0.00  0.00     0.013 A 
ATOM      9  C   UNL d   1     -54.714-101.542 -41.391  0.00  0.00     0.031 A 
ATOM     10  O   UNL d   1     -54.713-102.091 -43.910  0.00  0.00    -0.267 OA
ATOM     11  C   UNL d   1     -54.712-102.725 -42.003  0.00  0.00     0.001 A 
ATOM     12  C   UNL d   1     -54.713-102.129 -40.811  0.00  0.00     0.006 A 
ATOM     13  C   UNL d   1     -54.712-102.865 -41.190  0.00  0.00     0.001 A 
ENDROOT
BRANCH   3  14
ATOM     14  S   UNL d   1     -54.719 -99.232 -44.021  0.00  0.00    -0.045 SA
BRANCH  14  15
ATOM     15  C   UNL d   1     -55.275 -99.115 -44.615  0.00  0.00     0.093 C 
BRANCH  15  16
ATOM     16  C   UNL d   1     -56.063 -98.934 -44.420  0.00  0.00     0.285 C 
ATOM     17  N   UNL d   1     -56.306 -98.934 -43.635  0.00  0.00    -0.204 NA
ATOM     18  O   UNL d   1     -56.598 -98.756 -45.021  0.00  0.00    -0.265 OA
BRANCH  17  19
ATOM     19  C   UNL d   1     -57.082 -98.756 -43.441  0.00  0.00     0.127 C 
BRANCH  19  20
ATOM     20  C   UNL d   1     -57.699 -99.010 -43.924  0.00  0.00     0.119 A 
ATOM     21  O   UNL d   1     -58.479 -98.771 -43.880  0.00  0.00    -0.304 OA
ATOM     22  C   UNL d   1     -58.903 -99.162 -44.464  0.00  0.00     0.123 A 
ATOM     23  C   UNL d   1     -58.380 -99.652 -44.877  0.00  0.00     0.029 A 
ATOM     24  C   UNL d   1     -57.630 -99.563 -44.546  0.00  0.00     0.028 A 
ENDBRANCH  19  20
ENDBRANCH  17  19
ENDBRANCH  15  16
BRANCH  15  25
ATOM     25  C   UNL d   1     -55.058 -99.175 -45.407  0.00  0.00     0.057 C 
BRANCH  25  26
ATOM     26  C   UNL d   1     -55.501 -98.773 -45.976  0.00  0.00     0.235 C 
ATOM     27  O   UNL d   1     -55.275 -98.813 -46.772  0.00  0.00    -0.283 OA
ENDBRANCH  25  26
ENDBRANCH  15  25
ENDBRANCH  14  15
ENDBRANCH   3  14
BRANCH   5  28
ATOM     28  C   UNL d   1     -54.716-100.694 -44.791  0.00  0.00     0.085 C 
BRANCH  28  29
ATOM     29  C   UNL d   1     -55.095-101.316 -45.182  0.00  0.00     0.019 C 
ATOM     30  C   UNL d   1     -55.396-101.203 -45.942  0.00  0.00     0.002 C 
ENDBRANCH  28  29
ENDBRANCH   5  28
TORSDOF 9
ENDMDL
