MODEL 1
REMARK VINA RESULT:      49.8      0.000      0.000
REMARK  5 active torsions:
REMARK  status: ('A' for Active; 'I' for Inactive)
REMARK    1  A    between atoms: C_14  and  N_3 
REMARK    2  A    between atoms: C_13  and  N_7 
REMARK    3  A    between atoms: C_10  and  C_13 
REMARK       I    between atoms: N_11  and  C_10 
REMARK    4  A    between atoms: C_21  and  N_12 
REMARK    5  A    between atoms: C_22  and  C_14 
ROOT
ATOM      1  C   UNL d   1      15.416  14.166  -0.457  0.00  0.00     0.191 A 
ATOM      2  C   UNL d   1      15.784  13.506  -0.806  0.00  0.00     0.196 A 
ATOM      3  N   UNL d   1      15.941  14.805  -0.523  0.00  0.00    -0.191 N 
ATOM      4  N   UNL d   1      14.670  14.090  -0.136  0.00  0.00    -0.204 NA
ATOM      5  N   UNL d   1      16.527  13.753  -1.080  0.00  0.00    -0.122 NA
ATOM      6  N   UNL d   1      16.613  14.539  -0.904  0.00  0.00    -0.058 NA
ATOM      7  N   UNL d   1      14.641  12.708  -0.501  0.00  0.00    -0.249 N 
ATOM      8  C   UNL d   1      15.395  12.789  -0.824  0.00  0.00     0.289 A 
ATOM      9  C   UNL d   1      14.273  13.368  -0.152  0.00  0.00     0.187 A 
ATOM     10  O   UNL d   1      15.763  12.128  -1.174  0.00  0.00    -0.265 OA
ENDROOT
BRANCH   7  11
ATOM     11  C   UNL d   1      14.239  11.982  -0.515  0.00  0.00     0.146 C 
BRANCH  11  12
ATOM     12  C   UNL d   1      13.515  11.908  -0.917  0.00  0.00     0.283 C 
ATOM     13  N   UNL d   1      13.500  11.954  -1.735  0.00  0.00    -0.268 N 
ATOM     14  C   UNL d   1      14.207  12.074  -2.143  0.00  0.00     0.102 A 
ATOM     15  C   UNL d   1      12.790  11.882  -2.126  0.00  0.00     0.102 A 
ATOM     16  C   UNL d   1      14.188  12.120  -2.968  0.00  0.00     0.100 A 
ATOM     17  N   UNL d   1      13.470  12.048  -3.374  0.00  0.00    -0.301 N 
ATOM     18  C   UNL d   1      12.771  11.928  -2.953  0.00  0.00     0.100 A 
ATOM     19  O   UNL d   1      12.820  11.788  -0.489  0.00  0.00    -0.265 OA
BRANCH  17  20
ATOM     20  C   UNL d   1      13.455  12.094  -4.192  0.00  0.00     0.064 A 
ATOM     21  C   UNL d   1      14.074  12.448  -4.583  0.00  0.00     0.018 A 
ATOM     22  C   UNL d   1      14.062  12.498  -5.410  0.00  0.00     0.002 A 
ATOM     23  C   UNL d   1      13.424  12.187  -5.831  0.00  0.00     0.000 A 
ATOM     24  C   UNL d   1      12.798  11.828  -5.425  0.00  0.00     0.002 A 
ATOM     25  C   UNL d   1      12.810  11.779  -4.600  0.00  0.00     0.018 A 
ENDBRANCH  17  20
ENDBRANCH  11  12
ENDBRANCH   7  11
BRANCH   3  26
ATOM     26  C   UNL d   1      15.809  15.585  -0.249  0.00  0.00     0.104 C 
BRANCH  26  27
ATOM     27  C   UNL d   1      15.527  16.166  -0.774  0.00  0.00     0.019 A 
ATOM     28  C   UNL d   1      15.773  16.949  -0.701  0.00  0.00     0.002 A 
ATOM     29  C   UNL d   1      15.487  17.500  -1.223  0.00  0.00     0.000 A 
ATOM     30  C   UNL d   1      14.964  17.302  -1.814  0.00  0.00     0.000 A 
ATOM     31  C   UNL d   1      14.712  16.496  -1.887  0.00  0.00     0.000 A 
ATOM     32  C   UNL d   1      15.000  15.939  -1.361  0.00  0.00     0.002 A 
ENDBRANCH  26  27
ENDBRANCH   3  26
TORSDOF 5
ENDMDL
