MODEL 1
REMARK VINA RESULT:      -3.8      0.000      0.000
REMARK  3 active torsions:
REMARK  status: ('A' for Active; 'I' for Inactive)
REMARK    1  A    between atoms: N_3  and  C_1 
REMARK    2  A    between atoms: N_6  and  N_2 
REMARK    3  A    between atoms: S_5  and  N_6 
ROOT
ATOM      1  C   UNL d   1      57.679  -0.029  30.418  0.00  0.00     0.771 A 
ATOM      2  N   UNL d   1      58.121  -0.546  29.946  0.00  0.00    -0.026 N 
ATOM      3  N   UNL d   1      57.599   0.680  30.010  0.00  0.00     0.048 NA
ATOM      4  C   UNL d   1      58.312  -0.156  29.250  0.00  0.00     0.204 A 
ATOM      5  N   UNL d   1      57.990   0.604  29.288  0.00  0.00    -0.112 NA
ATOM      6  C   UNL d   1      58.747  -0.466  28.625  0.00  0.00     0.044 C 
ENDROOT
BRANCH   1   7
ATOM      7  N   UNL d   1      57.375  -0.204  31.169  0.00  0.00    -0.056 N 
ATOM      8  N   UNL d   1      56.765  -0.736  31.339  0.00  0.00    -0.150 NA
ATOM      9  C   UNL d   1      56.646  -0.734  32.156  0.00  0.00     0.103 A 
ATOM     10  C   UNL d   1      56.088  -1.186  32.569  0.00  0.00     0.022 C 
ATOM     11  C   UNL d   1      57.179  -0.205  32.488  0.00  0.00     0.041 A 
ATOM     12  C   UNL d   1      57.631   0.124  31.880  0.00  0.00     0.102 A 
ATOM     13  C   UNL d   1      58.232   0.682  31.972  0.00  0.00     0.021 C 
ENDBRANCH   1   7
BRANCH   2  14
ATOM     14  N   UNL d   1      58.330  -1.319  30.146  0.00  0.00    -0.059 NA
BRANCH  14  15
ATOM     15  S   UNL d   1      58.732  -1.795  29.593  0.00  0.00     0.282 S 
ATOM     16  O   UNL d   1      59.439  -1.393  29.650  0.00  0.00    -0.201 OA
ATOM     17  O   UNL d   1      58.010  -2.197  29.541  0.00  0.00    -0.201 OA
ATOM     18  C   UNL d   1      59.054  -2.305  29.042  0.00  0.00     0.167 C 
ENDBRANCH  14  15
ENDBRANCH   2  14
TORSDOF 3
ENDMDL
MODEL 2
REMARK VINA RESULT:      -3.3      2.294      3.292
REMARK  3 active torsions:
REMARK  status: ('A' for Active; 'I' for Inactive)
REMARK    1  A    between atoms: N_3  and  C_1 
REMARK    2  A    between atoms: N_6  and  N_2 
REMARK    3  A    between atoms: S_5  and  N_6 
ROOT
ATOM      1  C   UNL d   1      56.183  -0.697  32.955  0.00  0.00     0.771 A 
ATOM      2  N   UNL d   1      56.609  -0.413  32.305  0.00  0.00    -0.026 N 
ATOM      3  N   UNL d   1      55.999  -1.486  32.813  0.00  0.00     0.048 NA
ATOM      4  C   UNL d   1      56.687  -1.024  31.764  0.00  0.00     0.204 A 
ATOM      5  N   UNL d   1      56.311  -1.690  32.076  0.00  0.00    -0.112 NA
ATOM      6  C   UNL d   1      57.073  -0.982  31.039  0.00  0.00     0.044 C 
ENDROOT
BRANCH   1   7
ATOM      7  N   UNL d   1      55.981  -0.257  33.628  0.00  0.00    -0.056 N 
ATOM      8  N   UNL d   1      56.478  -0.076  34.264  0.00  0.00    -0.150 NA
ATOM      9  C   UNL d   1      56.046   0.370  34.807  0.00  0.00     0.103 A 
ATOM     10  C   UNL d   1      56.327   0.671  35.525  0.00  0.00     0.022 C 
ATOM     11  C   UNL d   1      55.287   0.465  34.508  0.00  0.00     0.041 A 
ATOM     12  C   UNL d   1      55.243   0.078  33.781  0.00  0.00     0.102 A 
ATOM     13  C   UNL d   1      54.579   0.037  33.294  0.00  0.00     0.021 C 
ENDBRANCH   1   7
BRANCH   2  14
ATOM     14  N   UNL d   1      56.901   0.355  32.222  0.00  0.00    -0.059 NA
BRANCH  14  15
ATOM     15  S   UNL d   1      57.516   0.506  31.680  0.00  0.00     0.282 S 
ATOM     16  O   UNL d   1      58.118   0.332  32.202  0.00  0.00    -0.201 OA
ATOM     17  O   UNL d   1      56.899   0.681  31.157  0.00  0.00    -0.201 OA
ATOM     18  C   UNL d   1      58.059   0.673  31.094  0.00  0.00     0.167 C 
ENDBRANCH  14  15
ENDBRANCH   2  14
TORSDOF 3
ENDMDL
MODEL 3
REMARK VINA RESULT:      -2.9      1.286      3.025
REMARK  3 active torsions:
REMARK  status: ('A' for Active; 'I' for Inactive)
REMARK    1  A    between atoms: N_3  and  C_1 
REMARK    2  A    between atoms: N_6  and  N_2 
REMARK    3  A    between atoms: S_5  and  N_6 
ROOT
ATOM      1  C   UNL d   1      58.532  -0.648  29.289  0.00  0.00     0.771 A 
ATOM      2  N   UNL d   1      58.084  -0.454  29.958  0.00  0.00    -0.026 N 
ATOM      3  N   UNL d   1      58.460  -0.034  28.748  0.00  0.00     0.048 NA
ATOM      4  C   UNL d   1      57.738   0.278  29.828  0.00  0.00     0.204 A 
ATOM      5  N   UNL d   1      57.970   0.540  29.080  0.00  0.00    -0.112 NA
ATOM      6  C   UNL d   1      57.248   0.681  30.351  0.00  0.00     0.044 C 
ENDROOT
BRANCH   1   7
ATOM      7  N   UNL d   1      58.973  -1.344  29.191  0.00  0.00    -0.056 N 
ATOM      8  N   UNL d   1      58.671  -2.111  29.124  0.00  0.00    -0.150 NA
ATOM      9  C   UNL d   1      59.307  -2.629  29.035  0.00  0.00     0.103 A 
ATOM     10  C   UNL d   1      59.259  -3.451  28.948  0.00  0.00     0.022 C 
ATOM     11  C   UNL d   1      59.998  -2.184  29.046  0.00  0.00     0.041 A 
ATOM     12  C   UNL d   1      59.794  -1.390  29.143  0.00  0.00     0.102 A 
ATOM     13  C   UNL d   1      60.322  -0.757  29.183  0.00  0.00     0.021 C 
ENDBRANCH   1   7
BRANCH   2  14
ATOM     14  N   UNL d   1      58.004  -0.920  30.634  0.00  0.00    -0.059 NA
BRANCH  14  15
ATOM     15  S   UNL d   1      57.529  -0.654  31.265  0.00  0.00     0.282 S 
ATOM     16  O   UNL d   1      58.049  -0.075  31.509  0.00  0.00    -0.201 OA
ATOM     17  O   UNL d   1      57.008  -1.244  31.009  0.00  0.00    -0.201 OA
ATOM     18  C   UNL d   1      57.008  -0.453  31.860  0.00  0.00     0.167 C 
ENDBRANCH  14  15
ENDBRANCH   2  14
TORSDOF 3
ENDMDL
MODEL 4
REMARK VINA RESULT:      -2.8      1.484      3.099
REMARK  3 active torsions:
REMARK  status: ('A' for Active; 'I' for Inactive)
REMARK    1  A    between atoms: N_3  and  C_1 
REMARK    2  A    between atoms: N_6  and  N_2 
REMARK    3  A    between atoms: S_5  and  N_6 
ROOT
ATOM      1  C   UNL d   1      58.487  -0.119  30.702  0.00  0.00     0.771 A 
ATOM      2  N   UNL d   1      57.838  -0.106  31.216  0.00  0.00    -0.026 N 
ATOM      3  N   UNL d   1      59.070   0.367  31.018  0.00  0.00     0.048 NA
ATOM      4  C   UNL d   1      58.021   0.386  31.846  0.00  0.00     0.204 A 
ATOM      5  N   UNL d   1      58.784   0.680  31.725  0.00  0.00    -0.112 NA
ATOM      6  C   UNL d   1      57.533   0.558  32.484  0.00  0.00     0.044 C 
ENDROOT
BRANCH   1   7
ATOM      7  N   UNL d   1      58.532  -0.550  29.995  0.00  0.00    -0.056 N 
ATOM      8  N   UNL d   1      58.581  -1.372  29.924  0.00  0.00    -0.150 NA
ATOM      9  C   UNL d   1      58.615  -1.557  29.120  0.00  0.00     0.103 A 
ATOM     10  C   UNL d   1      58.667  -2.317  28.796  0.00  0.00     0.022 C 
ATOM     11  C   UNL d   1      58.588  -0.853  28.698  0.00  0.00     0.041 A 
ATOM     12  C   UNL d   1      58.537  -0.229  29.236  0.00  0.00     0.102 A 
ATOM     13  C   UNL d   1      58.498   0.573  29.044  0.00  0.00     0.021 C 
ENDBRANCH   1   7
BRANCH   2  14
ATOM     14  N   UNL d   1      57.132  -0.519  31.107  0.00  0.00    -0.059 NA
BRANCH  14  15
ATOM     15  S   UNL d   1      56.657  -0.706  31.766  0.00  0.00     0.282 S 
ATOM     16  O   UNL d   1      57.067  -1.384  31.962  0.00  0.00    -0.201 OA
ATOM     17  O   UNL d   1      56.247  -0.017  31.560  0.00  0.00    -0.201 OA
ATOM     18  C   UNL d   1      56.148  -0.820  32.395  0.00  0.00     0.167 C 
ENDBRANCH  14  15
ENDBRANCH   2  14
TORSDOF 3
ENDMDL
MODEL 5
REMARK VINA RESULT:      -2.8      1.311      2.217
REMARK  3 active torsions:
REMARK  status: ('A' for Active; 'I' for Inactive)
REMARK    1  A    between atoms: N_3  and  C_1 
REMARK    2  A    between atoms: N_6  and  N_2 
REMARK    3  A    between atoms: S_5  and  N_6 
ROOT
ATOM      1  C   UNL d   1      59.412  -0.650  29.349  0.00  0.00     0.771 A 
ATOM      2  N   UNL d   1      59.441  -1.455  29.158  0.00  0.00    -0.026 N 
ATOM      3  N   UNL d   1      60.122  -0.308  29.113  0.00  0.00     0.048 NA
ATOM      4  C   UNL d   1      60.165  -1.608  28.806  0.00  0.00     0.204 A 
ATOM      5  N   UNL d   1      60.589  -0.899  28.777  0.00  0.00    -0.112 NA
ATOM      6  C   UNL d   1      60.425  -2.337  28.530  0.00  0.00     0.044 C 
ENDROOT
BRANCH   1   7
ATOM      7  N   UNL d   1      58.775  -0.264  29.714  0.00  0.00    -0.056 N 
ATOM      8  N   UNL d   1      58.475  -0.420  30.469  0.00  0.00    -0.150 NA
ATOM      9  C   UNL d   1      57.844   0.095  30.603  0.00  0.00     0.103 A 
ATOM     10  C   UNL d   1      57.382   0.131  31.289  0.00  0.00     0.022 C 
ATOM     11  C   UNL d   1      57.755   0.565  29.936  0.00  0.00     0.041 A 
ATOM     12  C   UNL d   1      58.329   0.346  29.385  0.00  0.00     0.102 A 
ATOM     13  C   UNL d   1      58.435   0.679  28.638  0.00  0.00     0.021 C 
ENDBRANCH   1   7
BRANCH   2  14
ATOM     14  N   UNL d   1      58.840  -2.003  29.300  0.00  0.00    -0.059 NA
BRANCH  14  15
ATOM     15  S   UNL d   1      58.948  -2.799  29.080  0.00  0.00     0.282 S 
ATOM     16  O   UNL d   1      59.448  -2.979  29.699  0.00  0.00    -0.201 OA
ATOM     17  O   UNL d   1      58.440  -2.608  28.455  0.00  0.00    -0.201 OA
ATOM     18  C   UNL d   1      59.002  -3.565  28.800  0.00  0.00     0.167 C 
ENDBRANCH  14  15
ENDBRANCH   2  14
TORSDOF 3
ENDMDL
MODEL 6
REMARK VINA RESULT:      -2.5      8.672      9.414
REMARK  3 active torsions:
REMARK  status: ('A' for Active; 'I' for Inactive)
REMARK    1  A    between atoms: N_3  and  C_1 
REMARK    2  A    between atoms: N_6  and  N_2 
REMARK    3  A    between atoms: S_5  and  N_6 
ROOT
ATOM      1  C   UNL d   1      60.339  -8.866  34.338  0.00  0.00     0.771 A 
ATOM      2  N   UNL d   1      59.843  -9.133  33.732  0.00  0.00    -0.026 N 
ATOM      3  N   UNL d   1      61.114  -9.043  34.128  0.00  0.00     0.048 NA
ATOM      4  C   UNL d   1      60.311  -9.473  33.151  0.00  0.00     0.204 A 
ATOM      5  N   UNL d   1      61.099  -9.418  33.393  0.00  0.00    -0.112 NA
ATOM      6  C   UNL d   1      60.044  -9.809  32.449  0.00  0.00     0.044 C 
ENDROOT
BRANCH   1   7
ATOM      7  N   UNL d   1      60.090  -8.488  35.033  0.00  0.00    -0.056 N 
ATOM      8  N   UNL d   1      59.770  -7.728  35.090  0.00  0.00    -0.150 NA
ATOM      9  C   UNL d   1      59.602  -7.580  35.884  0.00  0.00     0.103 A 
ATOM     10  C   UNL d   1      59.275  -6.885  36.193  0.00  0.00     0.022 C 
ATOM     11  C   UNL d   1      59.818  -8.246  36.315  0.00  0.00     0.041 A 
ATOM     12  C   UNL d   1      60.119  -8.808  35.792  0.00  0.00     0.102 A 
ATOM     13  C   UNL d   1      60.399  -9.557  35.996  0.00  0.00     0.021 C 
ENDBRANCH   1   7
BRANCH   2  14
ATOM     14  N   UNL d   1      59.021  -9.066  33.721  0.00  0.00    -0.059 NA
BRANCH  14  15
ATOM     15  S   UNL d   1      58.599  -9.273  33.033  0.00  0.00     0.282 S 
ATOM     16  O   UNL d   1      58.996  -8.755  32.544  0.00  0.00    -0.201 OA
ATOM     17  O   UNL d   1      58.201  -9.796  33.537  0.00  0.00    -0.201 OA
ATOM     18  C   UNL d   1      58.142  -9.531  32.406  0.00  0.00     0.167 C 
ENDBRANCH  14  15
ENDBRANCH   2  14
TORSDOF 3
ENDMDL
MODEL 7
REMARK VINA RESULT:      -2.2      1.124      1.547
REMARK  3 active torsions:
REMARK  status: ('A' for Active; 'I' for Inactive)
REMARK    1  A    between atoms: N_3  and  C_1 
REMARK    2  A    between atoms: N_6  and  N_2 
REMARK    3  A    between atoms: S_5  and  N_6 
ROOT
ATOM      1  C   UNL d   1      57.681   0.392  30.657  0.00  0.00     0.771 A 
ATOM      2  N   UNL d   1      58.346   0.198  30.204  0.00  0.00    -0.026 N 
ATOM      3  N   UNL d   1      57.101   0.674  30.147  0.00  0.00     0.048 NA
ATOM      4  C   UNL d   1      58.177   0.359  29.419  0.00  0.00     0.204 A 
ATOM      5  N   UNL d   1      57.406   0.654  29.380  0.00  0.00    -0.112 NA
ATOM      6  C   UNL d   1      58.683   0.247  28.781  0.00  0.00     0.044 C 
ENDROOT
BRANCH   1   7
ATOM      7  N   UNL d   1      57.619   0.313  31.480  0.00  0.00    -0.056 N 
ATOM      8  N   UNL d   1      58.098   0.679  32.045  0.00  0.00    -0.150 NA
ATOM      9  C   UNL d   1      57.838   0.443  32.792  0.00  0.00     0.103 A 
ATOM     10  C   UNL d   1      58.160   0.677  33.518  0.00  0.00     0.022 C 
ATOM     11  C   UNL d   1      57.201  -0.065  32.688  0.00  0.00     0.041 A 
ATOM     12  C   UNL d   1      57.063  -0.147  31.879  0.00  0.00     0.102 A 
ATOM     13  C   UNL d   1      56.474  -0.609  31.533  0.00  0.00     0.021 C 
ENDBRANCH   1   7
BRANCH   2  14
ATOM     14  N   UNL d   1      59.055  -0.106  30.499  0.00  0.00    -0.059 NA
BRANCH  14  15
ATOM     15  S   UNL d   1      59.700  -0.222  29.985  0.00  0.00     0.282 S 
ATOM     16  O   UNL d   1      59.992   0.536  30.062  0.00  0.00    -0.201 OA
ATOM     17  O   UNL d   1      59.396  -0.989  29.913  0.00  0.00    -0.201 OA
ATOM     18  C   UNL d   1      60.305  -0.414  29.471  0.00  0.00     0.167 C 
ENDBRANCH  14  15
ENDBRANCH   2  14
TORSDOF 3
ENDMDL
MODEL 8
REMARK VINA RESULT:      -1.5      2.678      3.359
REMARK  3 active torsions:
REMARK  status: ('A' for Active; 'I' for Inactive)
REMARK    1  A    between atoms: N_3  and  C_1 
REMARK    2  A    between atoms: N_6  and  N_2 
REMARK    3  A    between atoms: S_5  and  N_6 
ROOT
ATOM      1  C   UNL d   1      59.107  -1.750  29.177  0.00  0.00     0.771 A 
ATOM      2  N   UNL d   1      59.522  -2.454  29.044  0.00  0.00    -0.026 N 
ATOM      3  N   UNL d   1      58.303  -1.923  29.159  0.00  0.00     0.048 NA
ATOM      4  C   UNL d   1      58.976  -3.058  28.946  0.00  0.00     0.204 A 
ATOM      5  N   UNL d   1      58.220  -2.731  29.017  0.00  0.00    -0.112 NA
ATOM      6  C   UNL d   1      59.149  -3.849  28.802  0.00  0.00     0.044 C 
ENDROOT
BRANCH   1   7
ATOM      7  N   UNL d   1      59.449  -1.006  29.303  0.00  0.00    -0.056 N 
ATOM      8  N   UNL d   1      60.103  -0.842  29.783  0.00  0.00    -0.150 NA
ATOM      9  C   UNL d   1      60.250  -0.031  29.744  0.00  0.00     0.103 A 
ATOM     10  C   UNL d   1      60.854   0.375  30.139  0.00  0.00     0.022 C 
ATOM     11  C   UNL d   1      59.691   0.304  29.244  0.00  0.00     0.041 A 
ATOM     12  C   UNL d   1      59.195  -0.296  28.971  0.00  0.00     0.102 A 
ATOM     13  C   UNL d   1      58.558  -0.199  28.455  0.00  0.00     0.021 C 
ENDBRANCH   1   7
BRANCH   2  14
ATOM     14  N   UNL d   1      60.343  -2.528  29.017  0.00  0.00    -0.059 NA
BRANCH  14  15
ATOM     15  S   UNL d   1      60.695  -3.273  29.144  0.00  0.00     0.282 S 
ATOM     16  O   UNL d   1      60.273  -3.439  29.822  0.00  0.00    -0.201 OA
ATOM     17  O   UNL d   1      61.118  -3.096  28.455  0.00  0.00    -0.201 OA
ATOM     18  C   UNL d   1      61.084  -3.989  29.199  0.00  0.00     0.167 C 
ENDBRANCH  14  15
ENDBRANCH   2  14
TORSDOF 3
ENDMDL
