MODEL 1
REMARK VINA RESULT:      17.0      0.000      0.000
REMARK  1 active torsions:
REMARK  status: ('A' for Active; 'I' for Inactive)
REMARK    1  A    between atoms: C_6  and  C_1 
ROOT
ATOM      1  C   UNL d   1     -51.597  25.549  33.329  0.00  0.00     0.111 A 
ATOM      2  N   UNL d   1     -52.420  25.600  33.321  0.00  0.00    -0.239 NA
ATOM      3  S   UNL d   1     -51.379  24.745  33.331  0.00  0.00    -0.066 SA
ATOM      4  C   UNL d   1     -52.714  24.832  33.317  0.00  0.00     0.088 A 
ATOM      5  C   UNL d   1     -52.076  24.308  33.323  0.00  0.00     0.049 A 
ATOM      6  C   UNL d   1     -53.492  24.534  33.310  0.00  0.00     0.020 A 
ATOM      7  C   UNL d   1     -52.221  23.490  33.321  0.00  0.00     0.008 A 
ATOM      8  C   UNL d   1     -52.995  23.189  33.314  0.00  0.00     0.001 A 
ATOM      9  C   UNL d   1     -53.633  23.713  33.308  0.00  0.00     0.002 A 
ENDROOT
BRANCH   1  10
ATOM     10  C   UNL d   1     -51.043  26.136  33.335  0.00  0.00     0.025 A 
ATOM     11  C   UNL d   1     -51.253  26.956  33.320  0.00  0.00     0.023 A 
ATOM     12  C   UNL d   1     -50.693  27.535  33.326  0.00  0.00     0.103 A 
ATOM     13  N   UNL d   1     -50.946  28.321  33.310  0.00  0.00    -0.148 N 
ATOM     14  C   UNL d   1     -49.869  27.312  33.348  0.00  0.00     0.021 A 
ATOM     15  C   UNL d   1     -49.654  26.524  33.363  0.00  0.00     0.002 A 
ATOM     16  C   UNL d   1     -50.242  25.952  33.356  0.00  0.00     0.002 A 
ENDBRANCH   1  10
TORSDOF 1
ENDMDL
MODEL 2
REMARK VINA RESULT:      17.8      0.889      3.550
REMARK  1 active torsions:
REMARK  status: ('A' for Active; 'I' for Inactive)
REMARK    1  A    between atoms: C_6  and  C_1 
ROOT
ATOM      1  C   UNL d   1     -51.462  25.581  33.344  0.00  0.00     0.111 A 
ATOM      2  N   UNL d   1     -51.934  26.257  33.346  0.00  0.00    -0.239 NA
ATOM      3  S   UNL d   1     -50.662  25.812  33.339  0.00  0.00    -0.066 SA
ATOM      4  C   UNL d   1     -51.430  26.907  33.341  0.00  0.00     0.088 A 
ATOM      5  C   UNL d   1     -50.651  26.635  33.337  0.00  0.00     0.049 A 
ATOM      6  C   UNL d   1     -51.580  27.727  33.341  0.00  0.00     0.020 A 
ATOM      7  C   UNL d   1     -50.027  27.183  33.332  0.00  0.00     0.008 A 
ATOM      8  C   UNL d   1     -50.173  28.002  33.332  0.00  0.00     0.001 A 
ATOM      9  C   UNL d   1     -50.952  28.274  33.336  0.00  0.00     0.002 A 
ENDROOT
BRANCH   1  10
ATOM     10  C   UNL d   1     -51.676  24.803  33.347  0.00  0.00     0.025 A 
ATOM     11  C   UNL d   1     -52.486  24.556  33.379  0.00  0.00     0.023 A 
ATOM     12  C   UNL d   1     -52.690  23.777  33.382  0.00  0.00     0.103 A 
ATOM     13  N   UNL d   1     -53.492  23.584  33.414  0.00  0.00    -0.148 N 
ATOM     14  C   UNL d   1     -52.071  23.189  33.351  0.00  0.00     0.021 A 
ATOM     15  C   UNL d   1     -51.286  23.414  33.320  0.00  0.00     0.002 A 
ATOM     16  C   UNL d   1     -51.103  24.214  33.319  0.00  0.00     0.002 A 
ENDBRANCH   1  10
TORSDOF 1
ENDMDL
