MODEL 1
REMARK VINA RESULT:      -2.7      0.000      0.000
REMARK  4 active torsions:
REMARK  status: ('A' for Active; 'I' for Inactive)
REMARK    1  A    between atoms: C_8  and  N_2 
REMARK    2  A    between atoms: C_13  and  C_8 
REMARK    3  A    between atoms: O_17  and  C_13 
REMARK    4  A    between atoms: O_18  and  C_15 
ROOT
ATOM      1  C   UNL d   1      33.222  20.870 -22.379  0.00  0.00     0.166 A 
ATOM      2  N   UNL d   1      33.217  21.603 -22.000  0.00  0.00    -0.285 N 
ATOM      3  C   UNL d   1      33.229  21.008 -23.196  0.00  0.00     0.117 A 
ATOM      4  C   UNL d   1      33.229  21.822 -23.322  0.00  0.00     0.039 A 
ATOM      5  C   UNL d   1      33.222  22.189 -22.584  0.00  0.00     0.067 A 
ATOM      6  N   UNL d   1      33.221  20.107 -22.084  0.00  0.00    -0.225 NA
ATOM      7  N   UNL d   1      33.235  20.372 -23.716  0.00  0.00    -0.241 NA
ATOM      8  C   UNL d   1      33.226  19.459 -22.602  0.00  0.00     0.101 A 
ATOM      9  C   UNL d   1      33.233  19.597 -23.419  0.00  0.00     0.099 A 
ATOM     10  C   UNL d   1      33.220  23.020 -22.522  0.00  0.00     0.020 A 
ATOM     11  C   UNL d   1      33.234  22.277 -23.999  0.00  0.00     0.027 A 
ATOM     12  C   UNL d   1      33.233  23.101 -23.949  0.00  0.00     0.094 A 
ATOM     13  C   UNL d   1      33.225  23.469 -23.211  0.00  0.00     0.026 A 
ATOM     14  C   UNL d   1      33.239  18.961 -23.940  0.00  0.00     0.021 A 
ATOM     15  C   UNL d   1      33.225  18.694 -22.319  0.00  0.00     0.021 A 
ATOM     16  C   UNL d   1      33.230  18.049 -22.838  0.00  0.00     0.002 A 
ATOM     17  C   UNL d   1      33.238  18.188 -23.655  0.00  0.00     0.002 A 
ENDROOT
BRANCH   2  18
ATOM     18  C   UNL d   1      33.210  21.729 -21.186  0.00  0.00     0.150 C 
BRANCH  18  19
ATOM     19  C   UNL d   1      32.517  21.992 -20.816  0.00  0.00     0.314 C 
ATOM     20  O   UNL d   1      31.815  21.561 -20.914  0.00  0.00    -0.257 OA
BRANCH  19  21
ATOM     21  O   UNL d   1      32.526  22.664 -20.363  0.00  0.00    -0.295 OA
ATOM     22  C   UNL d   1      32.188  22.665 -19.606  0.00  0.00     0.185 C 
ENDBRANCH  19  21
ENDBRANCH  18  19
ENDBRANCH   2  18
BRANCH  12  23
ATOM     23  O   UNL d   1      33.238  23.550 -24.638  0.00  0.00    -0.328 OA
ATOM     24  C   UNL d   1      32.556  23.624 -25.096  0.00  0.00     0.181 C 
ENDBRANCH  12  23
TORSDOF 4
ENDMDL
MODEL 2
REMARK VINA RESULT:      -2.7      1.163      3.127
REMARK  4 active torsions:
REMARK  status: ('A' for Active; 'I' for Inactive)
REMARK    1  A    between atoms: C_8  and  N_2 
REMARK    2  A    between atoms: C_13  and  C_8 
REMARK    3  A    between atoms: O_17  and  C_13 
REMARK    4  A    between atoms: O_18  and  C_15 
ROOT
ATOM      1  C   UNL d   1      33.235  21.890 -21.896  0.00  0.00     0.166 A 
ATOM      2  N   UNL d   1      33.234  22.706 -21.781  0.00  0.00    -0.285 N 
ATOM      3  C   UNL d   1      33.233  21.529 -21.150  0.00  0.00     0.117 A 
ATOM      4  C   UNL d   1      33.231  22.120 -20.575  0.00  0.00     0.039 A 
ATOM      5  C   UNL d   1      33.232  22.846 -20.965  0.00  0.00     0.067 A 
ATOM      6  N   UNL d   1      33.237  21.439 -22.579  0.00  0.00    -0.225 NA
ATOM      7  N   UNL d   1      33.233  20.709 -21.095  0.00  0.00    -0.241 NA
ATOM      8  C   UNL d   1      33.237  20.610 -22.532  0.00  0.00     0.101 A 
ATOM      9  C   UNL d   1      33.235  20.250 -21.786  0.00  0.00     0.099 A 
ATOM     10  C   UNL d   1      33.230  23.559 -20.533  0.00  0.00     0.020 A 
ATOM     11  C   UNL d   1      33.228  22.098 -19.760  0.00  0.00     0.027 A 
ATOM     12  C   UNL d   1      33.227  22.798 -19.323  0.00  0.00     0.094 A 
ATOM     13  C   UNL d   1      33.228  23.526 -19.712  0.00  0.00     0.026 A 
ATOM     14  C   UNL d   1      33.235  19.429 -21.730  0.00  0.00     0.021 A 
ATOM     15  C   UNL d   1      33.239  20.151 -23.206  0.00  0.00     0.021 A 
ATOM     16  C   UNL d   1      33.239  19.325 -23.156  0.00  0.00     0.002 A 
ATOM     17  C   UNL d   1      33.237  18.964 -22.410  0.00  0.00     0.002 A 
ENDROOT
BRANCH   2  18
ATOM     18  C   UNL d   1      33.236  23.281 -22.371  0.00  0.00     0.150 C 
BRANCH  18  19
ATOM     19  C   UNL d   1      32.540  23.440 -22.793  0.00  0.00     0.314 C 
ATOM     20  O   UNL d   1      31.842  23.606 -22.378  0.00  0.00    -0.257 OA
BRANCH  19  21
ATOM     21  O   UNL d   1      32.545  23.434 -23.604  0.00  0.00    -0.295 OA
ATOM     22  C   UNL d   1      31.857  23.617 -24.029  0.00  0.00     0.185 C 
ENDBRANCH  19  21
ENDBRANCH  18  19
ENDBRANCH   2  18
BRANCH  12  23
ATOM     23  O   UNL d   1      33.225  22.765 -18.502  0.00  0.00    -0.328 OA
ATOM     24  C   UNL d   1      32.743  23.270 -18.063  0.00  0.00     0.181 C 
ENDBRANCH  12  23
TORSDOF 4
ENDMDL
MODEL 3
REMARK VINA RESULT:      -2.0      1.340      3.598
REMARK  4 active torsions:
REMARK  status: ('A' for Active; 'I' for Inactive)
REMARK    1  A    between atoms: C_8  and  N_2 
REMARK    2  A    between atoms: C_13  and  C_8 
REMARK    3  A    between atoms: O_17  and  C_13 
REMARK    4  A    between atoms: O_18  and  C_15 
ROOT
ATOM      1  C   UNL d   1      33.092  21.896 -22.375  0.00  0.00     0.166 A 
ATOM      2  N   UNL d   1      33.110  21.417 -21.704  0.00  0.00    -0.285 N 
ATOM      3  C   UNL d   1      32.943  22.672 -22.128  0.00  0.00     0.117 A 
ATOM      4  C   UNL d   1      32.869  22.674 -21.307  0.00  0.00     0.039 A 
ATOM      5  C   UNL d   1      32.972  21.899 -21.046  0.00  0.00     0.067 A 
ATOM      6  N   UNL d   1      33.191  21.721 -23.168  0.00  0.00    -0.225 NA
ATOM      7  N   UNL d   1      32.895  23.275 -22.685  0.00  0.00    -0.241 NA
ATOM      8  C   UNL d   1      33.144  22.323 -23.737  0.00  0.00     0.101 A 
ATOM      9  C   UNL d   1      32.995  23.100 -23.490  0.00  0.00     0.099 A 
ATOM     10  C   UNL d   1      32.930  21.716 -20.234  0.00  0.00     0.020 A 
ATOM     11  C   UNL d   1      32.725  23.267 -20.766  0.00  0.00     0.027 A 
ATOM     12  C   UNL d   1      32.680  23.096 -19.960  0.00  0.00     0.094 A 
ATOM     13  C   UNL d   1      32.783  22.321 -19.697  0.00  0.00     0.026 A 
ATOM     14  C   UNL d   1      32.947  23.702 -24.047  0.00  0.00     0.021 A 
ATOM     15  C   UNL d   1      33.241  22.160 -24.530  0.00  0.00     0.021 A 
ATOM     16  C   UNL d   1      33.193  22.763 -25.096  0.00  0.00     0.002 A 
ATOM     17  C   UNL d   1      33.045  23.539 -24.849  0.00  0.00     0.002 A 
ENDROOT
BRANCH   2  18
ATOM     18  C   UNL d   1      33.241  20.603 -21.690  0.00  0.00     0.150 C 
BRANCH  18  19
ATOM     19  C   UNL d   1      32.667  20.088 -21.994  0.00  0.00     0.314 C 
ATOM     20  O   UNL d   1      31.888  20.138 -21.716  0.00  0.00    -0.257 OA
BRANCH  19  21
ATOM     21  O   UNL d   1      32.869  19.541 -22.558  0.00  0.00    -0.295 OA
ATOM     22  C   UNL d   1      32.536  18.782 -22.544  0.00  0.00     0.185 C 
ENDBRANCH  19  21
ENDBRANCH  18  19
ENDBRANCH   2  18
BRANCH  12  23
ATOM     23  O   UNL d   1      32.534  23.702 -19.423  0.00  0.00    -0.328 OA
ATOM     24  C   UNL d   1      32.797  23.644 -18.644  0.00  0.00     0.181 C 
ENDBRANCH  12  23
TORSDOF 4
ENDMDL
MODEL 4
REMARK VINA RESULT:      -1.1      1.134      3.355
REMARK  4 active torsions:
REMARK  status: ('A' for Active; 'I' for Inactive)
REMARK    1  A    between atoms: C_8  and  N_2 
REMARK    2  A    between atoms: C_13  and  C_8 
REMARK    3  A    between atoms: O_17  and  C_13 
REMARK    4  A    between atoms: O_18  and  C_15 
ROOT
ATOM      1  C   UNL d   1      33.208  21.667 -21.372  0.00  0.00     0.166 A 
ATOM      2  N   UNL d   1      33.226  21.171 -22.031  0.00  0.00    -0.285 N 
ATOM      3  C   UNL d   1      33.198  22.449 -21.646  0.00  0.00     0.117 A 
ATOM      4  C   UNL d   1      33.209  22.437 -22.469  0.00  0.00     0.039 A 
ATOM      5  C   UNL d   1      33.227  21.648 -22.707  0.00  0.00     0.067 A 
ATOM      6  N   UNL d   1      33.201  21.503 -20.571  0.00  0.00    -0.225 NA
ATOM      7  N   UNL d   1      33.180  23.069 -21.106  0.00  0.00    -0.241 NA
ATOM      8  C   UNL d   1      33.182  22.123 -20.019  0.00  0.00     0.101 A 
ATOM      9  C   UNL d   1      33.172  22.905 -20.292  0.00  0.00     0.099 A 
ATOM     10  C   UNL d   1      33.241  21.449 -23.516  0.00  0.00     0.020 A 
ATOM     11  C   UNL d   1      33.206  23.028 -23.031  0.00  0.00     0.027 A 
ATOM     12  C   UNL d   1      33.220  22.842 -23.835  0.00  0.00     0.094 A 
ATOM     13  C   UNL d   1      33.238  22.053 -24.074  0.00  0.00     0.026 A 
ATOM     14  C   UNL d   1      33.153  23.525 -19.752  0.00  0.00     0.021 A 
ATOM     15  C   UNL d   1      33.174  21.972 -19.218  0.00  0.00     0.021 A 
ATOM     16  C   UNL d   1      33.155  22.591 -18.669  0.00  0.00     0.002 A 
ATOM     17  C   UNL d   1      33.145  23.373 -18.942  0.00  0.00     0.002 A 
ENDROOT
BRANCH   2  18
ATOM     18  C   UNL d   1      33.241  20.347 -22.019  0.00  0.00     0.150 C 
BRANCH  18  19
ATOM     19  C   UNL d   1      32.576  19.919 -22.269  0.00  0.00     0.314 C 
ATOM     20  O   UNL d   1      31.838  20.080 -21.927  0.00  0.00    -0.257 OA
BRANCH  19  21
ATOM     21  O   UNL d   1      32.649  19.350 -22.841  0.00  0.00    -0.295 OA
ATOM     22  C   UNL d   1      32.564  18.548 -22.649  0.00  0.00     0.185 C 
ENDBRANCH  19  21
ENDBRANCH  18  19
ENDBRANCH   2  18
BRANCH  12  23
ATOM     23  O   UNL d   1      33.217  23.446 -24.393  0.00  0.00    -0.328 OA
ATOM     24  C   UNL d   1      32.531  23.623 -24.815  0.00  0.00     0.181 C 
ENDBRANCH  12  23
TORSDOF 4
ENDMDL
MODEL 5
REMARK VINA RESULT:       0.1      1.264      3.130
REMARK  4 active torsions:
REMARK  status: ('A' for Active; 'I' for Inactive)
REMARK    1  A    between atoms: C_8  and  N_2 
REMARK    2  A    between atoms: C_13  and  C_8 
REMARK    3  A    between atoms: O_17  and  C_13 
REMARK    4  A    between atoms: O_18  and  C_15 
ROOT
ATOM      1  C   UNL d   1      32.896  19.511 -23.708  0.00  0.00     0.166 A 
ATOM      2  N   UNL d   1      33.084  20.315 -23.697  0.00  0.00    -0.285 N 
ATOM      3  C   UNL d   1      32.784  19.267 -22.925  0.00  0.00     0.117 A 
ATOM      4  C   UNL d   1      32.903  19.915 -22.430  0.00  0.00     0.039 A 
ATOM      5  C   UNL d   1      33.087  20.562 -22.907  0.00  0.00     0.067 A 
ATOM      6  N   UNL d   1      32.814  18.983 -24.327  0.00  0.00    -0.225 NA
ATOM      7  N   UNL d   1      32.590  18.484 -22.766  0.00  0.00    -0.241 NA
ATOM      8  C   UNL d   1      32.618  18.191 -24.176  0.00  0.00     0.101 A 
ATOM      9  C   UNL d   1      32.507  17.946 -23.393  0.00  0.00     0.099 A 
ATOM     10  C   UNL d   1      33.240  21.308 -22.569  0.00  0.00     0.020 A 
ATOM     11  C   UNL d   1      32.869  20.007 -21.621  0.00  0.00     0.027 A 
ATOM     12  C   UNL d   1      33.018  20.742 -21.276  0.00  0.00     0.094 A 
ATOM     13  C   UNL d   1      33.202  21.389 -21.752  0.00  0.00     0.026 A 
ATOM     14  C   UNL d   1      32.312  17.163 -23.234  0.00  0.00     0.021 A 
ATOM     15  C   UNL d   1      32.534  17.655 -24.786  0.00  0.00     0.021 A 
ATOM     16  C   UNL d   1      32.338  16.865 -24.633  0.00  0.00     0.002 A 
ATOM     17  C   UNL d   1      32.227  16.621 -23.849  0.00  0.00     0.002 A 
ENDROOT
BRANCH   2  18
ATOM     18  C   UNL d   1      33.240  20.787 -24.353  0.00  0.00     0.150 C 
BRANCH  18  19
ATOM     19  C   UNL d   1      32.709  21.387 -24.565  0.00  0.00     0.314 C 
ATOM     20  O   UNL d   1      31.960  21.183 -24.856  0.00  0.00    -0.257 OA
BRANCH  19  21
ATOM     21  O   UNL d   1      32.922  22.166 -24.486  0.00  0.00    -0.295 OA
ATOM     22  C   UNL d   1      32.740  22.713 -25.081  0.00  0.00     0.185 C 
ENDBRANCH  19  21
ENDBRANCH  18  19
ENDBRANCH   2  18
BRANCH  12  23
ATOM     23  O   UNL d   1      32.981  20.823 -20.458  0.00  0.00    -0.328 OA
ATOM     24  C   UNL d   1      32.864  21.564 -20.116  0.00  0.00     0.181 C 
ENDBRANCH  12  23
TORSDOF 4
ENDMDL
