MODEL 1
REMARK VINA RESULT:      -6.5      0.000      0.000
REMARK  4 active torsions:
REMARK  status: ('A' for Active; 'I' for Inactive)
REMARK    1  A    between atoms: N_7  and  C_1 
REMARK    2  A    between atoms: C_12  and  N_4 
REMARK    3  A    between atoms: S_6  and  N_7 
REMARK    4  A    between atoms: C_11  and  S_6 
ROOT
ATOM      1  C   UNL d   1     -47.613  14.015  23.050  0.00  0.00     0.169 A 
ATOM      2  C   UNL d   1     -48.150  13.403  23.216  0.00  0.00     0.299 A 
ATOM      3  N   UNL d   1     -48.767  14.295  22.436  0.00  0.00    -0.238 N 
ATOM      4  N   UNL d   1     -48.853  13.570  22.843  0.00  0.00    -0.209 N 
ATOM      5  C   UNL d   1     -47.966  14.549  22.590  0.00  0.00     0.105 A 
ATOM      6  O   UNL d   1     -47.984  12.724  23.692  0.00  0.00    -0.263 OA
ATOM      7  C   UNL d   1     -49.337  14.674  21.987  0.00  0.00     0.120 C 
ATOM      8  C   UNL d   1     -47.600  15.261  22.299  0.00  0.00     0.022 C 
ENDROOT
BRANCH   1   9
ATOM      9  N   UNL d   1     -46.800  14.073  23.328  0.00  0.00    -0.152 NA
BRANCH   9  10
ATOM     10  S   UNL d   1     -46.203  13.619  22.989  0.00  0.00     0.285 S 
ATOM     11  O   UNL d   1     -46.237  14.080  22.309  0.00  0.00    -0.198 OA
ATOM     12  O   UNL d   1     -46.170  13.141  23.698  0.00  0.00    -0.198 OA
BRANCH  10  13
ATOM     13  C   UNL d   1     -45.606  13.158  22.661  0.00  0.00     0.105 A 
ATOM     14  C   UNL d   1     -45.415  12.419  22.991  0.00  0.00     0.013 A 
ATOM     15  C   UNL d   1     -44.811  11.945  22.665  0.00  0.00     0.001 A 
ATOM     16  C   UNL d   1     -44.409  12.221  22.013  0.00  0.00     0.000 A 
ATOM     17  C   UNL d   1     -44.598  12.975  21.669  0.00  0.00     0.001 A 
ATOM     18  C   UNL d   1     -45.179  13.430  21.984  0.00  0.00     0.013 A 
ENDBRANCH  10  13
ENDBRANCH   9  10
ENDBRANCH   1   9
BRANCH   4  19
ATOM     19  C   UNL d   1     -49.527  13.093  22.874  0.00  0.00     0.085 A 
ATOM     20  C   UNL d   1     -50.108  13.217  23.446  0.00  0.00     0.019 A 
ATOM     21  C   UNL d   1     -50.785  12.736  23.475  0.00  0.00     0.002 A 
ATOM     22  C   UNL d   1     -50.879  12.137  22.938  0.00  0.00     0.000 A 
ATOM     23  C   UNL d   1     -50.301  12.014  22.370  0.00  0.00     0.002 A 
ATOM     24  C   UNL d   1     -49.628  12.486  22.334  0.00  0.00     0.019 A 
ENDBRANCH   4  19
TORSDOF 4
ENDMDL
MODEL 2
REMARK VINA RESULT:      -6.3      1.215      4.185
REMARK  4 active torsions:
REMARK  status: ('A' for Active; 'I' for Inactive)
REMARK    1  A    between atoms: N_7  and  C_1 
REMARK    2  A    between atoms: C_12  and  N_4 
REMARK    3  A    between atoms: S_6  and  N_7 
REMARK    4  A    between atoms: C_11  and  S_6 
ROOT
ATOM      1  C   UNL d   1     -47.867  13.665  22.159  0.00  0.00     0.169 A 
ATOM      2  C   UNL d   1     -47.252  13.124  22.018  0.00  0.00     0.299 A 
ATOM      3  N   UNL d   1     -46.742  14.162  22.686  0.00  0.00    -0.238 N 
ATOM      4  N   UNL d   1     -46.568  13.423  22.337  0.00  0.00    -0.209 N 
ATOM      5  C   UNL d   1     -47.578  14.284  22.553  0.00  0.00     0.105 A 
ATOM      6  O   UNL d   1     -47.336  12.388  21.610  0.00  0.00    -0.263 OA
ATOM      7  C   UNL d   1     -46.217  14.658  23.071  0.00  0.00     0.120 C 
ATOM      8  C   UNL d   1     -48.033  14.960  22.803  0.00  0.00     0.022 C 
ENDROOT
BRANCH   1   9
ATOM      9  N   UNL d   1     -48.690  13.582  21.921  0.00  0.00    -0.152 NA
BRANCH   9  10
ATOM     10  S   UNL d   1     -49.213  13.119  22.358  0.00  0.00     0.285 S 
ATOM     11  O   UNL d   1     -49.000  13.523  23.042  0.00  0.00    -0.198 OA
ATOM     12  O   UNL d   1     -49.432  12.700  21.644  0.00  0.00    -0.198 OA
BRANCH  10  13
ATOM     13  C   UNL d   1     -49.738  12.651  22.784  0.00  0.00     0.105 A 
ATOM     14  C   UNL d   1     -50.509  12.919  22.940  0.00  0.00     0.013 A 
ATOM     15  C   UNL d   1     -51.049  12.452  23.371  0.00  0.00     0.001 A 
ATOM     16  C   UNL d   1     -50.804  11.722  23.638  0.00  0.00     0.000 A 
ATOM     17  C   UNL d   1     -50.017  11.440  23.483  0.00  0.00     0.001 A 
ATOM     18  C   UNL d   1     -49.499  11.891  23.068  0.00  0.00     0.013 A 
ENDBRANCH  10  13
ENDBRANCH   9  10
ENDBRANCH   1   9
BRANCH   4  19
ATOM     19  C   UNL d   1     -45.833  13.046  22.311  0.00  0.00     0.085 A 
ATOM     20  C   UNL d   1     -45.664  12.412  22.810  0.00  0.00     0.019 A 
ATOM     21  C   UNL d   1     -44.925  12.034  22.782  0.00  0.00     0.002 A 
ATOM     22  C   UNL d   1     -44.361  12.288  22.260  0.00  0.00     0.000 A 
ATOM     23  C   UNL d   1     -44.528  12.919  21.764  0.00  0.00     0.002 A 
ATOM     24  C   UNL d   1     -45.258  13.298  21.786  0.00  0.00     0.019 A 
ENDBRANCH   4  19
TORSDOF 4
ENDMDL
MODEL 3
REMARK VINA RESULT:      -6.3      8.257      9.382
REMARK  4 active torsions:
REMARK  status: ('A' for Active; 'I' for Inactive)
REMARK    1  A    between atoms: N_7  and  C_1 
REMARK    2  A    between atoms: C_12  and  N_4 
REMARK    3  A    between atoms: S_6  and  N_7 
REMARK    4  A    between atoms: C_11  and  S_6 
ROOT
ATOM      1  C   UNL d   1     -40.309  14.670  19.394  0.00  0.00     0.169 A 
ATOM      2  C   UNL d   1     -39.803  14.233  19.888  0.00  0.00     0.299 A 
ATOM      3  N   UNL d   1     -40.163  15.340  20.542  0.00  0.00    -0.238 N 
ATOM      4  N   UNL d   1     -39.712  14.638  20.586  0.00  0.00    -0.209 N 
ATOM      5  C   UNL d   1     -40.529  15.327  19.769  0.00  0.00     0.105 A 
ATOM      6  O   UNL d   1     -39.447  13.493  19.687  0.00  0.00    -0.263 OA
ATOM      7  C   UNL d   1     -40.233  15.914  21.122  0.00  0.00     0.120 C 
ATOM      8  C   UNL d   1     -41.048  15.922  19.450  0.00  0.00     0.022 C 
ENDROOT
BRANCH   1   9
ATOM      9  N   UNL d   1     -40.563  14.456  18.600  0.00  0.00    -0.152 NA
BRANCH   9  10
ATOM     10  S   UNL d   1     -40.042  14.492  17.964  0.00  0.00     0.285 S 
ATOM     11  O   UNL d   1     -40.085  15.313  17.974  0.00  0.00    -0.198 OA
ATOM     12  O   UNL d   1     -39.998  13.637  17.955  0.00  0.00    -0.198 OA
BRANCH  10  13
ATOM     13  C   UNL d   1     -39.520  14.516  17.328  0.00  0.00     0.105 A 
ATOM     14  C   UNL d   1     -39.354  15.236  16.947  0.00  0.00     0.013 A 
ATOM     15  C   UNL d   1     -38.827  15.270  16.302  0.00  0.00     0.001 A 
ATOM     16  C   UNL d   1     -38.475  14.580  16.050  0.00  0.00     0.000 A 
ATOM     17  C   UNL d   1     -38.639  13.839  16.434  0.00  0.00     0.001 A 
ATOM     18  C   UNL d   1     -39.147  13.808  17.055  0.00  0.00     0.013 A 
ENDBRANCH  10  13
ENDBRANCH   9  10
ENDBRANCH   1   9
BRANCH   4  19
ATOM     19  C   UNL d   1     -39.248  14.383  21.221  0.00  0.00     0.085 A 
ATOM     20  C   UNL d   1     -38.449  14.581  21.267  0.00  0.00     0.019 A 
ATOM     21  C   UNL d   1     -37.984  14.323  21.906  0.00  0.00     0.002 A 
ATOM     22  C   UNL d   1     -38.316  13.873  22.492  0.00  0.00     0.000 A 
ATOM     23  C   UNL d   1     -39.111  13.677  22.445  0.00  0.00     0.002 A 
ATOM     24  C   UNL d   1     -39.577  13.928  21.816  0.00  0.00     0.019 A 
ENDBRANCH   4  19
TORSDOF 4
ENDMDL
MODEL 4
REMARK VINA RESULT:      -6.1      8.367      9.686
REMARK  4 active torsions:
REMARK  status: ('A' for Active; 'I' for Inactive)
REMARK    1  A    between atoms: N_7  and  C_1 
REMARK    2  A    between atoms: C_12  and  N_4 
REMARK    3  A    between atoms: S_6  and  N_7 
REMARK    4  A    between atoms: C_11  and  S_6 
ROOT
ATOM      1  C   UNL d   1     -39.531  15.558  19.336  0.00  0.00     0.169 A 
ATOM      2  C   UNL d   1     -38.989  15.163  18.845  0.00  0.00     0.299 A 
ATOM      3  N   UNL d   1     -40.174  15.169  18.230  0.00  0.00    -0.238 N 
ATOM      4  N   UNL d   1     -39.377  14.925  18.172  0.00  0.00    -0.209 N 
ATOM      5  C   UNL d   1     -40.236  15.568  18.984  0.00  0.00     0.105 A 
ATOM      6  O   UNL d   1     -38.173  15.036  19.025  0.00  0.00    -0.263 OA
ATOM      7  C   UNL d   1     -40.765  15.046  17.676  0.00  0.00     0.120 C 
ATOM      8  C   UNL d   1     -40.940  15.922  19.309  0.00  0.00     0.022 C 
ENDROOT
BRANCH   1   9
ATOM      9  N   UNL d   1     -39.368  15.906  20.107  0.00  0.00    -0.152 NA
BRANCH   9  10
ATOM     10  S   UNL d   1     -39.270  15.433  20.773  0.00  0.00     0.285 S 
ATOM     11  O   UNL d   1     -40.085  15.331  20.823  0.00  0.00    -0.198 OA
ATOM     12  O   UNL d   1     -38.422  15.540  20.719  0.00  0.00    -0.198 OA
BRANCH  10  13
ATOM     13  C   UNL d   1     -39.159  14.961  21.438  0.00  0.00     0.105 A 
ATOM     14  C   UNL d   1     -39.405  14.167  21.437  0.00  0.00     0.013 A 
ATOM     15  C   UNL d   1     -39.298  13.681  22.106  0.00  0.00     0.001 A 
ATOM     16  C   UNL d   1     -38.944  14.002  22.766  0.00  0.00     0.000 A 
ATOM     17  C   UNL d   1     -38.689  14.813  22.776  0.00  0.00     0.001 A 
ATOM     18  C   UNL d   1     -38.794  15.279  22.131  0.00  0.00     0.013 A 
ENDBRANCH  10  13
ENDBRANCH   9  10
ENDBRANCH   1   9
BRANCH   4  19
ATOM     19  C   UNL d   1     -39.026  14.514  17.548  0.00  0.00     0.085 A 
ATOM     20  C   UNL d   1     -38.720  14.915  16.895  0.00  0.00     0.019 A 
ATOM     21  C   UNL d   1     -38.368  14.499  16.268  0.00  0.00     0.002 A 
ATOM     22  C   UNL d   1     -38.322  13.691  16.294  0.00  0.00     0.000 A 
ATOM     23  C   UNL d   1     -38.626  13.293  16.943  0.00  0.00     0.002 A 
ATOM     24  C   UNL d   1     -38.977  13.697  17.567  0.00  0.00     0.019 A 
ENDBRANCH   4  19
TORSDOF 4
ENDMDL
