MODEL 1
REMARK VINA RESULT:      -2.4      0.000      0.000
REMARK  1 active torsions:
REMARK  status: ('A' for Active; 'I' for Inactive)
REMARK    1  A    between atoms: C_24  and  N_4 
ROOT
ATOM      1  C   UNL d   1      57.931   0.682  33.747  0.00  0.00     0.111 A 
ATOM      2  C   UNL d   1      56.574   0.681  33.366  0.00  0.00     0.062 A 
ATOM      3  C   UNL d   1      57.349   0.681  33.177  0.00  0.00     0.018 A 
ATOM      4  N   UNL d   1      58.469   0.681  29.615  0.00  0.00    -0.305 N 
ATOM      5  C   UNL d   1      57.705   0.682  34.549  0.00  0.00     0.213 A 
ATOM      6  C   UNL d   1      56.349   0.681  34.168  0.00  0.00     0.101 A 
ATOM      7  C   UNL d   1      58.693   0.681  30.926  0.00  0.00     0.018 A 
ATOM      8  C   UNL d   1      58.103   0.681  30.350  0.00  0.00     0.064 A 
ATOM      9  O   UNL d   1      56.904   0.682  34.761  0.00  0.00    -0.288 OA
ATOM     10  C   UNL d   1      55.985   0.681  32.794  0.00  0.00     0.194 A 
ATOM     11  C   UNL d   1      59.268   0.681  29.735  0.00  0.00     0.064 A 
ATOM     12  C   UNL d   1      57.694   0.681  31.949  0.00  0.00     0.001 A 
ATOM     13  C   UNL d   1      59.418   0.681  30.543  0.00  0.00     0.018 A 
ATOM     14  C   UNL d   1      58.484   0.681  31.734  0.00  0.00     0.002 A 
ATOM     15  C   UNL d   1      58.735   0.682  33.543  0.00  0.00     0.105 C 
ATOM     16  N   UNL d   1      59.568   0.682  33.337  0.00  0.00    -0.191 NA
ATOM     17  C   UNL d   1      57.314   0.681  30.592  0.00  0.00     0.018 A 
ATOM     18  C   UNL d   1      55.540   0.681  34.377  0.00  0.00     0.002 A 
ATOM     19  C   UNL d   1      54.968   0.681  33.779  0.00  0.00     0.042 A 
ATOM     20  C   UNL d   1      55.194   0.681  32.977  0.00  0.00     0.019 A 
ATOM     21  C   UNL d   1      57.119   0.681  31.388  0.00  0.00     0.002 A 
ATOM     22  O   UNL d   1      56.213   0.681  31.982  0.00  0.00    -0.287 OA
ATOM     23  N   UNL d   1      58.283   0.682  35.149  0.00  0.00    -0.120 N 
ATOM     24  C   UNL d   1      59.918   0.681  29.208  0.00  0.00     0.018 A 
ATOM     25  C   UNL d   1      60.212   0.681  30.828  0.00  0.00     0.002 A 
ATOM     26  C   UNL d   1      54.206   0.681  33.565  0.00  0.00     0.009 C 
ATOM     27  C   UNL d   1      54.596   0.681  34.491  0.00  0.00     0.009 C 
ATOM     28  C   UNL d   1      60.844   0.681  30.299  0.00  0.00     0.000 A 
ATOM     29  C   UNL d   1      60.689   0.681  29.484  0.00  0.00     0.002 A 
ENDROOT
BRANCH   4  30
ATOM     30  C   UNL d   1      58.116   0.681  28.881  0.00  0.00     0.080 C 
ATOM     31  C   UNL d   1      57.989  -0.026  28.470  0.00  0.00     0.021 C 
ENDBRANCH   4  30
TORSDOF 1
ENDMDL
MODEL 2
REMARK VINA RESULT:      -0.6      1.188      4.641
REMARK  1 active torsions:
REMARK  status: ('A' for Active; 'I' for Inactive)
REMARK    1  A    between atoms: C_24  and  N_4 
ROOT
ATOM      1  C   UNL d   1      59.354   0.681  31.890  0.00  0.00     0.111 A 
ATOM      2  C   UNL d   1      58.530   0.680  30.748  0.00  0.00     0.062 A 
ATOM      3  C   UNL d   1      58.619   0.681  31.540  0.00  0.00     0.018 A 
ATOM      4  N   UNL d   1      55.658   0.681  33.816  0.00  0.00    -0.305 N 
ATOM      5  C   UNL d   1      60.030   0.681  31.403  0.00  0.00     0.213 A 
ATOM      6  C   UNL d   1      59.205   0.680  30.260  0.00  0.00     0.101 A 
ATOM      7  C   UNL d   1      56.967   0.681  33.575  0.00  0.00     0.018 A 
ATOM      8  C   UNL d   1      56.223   0.681  33.219  0.00  0.00     0.064 A 
ATOM      9  O   UNL d   1      59.953   0.680  30.578  0.00  0.00    -0.288 OA
ATOM     10  C   UNL d   1      57.790   0.680  30.391  0.00  0.00     0.194 A 
ATOM     11  C   UNL d   1      56.046   0.681  34.524  0.00  0.00     0.064 A 
ATOM     12  C   UNL d   1      57.584   0.681  32.287  0.00  0.00     0.001 A 
ATOM     13  C   UNL d   1      56.856   0.681  34.389  0.00  0.00     0.018 A 
ATOM     14  C   UNL d   1      57.654   0.681  33.102  0.00  0.00     0.002 A 
ATOM     15  C   UNL d   1      59.439   0.681  32.716  0.00  0.00     0.105 C 
ATOM     16  N   UNL d   1      59.531   0.681  33.569  0.00  0.00    -0.191 NA
ATOM     17  C   UNL d   1      56.179   0.680  32.395  0.00  0.00     0.018 A 
ATOM     18  C   UNL d   1      59.124   0.680  29.429  0.00  0.00     0.002 A 
ATOM     19  C   UNL d   1      58.366   0.680  29.097  0.00  0.00     0.042 A 
ATOM     20  C   UNL d   1      57.691   0.680  29.585  0.00  0.00     0.019 A 
ATOM     21  C   UNL d   1      56.860   0.680  31.939  0.00  0.00     0.002 A 
ATOM     22  O   UNL d   1      57.107   0.680  30.884  0.00  0.00    -0.287 OA
ATOM     23  N   UNL d   1      60.792   0.681  31.740  0.00  0.00    -0.120 N 
ATOM     24  C   UNL d   1      55.774   0.681  35.316  0.00  0.00     0.018 A 
ATOM     25  C   UNL d   1      57.396   0.682  35.036  0.00  0.00     0.002 A 
ATOM     26  C   UNL d   1      57.903   0.679  28.455  0.00  0.00     0.009 C 
ATOM     27  C   UNL d   1      58.907   0.680  28.503  0.00  0.00     0.009 C 
ATOM     28  C   UNL d   1      57.117   0.682  35.811  0.00  0.00     0.000 A 
ATOM     29  C   UNL d   1      56.298   0.682  35.946  0.00  0.00     0.002 A 
ENDROOT
BRANCH   4  30
ATOM     30  C   UNL d   1      54.847   0.681  33.737  0.00  0.00     0.080 C 
ATOM     31  C   UNL d   1      54.429  -0.028  33.653  0.00  0.00     0.021 C 
ENDBRANCH   4  30
TORSDOF 1
ENDMDL
