MODEL 1
REMARK VINA RESULT:      -8.1      0.000      0.000
REMARK  5 active torsions:
REMARK  status: ('A' for Active; 'I' for Inactive)
REMARK    1  A    between atoms: O_8  and  C_2 
REMARK    2  A    between atoms: C_9  and  C_5 
REMARK    3  A    between atoms: C_14  and  O_8 
REMARK    4  A    between atoms: N_11  and  C_9 
REMARK    5  A    between atoms: O_20  and  C_17 
ROOT
ATOM      1  C   UNL d   1     -48.474  13.113  22.721  0.00  0.00     0.108 A 
ATOM      2  C   UNL d   1     -46.893  12.969  23.218  0.00  0.00     0.161 A 
ATOM      3  C   UNL d   1     -48.163  12.360  22.920  0.00  0.00     0.064 A 
ATOM      4  C   UNL d   1     -47.374  12.291  23.167  0.00  0.00     0.222 A 
ATOM      5  C   UNL d   1     -49.251  13.185  22.477  0.00  0.00     0.079 A 
ATOM      6  O   UNL d   1     -47.991  13.788  22.772  0.00  0.00    -0.305 OA
ATOM      7  C   UNL d   1     -47.200  13.715  23.021  0.00  0.00     0.126 A 
ATOM      8  C   UNL d   1     -48.653  11.701  22.864  0.00  0.00     0.009 A 
ATOM      9  C   UNL d   1     -49.735  12.523  22.423  0.00  0.00     0.199 A 
ATOM     10  O   UNL d   1     -47.068  11.548  23.363  0.00  0.00    -0.284 OA
ATOM     11  C   UNL d   1     -49.433  11.779  22.618  0.00  0.00     0.042 A 
ATOM     12  O   UNL d   1     -50.519  12.600  22.176  0.00  0.00    -0.286 OA
ATOM     13  C   UNL d   1     -46.722  14.390  23.071  0.00  0.00     0.029 C 
ENDROOT
BRANCH   2  14
ATOM     14  O   UNL d   1     -46.109  12.892  23.465  0.00  0.00    -0.302 OA
BRANCH  14  15
ATOM     15  C   UNL d   1     -45.505  12.762  22.916  0.00  0.00     0.102 A 
ATOM     16  C   UNL d   1     -44.988  12.135  23.019  0.00  0.00     0.049 A 
ATOM     17  C   UNL d   1     -44.385  12.008  22.468  0.00  0.00     0.096 A 
ATOM     18  C   UNL d   1     -44.302  12.512  21.814  0.00  0.00     0.024 A 
ATOM     19  C   UNL d   1     -44.830  13.144  21.718  0.00  0.00     0.004 A 
ATOM     20  C   UNL d   1     -45.428  13.267  22.268  0.00  0.00     0.025 A 
BRANCH  17  21
ATOM     21  O   UNL d   1     -43.868  11.381  22.571  0.00  0.00    -0.328 OA
ATOM     22  C   UNL d   1     -43.933  10.890  23.234  0.00  0.00     0.181 C 
ENDBRANCH  17  21
ENDBRANCH  14  15
ENDBRANCH   2  14
BRANCH   5  23
ATOM     23  C   UNL d   1     -49.549  13.917  22.285  0.00  0.00     0.085 C 
BRANCH  23  24
ATOM     24  N   UNL d   1     -49.976  14.410  22.774  0.00  0.00    -0.302 N 
ATOM     25  C   UNL d   1     -49.961  15.223  22.768  0.00  0.00     0.080 A 
ATOM     26  C   UNL d   1     -50.464  15.484  23.339  0.00  0.00     0.021 A 
ATOM     27  C   UNL d   1     -50.789  14.851  23.698  0.00  0.00     0.021 A 
ATOM     28  C   UNL d   1     -50.486  14.173  23.347  0.00  0.00     0.080 A 
ENDBRANCH  23  24
ENDBRANCH   5  23
TORSDOF 5
ENDMDL
MODEL 2
REMARK VINA RESULT:      -6.6      8.182      9.672
REMARK  5 active torsions:
REMARK  status: ('A' for Active; 'I' for Inactive)
REMARK    1  A    between atoms: O_8  and  C_2 
REMARK    2  A    between atoms: C_9  and  C_5 
REMARK    3  A    between atoms: C_14  and  O_8 
REMARK    4  A    between atoms: N_11  and  C_9 
REMARK    5  A    between atoms: O_20  and  C_17 
ROOT
ATOM      1  C   UNL d   1     -39.475  14.683  20.395  0.00  0.00     0.108 A 
ATOM      2  C   UNL d   1     -39.705  14.054  18.871  0.00  0.00     0.161 A 
ATOM      3  C   UNL d   1     -40.157  14.890  19.953  0.00  0.00     0.064 A 
ATOM      4  C   UNL d   1     -40.269  14.574  19.194  0.00  0.00     0.222 A 
ATOM      5  C   UNL d   1     -39.361  14.991  21.143  0.00  0.00     0.079 A 
ATOM      6  O   UNL d   1     -38.913  14.163  20.070  0.00  0.00    -0.305 OA
ATOM      7  C   UNL d   1     -39.028  13.848  19.308  0.00  0.00     0.126 A 
ATOM      8  C   UNL d   1     -40.705  15.406  20.287  0.00  0.00     0.009 A 
ATOM      9  C   UNL d   1     -39.912  15.506  21.471  0.00  0.00     0.199 A 
ATOM     10  O   UNL d   1     -40.942  14.779  18.759  0.00  0.00    -0.284 OA
ATOM     11  C   UNL d   1     -40.585  15.712  21.039  0.00  0.00     0.042 A 
ATOM     12  O   UNL d   1     -39.793  15.815  22.227  0.00  0.00    -0.286 OA
ATOM     13  C   UNL d   1     -38.466  13.330  18.989  0.00  0.00     0.029 C 
ENDROOT
BRANCH   2  14
ATOM     14  O   UNL d   1     -39.823  13.744  18.115  0.00  0.00    -0.302 OA
BRANCH  14  15
ATOM     15  C   UNL d   1     -39.576  14.161  17.446  0.00  0.00     0.102 A 
ATOM     16  C   UNL d   1     -38.880  13.952  17.069  0.00  0.00     0.049 A 
ATOM     17  C   UNL d   1     -38.636  14.371  16.399  0.00  0.00     0.096 A 
ATOM     18  C   UNL d   1     -39.093  15.000  16.110  0.00  0.00     0.024 A 
ATOM     19  C   UNL d   1     -39.796  15.205  16.498  0.00  0.00     0.004 A 
ATOM     20  C   UNL d   1     -40.035  14.785  17.164  0.00  0.00     0.025 A 
BRANCH  17  21
ATOM     21  O   UNL d   1     -37.940  14.163  16.022  0.00  0.00    -0.328 OA
ATOM     22  C   UNL d   1     -37.956  13.672  15.356  0.00  0.00     0.181 C 
ENDBRANCH  17  21
ENDBRANCH  14  15
ENDBRANCH   2  14
BRANCH   5  23
ATOM     23  C   UNL d   1     -38.698  14.788  21.568  0.00  0.00     0.085 C 
BRANCH  23  24
ATOM     24  N   UNL d   1     -38.675  14.324  22.238  0.00  0.00    -0.302 N 
ATOM     25  C   UNL d   1     -38.340  14.526  22.951  0.00  0.00     0.080 A 
ATOM     26  C   UNL d   1     -38.442  13.908  23.456  0.00  0.00     0.021 A 
ATOM     27  C   UNL d   1     -38.833  13.330  23.072  0.00  0.00     0.021 A 
ATOM     28  C   UNL d   1     -38.982  13.585  22.306  0.00  0.00     0.080 A 
ENDBRANCH  23  24
ENDBRANCH   5  23
TORSDOF 5
ENDMDL
MODEL 3
REMARK VINA RESULT:      -6.5      1.420      5.069
REMARK  5 active torsions:
REMARK  status: ('A' for Active; 'I' for Inactive)
REMARK    1  A    between atoms: O_8  and  C_2 
REMARK    2  A    between atoms: C_9  and  C_5 
REMARK    3  A    between atoms: C_14  and  O_8 
REMARK    4  A    between atoms: N_11  and  C_9 
REMARK    5  A    between atoms: O_20  and  C_17 
ROOT
ATOM      1  C   UNL d   1     -46.707  12.612  22.816  0.00  0.00     0.108 A 
ATOM      2  C   UNL d   1     -48.254  12.925  23.346  0.00  0.00     0.161 A 
ATOM      3  C   UNL d   1     -46.960  13.404  22.933  0.00  0.00     0.064 A 
ATOM      4  C   UNL d   1     -47.731  13.557  23.197  0.00  0.00     0.222 A 
ATOM      5  C   UNL d   1     -45.948  12.458  22.556  0.00  0.00     0.079 A 
ATOM      6  O   UNL d   1     -47.231  11.984  22.966  0.00  0.00    -0.305 OA
ATOM      7  C   UNL d   1     -48.004  12.141  23.231  0.00  0.00     0.126 A 
ATOM      8  C   UNL d   1     -46.431  14.016  22.780  0.00  0.00     0.009 A 
ATOM      9  C   UNL d   1     -45.425  13.073  22.406  0.00  0.00     0.199 A 
ATOM     10  O   UNL d   1     -47.980  14.337  23.311  0.00  0.00    -0.284 OA
ATOM     11  C   UNL d   1     -45.669  13.854  22.519  0.00  0.00     0.042 A 
ATOM     12  O   UNL d   1     -44.659  12.913  22.143  0.00  0.00    -0.286 OA
ATOM     13  C   UNL d   1     -48.523  11.512  23.379  0.00  0.00     0.029 C 
ENDROOT
BRANCH   2  14
ATOM     14  O   UNL d   1     -49.019  13.085  23.609  0.00  0.00    -0.302 OA
BRANCH  14  15
ATOM     15  C   UNL d   1     -49.625  13.246  23.070  0.00  0.00     0.102 A 
ATOM     16  C   UNL d   1     -50.042  13.948  23.122  0.00  0.00     0.049 A 
ATOM     17  C   UNL d   1     -50.647  14.107  22.582  0.00  0.00     0.096 A 
ATOM     18  C   UNL d   1     -50.832  13.557  21.989  0.00  0.00     0.024 A 
ATOM     19  C   UNL d   1     -50.404  12.848  21.943  0.00  0.00     0.004 A 
ATOM     20  C   UNL d   1     -49.803  12.695  22.483  0.00  0.00     0.025 A 
BRANCH  17  21
ATOM     21  O   UNL d   1     -51.064  14.809  22.634  0.00  0.00    -0.328 OA
ATOM     22  C   UNL d   1     -50.979  15.297  23.297  0.00  0.00     0.181 C 
ENDBRANCH  17  21
ENDBRANCH  14  15
ENDBRANCH   2  14
BRANCH   5  23
ATOM     23  C   UNL d   1     -45.707  11.688  22.445  0.00  0.00     0.085 C 
BRANCH  23  24
ATOM     24  N   UNL d   1     -45.133  11.295  22.869  0.00  0.00    -0.302 N 
ATOM     25  C   UNL d   1     -45.258  10.698  23.407  0.00  0.00     0.080 A 
ATOM     26  C   UNL d   1     -44.542  10.469  23.694  0.00  0.00     0.021 A 
ATOM     27  C   UNL d   1     -43.978  10.910  23.345  0.00  0.00     0.021 A 
ATOM     28  C   UNL d   1     -44.343  11.431  22.826  0.00  0.00     0.080 A 
ENDBRANCH  23  24
ENDBRANCH   5  23
TORSDOF 5
ENDMDL
MODEL 4
REMARK VINA RESULT:      -6.4      8.306     10.010
REMARK  5 active torsions:
REMARK  status: ('A' for Active; 'I' for Inactive)
REMARK    1  A    between atoms: O_8  and  C_2 
REMARK    2  A    between atoms: C_9  and  C_5 
REMARK    3  A    between atoms: C_14  and  O_8 
REMARK    4  A    between atoms: N_11  and  C_9 
REMARK    5  A    between atoms: O_20  and  C_17 
ROOT
ATOM      1  C   UNL d   1     -39.520  15.792  18.181  0.00  0.00     0.108 A 
ATOM      2  C   UNL d   1     -39.505  15.879  19.843  0.00  0.00     0.161 A 
ATOM      3  C   UNL d   1     -40.241  15.836  18.607  0.00  0.00     0.064 A 
ATOM      4  C   UNL d   1     -40.231  15.879  19.435  0.00  0.00     0.222 A 
ATOM      5  C   UNL d   1     -39.526  15.749  17.365  0.00  0.00     0.079 A 
ATOM      6  O   UNL d   1     -38.796  15.792  18.592  0.00  0.00    -0.305 OA
ATOM      7  C   UNL d   1     -38.789  15.835  19.422  0.00  0.00     0.126 A 
ATOM      8  C   UNL d   1     -40.950  15.835  18.187  0.00  0.00     0.009 A 
ATOM      9  C   UNL d   1     -40.237  15.749  16.953  0.00  0.00     0.199 A 
ATOM     10  O   UNL d   1     -40.943  15.922  19.854  0.00  0.00    -0.284 OA
ATOM     11  C   UNL d   1     -40.950  15.792  17.367  0.00  0.00     0.042 A 
ATOM     12  O   UNL d   1     -40.239  15.706  16.128  0.00  0.00    -0.286 OA
ATOM     13  C   UNL d   1     -38.066  15.835  19.827  0.00  0.00     0.029 C 
ENDROOT
BRANCH   2  14
ATOM     14  O   UNL d   1     -39.502  15.922  20.667  0.00  0.00    -0.302 OA
BRANCH  14  15
ATOM     15  C   UNL d   1     -39.478  15.235  21.125  0.00  0.00     0.102 A 
ATOM     16  C   UNL d   1     -38.860  15.114  21.648  0.00  0.00     0.049 A 
ATOM     17  C   UNL d   1     -38.838  14.425  22.105  0.00  0.00     0.096 A 
ATOM     18  C   UNL d   1     -39.440  13.859  22.035  0.00  0.00     0.024 A 
ATOM     19  C   UNL d   1     -40.063  13.989  21.503  0.00  0.00     0.004 A 
ATOM     20  C   UNL d   1     -40.080  14.675  21.051  0.00  0.00     0.025 A 
BRANCH  17  21
ATOM     21  O   UNL d   1     -38.220  14.304  22.627  0.00  0.00    -0.328 OA
ATOM     22  C   UNL d   1     -38.352  13.927  23.351  0.00  0.00     0.181 C 
ENDBRANCH  17  21
ENDBRANCH  14  15
ENDBRANCH   2  14
BRANCH   5  23
ATOM     23  C   UNL d   1     -38.824  15.707  16.956  0.00  0.00     0.085 C 
BRANCH  23  24
ATOM     24  N   UNL d   1     -38.541  15.062  16.545  0.00  0.00    -0.302 N 
ATOM     25  C   UNL d   1     -38.603  14.283  16.773  0.00  0.00     0.080 A 
ATOM     26  C   UNL d   1     -38.251  13.832  16.208  0.00  0.00     0.021 A 
ATOM     27  C   UNL d   1     -37.972  14.313  15.637  0.00  0.00     0.021 A 
ATOM     28  C   UNL d   1     -38.151  15.088  15.844  0.00  0.00     0.080 A 
ENDBRANCH  23  24
ENDBRANCH   5  23
TORSDOF 5
ENDMDL
MODEL 5
REMARK VINA RESULT:      -5.7      1.491      4.676
REMARK  5 active torsions:
REMARK  status: ('A' for Active; 'I' for Inactive)
REMARK    1  A    between atoms: O_8  and  C_2 
REMARK    2  A    between atoms: C_9  and  C_5 
REMARK    3  A    between atoms: C_14  and  O_8 
REMARK    4  A    between atoms: N_11  and  C_9 
REMARK    5  A    between atoms: O_20  and  C_17 
ROOT
ATOM      1  C   UNL d   1     -47.012  12.343  23.447  0.00  0.00     0.108 A 
ATOM      2  C   UNL d   1     -48.609  12.812  23.439  0.00  0.00     0.161 A 
ATOM      3  C   UNL d   1     -47.618  11.776  23.571  0.00  0.00     0.064 A 
ATOM      4  C   UNL d   1     -48.413  12.012  23.567  0.00  0.00     0.222 A 
ATOM      5  C   UNL d   1     -46.228  12.114  23.451  0.00  0.00     0.079 A 
ATOM      6  O   UNL d   1     -47.212  13.141  23.321  0.00  0.00    -0.305 OA
ATOM      7  C   UNL d   1     -48.010  13.374  23.317  0.00  0.00     0.126 A 
ATOM      8  C   UNL d   1     -47.405  10.990  23.695  0.00  0.00     0.009 A 
ATOM      9  C   UNL d   1     -46.023  11.328  23.576  0.00  0.00     0.199 A 
ATOM     10  O   UNL d   1     -49.009  11.452  23.689  0.00  0.00    -0.284 OA
ATOM     11  C   UNL d   1     -46.616  10.766  23.698  0.00  0.00     0.042 A 
ATOM     12  O   UNL d   1     -45.229  11.101  23.579  0.00  0.00    -0.286 OA
ATOM     13  C   UNL d   1     -48.204  14.170  23.190  0.00  0.00     0.029 C 
ENDROOT
BRANCH   2  14
ATOM     14  O   UNL d   1     -49.403  13.039  23.436  0.00  0.00    -0.302 OA
BRANCH  14  15
ATOM     15  C   UNL d   1     -49.854  12.983  22.747  0.00  0.00     0.102 A 
ATOM     16  C   UNL d   1     -49.981  13.649  22.287  0.00  0.00     0.049 A 
ATOM     17  C   UNL d   1     -50.433  13.589  21.597  0.00  0.00     0.096 A 
ATOM     18  C   UNL d   1     -50.758  12.860  21.372  0.00  0.00     0.024 A 
ATOM     19  C   UNL d   1     -50.625  12.192  21.844  0.00  0.00     0.004 A 
ATOM     20  C   UNL d   1     -50.174  12.255  22.528  0.00  0.00     0.025 A 
BRANCH  17  21
ATOM     21  O   UNL d   1     -50.560  14.255  21.137  0.00  0.00    -0.328 OA
ATOM     22  C   UNL d   1     -51.064  14.855  21.401  0.00  0.00     0.181 C 
ENDBRANCH  17  21
ENDBRANCH  14  15
ENDBRANCH   2  14
BRANCH   5  23
ATOM     23  C   UNL d   1     -45.644  12.668  23.330  0.00  0.00     0.085 C 
BRANCH  23  24
ATOM     24  N   UNL d   1     -45.203  12.766  22.652  0.00  0.00    -0.302 N 
ATOM     25  C   UNL d   1     -45.145  13.449  22.212  0.00  0.00     0.080 A 
ATOM     26  C   UNL d   1     -44.654  13.302  21.592  0.00  0.00     0.021 A 
ATOM     27  C   UNL d   1     -44.408  12.545  21.638  0.00  0.00     0.021 A 
ATOM     28  C   UNL d   1     -44.749  12.204  22.302  0.00  0.00     0.080 A 
ENDBRANCH  23  24
ENDBRANCH   5  23
TORSDOF 5
ENDMDL
MODEL 6
REMARK VINA RESULT:      -5.5      6.862      9.451
REMARK  5 active torsions:
REMARK  status: ('A' for Active; 'I' for Inactive)
REMARK    1  A    between atoms: O_8  and  C_2 
REMARK    2  A    between atoms: C_9  and  C_5 
REMARK    3  A    between atoms: C_14  and  O_8 
REMARK    4  A    between atoms: N_11  and  C_9 
REMARK    5  A    between atoms: O_20  and  C_17 
ROOT
ATOM      1  C   UNL d   1     -39.938  15.490  19.555  0.00  0.00     0.108 A 
ATOM      2  C   UNL d   1     -39.478  15.409  17.958  0.00  0.00     0.161 A 
ATOM      3  C   UNL d   1     -39.149  15.670  19.335  0.00  0.00     0.064 A 
ATOM      4  C   UNL d   1     -38.922  15.629  18.538  0.00  0.00     0.222 A 
ATOM      5  C   UNL d   1     -40.165  15.529  20.339  0.00  0.00     0.079 A 
ATOM      6  O   UNL d   1     -40.490  15.271  18.973  0.00  0.00    -0.305 OA
ATOM      7  C   UNL d   1     -40.260  15.231  18.175  0.00  0.00     0.126 A 
ATOM      8  C   UNL d   1     -38.613  15.884  19.922  0.00  0.00     0.009 A 
ATOM      9  C   UNL d   1     -39.625  15.744  20.920  0.00  0.00     0.199 A 
ATOM     10  O   UNL d   1     -38.144  15.806  18.322  0.00  0.00    -0.284 OA
ATOM     11  C   UNL d   1     -38.847  15.922  20.708  0.00  0.00     0.042 A 
ATOM     12  O   UNL d   1     -39.858  15.783  21.711  0.00  0.00    -0.286 OA
ATOM     13  C   UNL d   1     -40.814  15.013  17.598  0.00  0.00     0.029 C 
ENDROOT
BRANCH   2  14
ATOM     14  O   UNL d   1     -39.245  15.371  17.167  0.00  0.00    -0.302 OA
BRANCH  14  15
ATOM     15  C   UNL d   1     -38.852  14.705  16.875  0.00  0.00     0.102 A 
ATOM     16  C   UNL d   1     -38.944  13.982  17.248  0.00  0.00     0.049 A 
ATOM     17  C   UNL d   1     -38.550  13.317  16.954  0.00  0.00     0.096 A 
ATOM     18  C   UNL d   1     -38.064  13.382  16.285  0.00  0.00     0.024 A 
ATOM     19  C   UNL d   1     -37.977  14.118  15.914  0.00  0.00     0.004 A 
ATOM     20  C   UNL d   1     -38.371  14.776  16.210  0.00  0.00     0.025 A 
BRANCH  17  21
ATOM     21  O   UNL d   1     -38.641  12.594  17.326  0.00  0.00    -0.328 OA
ATOM     22  C   UNL d   1     -37.980  12.178  17.599  0.00  0.00     0.181 C 
ENDBRANCH  17  21
ENDBRANCH  14  15
ENDBRANCH   2  14
BRANCH   5  23
ATOM     23  C   UNL d   1     -40.932  15.354  20.548  0.00  0.00     0.085 C 
BRANCH  23  24
ATOM     24  N   UNL d   1     -41.205  14.640  20.831  0.00  0.00    -0.302 N 
ATOM     25  C   UNL d   1     -41.982  14.397  20.850  0.00  0.00     0.080 A 
ATOM     26  C   UNL d   1     -42.003  13.660  21.171  0.00  0.00     0.021 A 
ATOM     27  C   UNL d   1     -41.258  13.441  21.350  0.00  0.00     0.021 A 
ATOM     28  C   UNL d   1     -40.752  14.053  21.139  0.00  0.00     0.080 A 
ENDBRANCH  23  24
ENDBRANCH   5  23
TORSDOF 5
ENDMDL
