MODEL 1
REMARK VINA RESULT:      -8.0      0.000      0.000
REMARK  3 active torsions:
REMARK  status: ('A' for Active; 'I' for Inactive)
REMARK    1  A    between atoms: C_7  and  C_2 
REMARK    2  A    between atoms: N_5  and  C_8 
REMARK    3  A    between atoms: C_9  and  C_7 
ROOT
ATOM      1  C   UNL d   1     -49.502  12.254  22.495  0.00  0.00     0.127 A 
ATOM      2  C   UNL d   1     -48.681  12.371  22.509  0.00  0.00     0.023 A 
ATOM      3  C   UNL d   1     -48.297  12.656  21.841  0.00  0.00     0.002 A 
ATOM      4  C   UNL d   1     -49.928  12.422  21.818  0.00  0.00     0.024 A 
ATOM      5  C   UNL d   1     -48.725  12.827  21.156  0.00  0.00     0.000 A 
ATOM      6  C   UNL d   1     -49.544  12.707  21.149  0.00  0.00     0.002 A 
ENDROOT
BRANCH   2   7
ATOM      7  C   UNL d   1     -48.257  12.201  23.192  0.00  0.00     0.013 C 
BRANCH   7   8
ATOM      8  C   UNL d   1     -47.494  12.503  23.290  0.00  0.00     0.092 A 
ATOM      9  C   UNL d   1     -46.827  12.075  23.522  0.00  0.00     0.288 A 
ATOM     10  N   UNL d   1     -46.190  12.601  23.546  0.00  0.00    -0.163 NA
ATOM     11  O   UNL d   1     -46.806  11.271  23.698  0.00  0.00    -0.265 OA
ATOM     12  C   UNL d   1     -46.458  13.346  23.331  0.00  0.00     0.313 A 
ATOM     13  S   UNL d   1     -47.264  13.289  23.172  0.00  0.00    -0.021 SA
ATOM     14  O   UNL d   1     -46.001  14.031  23.282  0.00  0.00    -0.258 OA
ENDBRANCH   7   8
ENDBRANCH   2   7
BRANCH   1  15
ATOM     15  N   UNL d   1     -49.887  11.967  23.168  0.00  0.00    -0.114 N 
ATOM     16  O   UNL d   1     -49.923  11.155  23.316  0.00  0.00    -0.532 OA
ATOM     17  O   UNL d   1     -50.240  12.498  23.698  0.00  0.00    -0.532 OA
ENDBRANCH   1  15
TORSDOF 3
ENDMDL
MODEL 2
REMARK VINA RESULT:      -7.9      1.508      2.037
REMARK  3 active torsions:
REMARK  status: ('A' for Active; 'I' for Inactive)
REMARK    1  A    between atoms: C_7  and  C_2 
REMARK    2  A    between atoms: N_5  and  C_8 
REMARK    3  A    between atoms: C_9  and  C_7 
ROOT
ATOM      1  C   UNL d   1     -48.905  14.119  22.360  0.00  0.00     0.127 A 
ATOM      2  C   UNL d   1     -48.225  13.644  22.372  0.00  0.00     0.023 A 
ATOM      3  C   UNL d   1     -48.192  12.966  21.909  0.00  0.00     0.002 A 
ATOM      4  C   UNL d   1     -49.540  13.914  21.889  0.00  0.00     0.024 A 
ATOM      5  C   UNL d   1     -48.832  12.756  21.432  0.00  0.00     0.000 A 
ATOM      6  C   UNL d   1     -49.507  13.236  21.425  0.00  0.00     0.002 A 
ENDROOT
BRANCH   2   7
ATOM      7  C   UNL d   1     -47.589  13.854  22.847  0.00  0.00     0.013 C 
BRANCH   7   8
ATOM      8  C   UNL d   1     -46.998  13.302  23.013  0.00  0.00     0.092 A 
ATOM      9  C   UNL d   1     -46.187  13.405  22.893  0.00  0.00     0.288 A 
ATOM     10  N   UNL d   1     -45.809  12.711  23.137  0.00  0.00    -0.163 NA
ATOM     11  O   UNL d   1     -45.826  14.078  22.586  0.00  0.00    -0.265 OA
ATOM     12  C   UNL d   1     -46.377  12.185  23.405  0.00  0.00     0.313 A 
ATOM     13  S   UNL d   1     -47.113  12.546  23.330  0.00  0.00    -0.021 SA
ATOM     14  O   UNL d   1     -46.237  11.426  23.698  0.00  0.00    -0.258 OA
ENDBRANCH   7   8
ENDBRANCH   2   7
BRANCH   1  15
ATOM     15  N   UNL d   1     -48.937  14.802  22.827  0.00  0.00    -0.114 N 
ATOM     16  O   UNL d   1     -49.246  14.771  23.592  0.00  0.00    -0.532 OA
ATOM     17  O   UNL d   1     -48.655  15.520  22.524  0.00  0.00    -0.532 OA
ENDBRANCH   1  15
TORSDOF 3
ENDMDL
MODEL 3
REMARK VINA RESULT:      -7.5      1.356      3.189
REMARK  3 active torsions:
REMARK  status: ('A' for Active; 'I' for Inactive)
REMARK    1  A    between atoms: C_7  and  C_2 
REMARK    2  A    between atoms: N_5  and  C_8 
REMARK    3  A    between atoms: C_9  and  C_7 
ROOT
ATOM      1  C   UNL d   1     -46.751  13.599  22.849  0.00  0.00     0.127 A 
ATOM      2  C   UNL d   1     -47.541  13.356  22.784  0.00  0.00     0.023 A 
ATOM      3  C   UNL d   1     -48.138  13.917  22.721  0.00  0.00     0.002 A 
ATOM      4  C   UNL d   1     -46.566  14.395  22.852  0.00  0.00     0.024 A 
ATOM      5  C   UNL d   1     -47.954  14.722  22.724  0.00  0.00     0.000 A 
ATOM      6  C   UNL d   1     -47.163  14.957  22.790  0.00  0.00     0.002 A 
ENDROOT
BRANCH   2   7
ATOM      7  C   UNL d   1     -47.723  12.554  22.781  0.00  0.00     0.013 C 
BRANCH   7   8
ATOM      8  C   UNL d   1     -48.486  12.305  22.589  0.00  0.00     0.092 A 
ATOM      9  C   UNL d   1     -48.941  11.759  23.011  0.00  0.00     0.288 A 
ATOM     10  N   UNL d   1     -49.663  11.680  22.617  0.00  0.00    -0.163 NA
ATOM     11  O   UNL d   1     -48.711  11.368  23.698  0.00  0.00    -0.265 OA
ATOM     12  C   UNL d   1     -49.657  12.170  21.960  0.00  0.00     0.313 A 
ATOM     13  S   UNL d   1     -48.932  12.558  21.939  0.00  0.00    -0.021 SA
ATOM     14  O   UNL d   1     -50.270  12.259  21.415  0.00  0.00    -0.258 OA
ENDBRANCH   7   8
ENDBRANCH   2   7
BRANCH   1  15
ATOM     15  N   UNL d   1     -46.151  13.033  22.912  0.00  0.00    -0.114 N 
ATOM     16  O   UNL d   1     -45.763  12.758  22.237  0.00  0.00    -0.532 OA
ATOM     17  O   UNL d   1     -45.940  12.739  23.658  0.00  0.00    -0.532 OA
ENDBRANCH   1  15
TORSDOF 3
ENDMDL
MODEL 4
REMARK VINA RESULT:      -7.0      1.395      1.861
REMARK  3 active torsions:
REMARK  status: ('A' for Active; 'I' for Inactive)
REMARK    1  A    between atoms: C_7  and  C_2 
REMARK    2  A    between atoms: N_5  and  C_8 
REMARK    3  A    between atoms: C_9  and  C_7 
ROOT
ATOM      1  C   UNL d   1     -49.617  12.524  22.541  0.00  0.00     0.127 A 
ATOM      2  C   UNL d   1     -48.831  12.669  22.765  0.00  0.00     0.023 A 
ATOM      3  C   UNL d   1     -48.477  12.199  23.340  0.00  0.00     0.002 A 
ATOM      4  C   UNL d   1     -50.038  11.918  22.890  0.00  0.00     0.024 A 
ATOM      5  C   UNL d   1     -48.900  11.586  23.694  0.00  0.00     0.000 A 
ATOM      6  C   UNL d   1     -49.684  11.448  23.465  0.00  0.00     0.002 A 
ENDROOT
BRANCH   2   7
ATOM      7  C   UNL d   1     -48.411  13.280  22.411  0.00  0.00     0.013 C 
BRANCH   7   8
ATOM      8  C   UNL d   1     -47.604  13.368  22.563  0.00  0.00     0.092 A 
ATOM      9  C   UNL d   1     -47.241  14.031  22.896  0.00  0.00     0.288 A 
ATOM     10  N   UNL d   1     -46.431  13.874  22.944  0.00  0.00    -0.163 NA
ATOM     11  O   UNL d   1     -47.622  14.722  23.134  0.00  0.00    -0.265 OA
ATOM     12  C   UNL d   1     -46.293  13.123  22.646  0.00  0.00     0.313 A 
ATOM     13  S   UNL d   1     -47.016  12.807  22.409  0.00  0.00    -0.021 SA
ATOM     14  O   UNL d   1     -45.560  12.749  22.592  0.00  0.00    -0.258 OA
ENDBRANCH   7   8
ENDBRANCH   2   7
BRANCH   1  15
ATOM     15  N   UNL d   1     -49.971  12.998  21.962  0.00  0.00    -0.114 N 
ATOM     16  O   UNL d   1     -49.863  12.831  21.161  0.00  0.00    -0.532 OA
ATOM     17  O   UNL d   1     -50.439  13.643  22.190  0.00  0.00    -0.532 OA
ENDBRANCH   1  15
TORSDOF 3
ENDMDL
MODEL 5
REMARK VINA RESULT:      -6.8      1.801      3.263
REMARK  3 active torsions:
REMARK  status: ('A' for Active; 'I' for Inactive)
REMARK    1  A    between atoms: C_7  and  C_2 
REMARK    2  A    between atoms: N_5  and  C_8 
REMARK    3  A    between atoms: C_9  and  C_7 
ROOT
ATOM      1  C   UNL d   1     -47.853  14.448  22.719  0.00  0.00     0.127 A 
ATOM      2  C   UNL d   1     -48.123  13.672  22.608  0.00  0.00     0.023 A 
ATOM      3  C   UNL d   1     -47.597  13.043  22.669  0.00  0.00     0.002 A 
ATOM      4  C   UNL d   1     -47.065  14.588  22.888  0.00  0.00     0.024 A 
ATOM      5  C   UNL d   1     -46.801  13.182  22.840  0.00  0.00     0.000 A 
ATOM      6  C   UNL d   1     -46.539  13.960  22.949  0.00  0.00     0.002 A 
ENDROOT
BRANCH   2   7
ATOM      7  C   UNL d   1     -48.915  13.535  22.439  0.00  0.00     0.013 C 
BRANCH   7   8
ATOM      8  C   UNL d   1     -49.239  12.785  22.557  0.00  0.00     0.092 A 
ATOM      9  C   UNL d   1     -49.624  12.325  21.989  0.00  0.00     0.288 A 
ATOM     10  N   UNL d   1     -49.855  11.621  22.353  0.00  0.00    -0.163 NA
ATOM     11  O   UNL d   1     -49.751  12.536  21.203  0.00  0.00    -0.265 OA
ATOM     12  C   UNL d   1     -49.617  11.642  23.137  0.00  0.00     0.313 A 
ATOM     13  S   UNL d   1     -49.236  12.360  23.268  0.00  0.00    -0.021 SA
ATOM     14  O   UNL d   1     -49.737  11.049  23.698  0.00  0.00    -0.258 OA
ENDBRANCH   7   8
ENDBRANCH   2   7
BRANCH   1  15
ATOM     15  N   UNL d   1     -48.384  15.080  22.657  0.00  0.00    -0.114 N 
ATOM     16  O   UNL d   1     -48.829  15.317  23.311  0.00  0.00    -0.532 OA
ATOM     17  O   UNL d   1     -48.468  15.476  21.934  0.00  0.00    -0.532 OA
ENDBRANCH   1  15
TORSDOF 3
ENDMDL
