MODEL 1
REMARK VINA RESULT:      82.4      0.000      0.000
REMARK  6 active torsions:
REMARK  status: ('A' for Active; 'I' for Inactive)
REMARK    1  A    between atoms: C_3  and  S_1 
REMARK    2  A    between atoms: N_4  and  S_1 
REMARK    3  A    between atoms: S_2  and  C_7 
REMARK    4  A    between atoms: C_8  and  S_2 
REMARK    5  A    between atoms: C_6  and  C_9 
REMARK       I    between atoms: N_10  and  C_6 
REMARK    6  A    between atoms: C_17  and  N_10 
ROOT
ATOM      1  C   UNL d   1     -47.297  29.782  35.365  0.00  0.00     0.115 A 
ATOM      2  C   UNL d   1     -47.854  29.432  34.862  0.00  0.00     0.019 A 
ATOM      3  C   UNL d   1     -48.512  29.066  35.195  0.00  0.00     0.059 A 
ATOM      4  C   UNL d   1     -47.399  29.764  36.170  0.00  0.00     0.070 A 
ATOM      5  C   UNL d   1     -48.614  29.048  36.000  0.00  0.00     0.006 A 
ATOM      6  C   UNL d   1     -48.061  29.395  36.496  0.00  0.00     0.012 A 
ATOM      7 CL   UNL d   1     -46.831  30.120  36.668  0.00  0.00    -0.082 Cl
ENDROOT
BRANCH   3   8
ATOM      8  C   UNL d   1     -49.086  28.706  34.707  0.00  0.00     0.279 C 
ATOM      9  N   UNL d   1     -49.257  27.906  34.787  0.00  0.00    -0.208 NA
ATOM     10  O   UNL d   1     -49.487  29.154  34.142  0.00  0.00    -0.265 OA
BRANCH   9  11
ATOM     11  C   UNL d   1     -49.826  27.556  34.303  0.00  0.00     0.085 A 
ATOM     12  C   UNL d   1     -49.815  26.730  34.175  0.00  0.00     0.031 A 
ATOM     13  C   UNL d   1     -50.388  26.370  33.686  0.00  0.00     0.094 A 
ATOM     14  C   UNL d   1     -50.982  26.839  33.318  0.00  0.00     0.012 A 
ATOM     15  C   UNL d   1     -50.993  27.666  33.446  0.00  0.00     0.002 A 
ATOM     16  C   UNL d   1     -50.420  28.025  33.934  0.00  0.00     0.019 A 
BRANCH  13  17
ATOM     17  S   UNL d   1     -50.268  25.568  33.644  0.00  0.00     0.262 S 
ATOM     18  O   UNL d   1     -50.160  24.758  33.600  0.00  0.00    -0.213 OA
ATOM     19  O   UNL d   1     -49.465  25.663  33.695  0.00  0.00    -0.213 OA
BRANCH  17  20
ATOM     20  C   UNL d   1     -51.081  25.457  33.591  0.00  0.00     0.364 C 
ATOM     21  F   UNL d   1     -51.378  24.760  33.306  0.00  0.00    -0.159 F 
ATOM     22  F   UNL d   1     -51.594  26.050  33.826  0.00  0.00    -0.159 F 
ENDBRANCH  17  20
ENDBRANCH  13  17
ENDBRANCH   9  11
ENDBRANCH   3   8
BRANCH   1  23
ATOM     23  S   UNL d   1     -46.638  30.148  35.020  0.00  0.00     0.272 S 
ATOM     24  O   UNL d   1     -46.294  29.399  34.890  0.00  0.00    -0.200 OA
ATOM     25  O   UNL d   1     -45.975  30.489  34.674  0.00  0.00    -0.200 OA
BRANCH  23  26
ATOM     26  N   UNL d   1     -46.961  30.888  35.139  0.00  0.00    -0.225 N 
ATOM     27  C   UNL d   1     -46.864  31.273  35.856  0.00  0.00     0.118 A 
ATOM     28  C   UNL d   1     -47.190  32.016  35.971  0.00  0.00     0.142 A 
ATOM     29  O   UNL d   1     -47.611  32.377  35.378  0.00  0.00    -0.300 OA
ATOM     30  C   UNL d   1     -47.716  31.996  34.644  0.00  0.00     0.142 A 
ATOM     31  C   UNL d   1     -47.388  31.255  34.537  0.00  0.00     0.118 A 
ENDBRANCH  23  26
ENDBRANCH   1  23
TORSDOF 6
ENDMDL
MODEL 2
REMARK VINA RESULT:      83.9      3.824      5.673
REMARK  6 active torsions:
REMARK  status: ('A' for Active; 'I' for Inactive)
REMARK    1  A    between atoms: C_3  and  S_1 
REMARK    2  A    between atoms: N_4  and  S_1 
REMARK    3  A    between atoms: S_2  and  C_7 
REMARK    4  A    between atoms: C_8  and  S_2 
REMARK    5  A    between atoms: C_6  and  C_9 
REMARK       I    between atoms: N_10  and  C_6 
REMARK    6  A    between atoms: C_17  and  N_10 
ROOT
ATOM      1  C   UNL d   1     -50.948  26.810  34.375  0.00  0.00     0.115 A 
ATOM      2  C   UNL d   1     -51.119  26.751  35.183  0.00  0.00     0.019 A 
ATOM      3  C   UNL d   1     -50.508  26.855  35.724  0.00  0.00     0.059 A 
ATOM      4  C   UNL d   1     -50.193  26.969  34.123  0.00  0.00     0.070 A 
ATOM      5  C   UNL d   1     -49.753  27.014  35.472  0.00  0.00     0.006 A 
ATOM      6  C   UNL d   1     -49.586  27.072  34.672  0.00  0.00     0.012 A 
ATOM      7 CL   UNL d   1     -50.031  27.027  33.306  0.00  0.00    -0.082 Cl
ENDROOT
BRANCH   3   8
ATOM      8  C   UNL d   1     -50.657  26.800  36.544  0.00  0.00     0.279 C 
ATOM      9  N   UNL d   1     -51.320  26.399  36.820  0.00  0.00    -0.208 NA
ATOM     10  O   UNL d   1     -50.138  27.148  37.082  0.00  0.00    -0.265 OA
BRANCH   9  11
ATOM     11  C   UNL d   1     -51.462  26.348  37.631  0.00  0.00     0.085 A 
ATOM     12  C   UNL d   1     -51.906  25.709  37.938  0.00  0.00     0.031 A 
ATOM     13  C   UNL d   1     -52.052  25.652  38.757  0.00  0.00     0.094 A 
ATOM     14  C   UNL d   1     -51.753  26.239  39.281  0.00  0.00     0.012 A 
ATOM     15  C   UNL d   1     -51.309  26.878  38.974  0.00  0.00     0.002 A 
ATOM     16  C   UNL d   1     -51.162  26.934  38.155  0.00  0.00     0.019 A 
BRANCH  13  17
ATOM     17  S   UNL d   1     -52.492  24.990  38.926  0.00  0.00     0.262 S 
ATOM     18  O   UNL d   1     -52.945  24.328  39.088  0.00  0.00    -0.213 OA
ATOM     19  O   UNL d   1     -51.912  24.701  39.411  0.00  0.00    -0.213 OA
BRANCH  17  20
ATOM     20  C   UNL d   1     -53.089  25.272  38.436  0.00  0.00     0.364 C 
ATOM     21  F   UNL d   1     -53.260  26.064  38.420  0.00  0.00    -0.159 F 
ATOM     22  F   UNL d   1     -53.513  24.757  37.962  0.00  0.00    -0.159 F 
ENDBRANCH  17  20
ENDBRANCH  13  17
ENDBRANCH   9  11
ENDBRANCH   3   8
BRANCH   1  23
ATOM     23  S   UNL d   1     -51.570  26.703  33.837  0.00  0.00     0.272 S 
ATOM     24  O   UNL d   1     -51.763  27.512  33.904  0.00  0.00    -0.200 OA
ATOM     25  O   UNL d   1     -52.192  26.620  33.306  0.00  0.00    -0.200 OA
BRANCH  23  26
ATOM     26  N   UNL d   1     -51.394  25.909  33.760  0.00  0.00    -0.225 N 
ATOM     27  C   UNL d   1     -50.709  25.670  33.380  0.00  0.00     0.118 A 
ATOM     28  C   UNL d   1     -50.537  24.872  33.306  0.00  0.00     0.142 A 
ATOM     29  O   UNL d   1     -51.043  24.313  33.608  0.00  0.00    -0.300 OA
ATOM     30  C   UNL d   1     -51.743  24.544  33.996  0.00  0.00     0.142 A 
ATOM     31  C   UNL d   1     -51.907  25.342  34.066  0.00  0.00     0.118 A 
ENDBRANCH  23  26
ENDBRANCH   1  23
TORSDOF 6
ENDMDL
MODEL 3
REMARK VINA RESULT:      84.0      1.028      1.256
REMARK  6 active torsions:
REMARK  status: ('A' for Active; 'I' for Inactive)
REMARK    1  A    between atoms: C_3  and  S_1 
REMARK    2  A    between atoms: N_4  and  S_1 
REMARK    3  A    between atoms: S_2  and  C_7 
REMARK    4  A    between atoms: C_8  and  S_2 
REMARK    5  A    between atoms: C_6  and  C_9 
REMARK       I    between atoms: N_10  and  C_6 
REMARK    6  A    between atoms: C_17  and  N_10 
ROOT
ATOM      1  C   UNL d   1     -47.350  29.770  35.064  0.00  0.00     0.115 A 
ATOM      2  C   UNL d   1     -47.749  29.232  34.576  0.00  0.00     0.019 A 
ATOM      3  C   UNL d   1     -48.330  28.753  34.908  0.00  0.00     0.059 A 
ATOM      4  C   UNL d   1     -47.531  29.822  35.854  0.00  0.00     0.070 A 
ATOM      5  C   UNL d   1     -48.510  28.806  35.698  0.00  0.00     0.006 A 
ATOM      6  C   UNL d   1     -48.115  29.339  36.179  0.00  0.00     0.012 A 
ATOM      7 CL   UNL d   1     -47.123  30.368  36.337  0.00  0.00    -0.082 Cl
ENDROOT
BRANCH   3   8
ATOM      8  C   UNL d   1     -48.744  28.204  34.435  0.00  0.00     0.279 C 
ATOM      9  N   UNL d   1     -49.000  27.490  34.754  0.00  0.00    -0.208 NA
ATOM     10  O   UNL d   1     -48.900  28.375  33.643  0.00  0.00    -0.265 OA
BRANCH   9  11
ATOM     11  C   UNL d   1     -49.409  26.952  34.283  0.00  0.00     0.085 A 
ATOM     12  C   UNL d   1     -50.211  27.089  34.090  0.00  0.00     0.031 A 
ATOM     13  C   UNL d   1     -50.630  26.546  33.614  0.00  0.00     0.094 A 
ATOM     14  C   UNL d   1     -50.245  25.856  33.323  0.00  0.00     0.012 A 
ATOM     15  C   UNL d   1     -49.443  25.719  33.516  0.00  0.00     0.002 A 
ATOM     16  C   UNL d   1     -49.025  26.261  33.992  0.00  0.00     0.019 A 
BRANCH  13  17
ATOM     17  S   UNL d   1     -51.395  26.793  33.501  0.00  0.00     0.262 S 
ATOM     18  O   UNL d   1     -52.171  27.030  33.388  0.00  0.00    -0.213 OA
ATOM     19  O   UNL d   1     -51.160  27.566  33.443  0.00  0.00    -0.213 OA
BRANCH  17  20
ATOM     20  C   UNL d   1     -51.647  26.012  33.558  0.00  0.00     0.364 C 
ATOM     21  F   UNL d   1     -51.105  25.419  33.654  0.00  0.00    -0.159 F 
ATOM     22  F   UNL d   1     -52.444  25.832  33.517  0.00  0.00    -0.159 F 
ENDBRANCH  17  20
ENDBRANCH  13  17
ENDBRANCH   9  11
ENDBRANCH   3   8
BRANCH   1  23
ATOM     23  S   UNL d   1     -46.767  30.248  34.720  0.00  0.00     0.272 S 
ATOM     24  O   UNL d   1     -46.210  29.634  34.819  0.00  0.00    -0.200 OA
ATOM     25  O   UNL d   1     -46.172  30.705  34.383  0.00  0.00    -0.200 OA
BRANCH  23  26
ATOM     26  N   UNL d   1     -47.299  30.859  34.617  0.00  0.00    -0.225 N 
ATOM     27  C   UNL d   1     -48.091  30.701  34.482  0.00  0.00     0.118 A 
ATOM     28  C   UNL d   1     -48.622  31.317  34.378  0.00  0.00     0.142 A 
ATOM     29  O   UNL d   1     -48.367  32.088  34.408  0.00  0.00    -0.300 OA
ATOM     30  C   UNL d   1     -47.564  32.261  34.544  0.00  0.00     0.142 A 
ATOM     31  C   UNL d   1     -47.041  31.641  34.647  0.00  0.00     0.118 A 
ENDBRANCH  23  26
ENDBRANCH   1  23
TORSDOF 6
ENDMDL
MODEL 4
REMARK VINA RESULT:      85.2      2.620      5.840
REMARK  6 active torsions:
REMARK  status: ('A' for Active; 'I' for Inactive)
REMARK    1  A    between atoms: C_3  and  S_1 
REMARK    2  A    between atoms: N_4  and  S_1 
REMARK    3  A    between atoms: S_2  and  C_7 
REMARK    4  A    between atoms: C_8  and  S_2 
REMARK    5  A    between atoms: C_6  and  C_9 
REMARK       I    between atoms: N_10  and  C_6 
REMARK    6  A    between atoms: C_17  and  N_10 
ROOT
ATOM      1  C   UNL d   1     -50.260  26.575  33.688  0.00  0.00     0.115 A 
ATOM      2  C   UNL d   1     -49.603  27.002  33.955  0.00  0.00     0.019 A 
ATOM      3  C   UNL d   1     -49.690  27.806  34.107  0.00  0.00     0.059 A 
ATOM      4  C   UNL d   1     -50.975  26.943  33.578  0.00  0.00     0.070 A 
ATOM      5  C   UNL d   1     -50.405  28.174  33.998  0.00  0.00     0.006 A 
ATOM      6  C   UNL d   1     -51.054  27.749  33.733  0.00  0.00     0.012 A 
ATOM      7 CL   UNL d   1     -51.631  26.503  33.308  0.00  0.00    -0.082 Cl
ENDROOT
BRANCH   3   8
ATOM      8  C   UNL d   1     -49.042  28.257  34.377  0.00  0.00     0.279 C 
ATOM      9  N   UNL d   1     -49.103  29.074  34.448  0.00  0.00    -0.208 NA
ATOM     10  O   UNL d   1     -48.333  27.884  34.576  0.00  0.00    -0.265 OA
BRANCH   9  11
ATOM     11  C   UNL d   1     -48.460  29.514  34.715  0.00  0.00     0.085 A 
ATOM     12  C   UNL d   1     -48.427  30.337  34.570  0.00  0.00     0.031 A 
ATOM     13  C   UNL d   1     -47.778  30.788  34.839  0.00  0.00     0.094 A 
ATOM     14  C   UNL d   1     -47.150  30.415  35.259  0.00  0.00     0.012 A 
ATOM     15  C   UNL d   1     -47.183  29.592  35.403  0.00  0.00     0.002 A 
ATOM     16  C   UNL d   1     -47.832  29.142  35.135  0.00  0.00     0.019 A 
BRANCH  13  17
ATOM     17  S   UNL d   1     -47.866  31.570  34.636  0.00  0.00     0.262 S 
ATOM     18  O   UNL d   1     -47.946  32.360  34.440  0.00  0.00    -0.213 OA
ATOM     19  O   UNL d   1     -48.431  31.385  34.085  0.00  0.00    -0.213 OA
BRANCH  17  20
ATOM     20  C   UNL d   1     -47.294  31.770  35.191  0.00  0.00     0.364 C 
ATOM     21  F   UNL d   1     -47.469  31.743  35.981  0.00  0.00    -0.159 F 
ATOM     22  F   UNL d   1     -46.546  31.997  34.949  0.00  0.00    -0.159 F 
ENDBRANCH  17  20
ENDBRANCH  13  17
ENDBRANCH   9  11
ENDBRANCH   3   8
BRANCH   1  23
ATOM     23  S   UNL d   1     -50.162  25.765  33.537  0.00  0.00     0.272 S 
ATOM     24  O   UNL d   1     -49.373  25.907  33.307  0.00  0.00    -0.200 OA
ATOM     25  O   UNL d   1     -50.043  24.967  33.381  0.00  0.00    -0.200 OA
BRANCH  23  26
ATOM     26  N   UNL d   1     -50.932  25.610  33.759  0.00  0.00    -0.225 N 
ATOM     27  C   UNL d   1     -51.404  25.117  33.306  0.00  0.00     0.118 A 
ATOM     28  C   UNL d   1     -52.177  24.964  33.533  0.00  0.00     0.142 A 
ATOM     29  O   UNL d   1     -52.481  25.299  34.207  0.00  0.00    -0.300 OA
ATOM     30  C   UNL d   1     -52.011  25.802  34.677  0.00  0.00     0.142 A 
ATOM     31  C   UNL d   1     -51.241  25.950  34.443  0.00  0.00     0.118 A 
ENDBRANCH  23  26
ENDBRANCH   1  23
TORSDOF 6
ENDMDL
