MODEL 1
REMARK VINA RESULT:      -4.5      0.000      0.000
REMARK  3 active torsions:
REMARK  status: ('A' for Active; 'I' for Inactive)
REMARK    1  A    between atoms: C_7  and  N_1 
REMARK    2  A    between atoms: C_5  and  C_2 
REMARK    3  A    between atoms: C_11  and  C_7 
ROOT
ATOM      1  N   UNL d   1     -41.387-122.398 -52.110  0.00  0.00    -0.262 N 
ATOM      2  C   UNL d   1     -41.453-122.116 -52.884  0.00  0.00     0.173 A 
ATOM      3  N   UNL d   1     -41.344-121.301 -52.841  0.00  0.00    -0.128 NA
ATOM      4  C   UNL d   1     -41.242-121.782 -51.607  0.00  0.00     0.227 A 
ATOM      5  N   UNL d   1     -41.214-121.091 -52.056  0.00  0.00    -0.117 NA
ATOM      6  S   UNL d   1     -41.128-121.744 -50.780  0.00  0.00    -0.036 SA
ENDROOT
BRANCH   2   7
ATOM      7  C   UNL d   1     -41.598-122.548 -53.568  0.00  0.00     0.064 A 
ATOM      8  C   UNL d   1     -41.525-123.258 -53.974  0.00  0.00     0.143 A 
ATOM      9  F   UNL d   1     -41.123-123.784 -53.474  0.00  0.00    -0.204 F 
ATOM     10  C   UNL d   1     -41.837-123.323 -54.744  0.00  0.00     0.030 A 
ATOM     11  C   UNL d   1     -42.216-122.682 -55.098  0.00  0.00     0.002 A 
ATOM     12  C   UNL d   1     -42.284-121.979 -54.686  0.00  0.00     0.000 A 
ATOM     13  C   UNL d   1     -41.975-121.906 -53.915  0.00  0.00     0.005 A 
ENDBRANCH   2   7
BRANCH   1  14
ATOM     14  C   UNL d   1     -41.455-123.187 -51.864  0.00  0.00     0.108 C 
BRANCH  14  15
ATOM     15  C   UNL d   1     -41.863-123.358 -51.170  0.00  0.00     0.118 A 
ATOM     16  O   UNL d   1     -42.643-123.151 -50.999  0.00  0.00    -0.304 OA
ATOM     17  C   UNL d   1     -42.833-123.428 -50.247  0.00  0.00     0.123 A 
ATOM     18  C   UNL d   1     -42.159-123.810 -49.953  0.00  0.00     0.029 A 
ATOM     19  C   UNL d   1     -41.561-123.768 -50.519  0.00  0.00     0.028 A 
ENDBRANCH  14  15
ENDBRANCH   1  14
TORSDOF 3
ENDMDL
MODEL 2
REMARK VINA RESULT:      -3.6      2.508      3.326
REMARK  3 active torsions:
REMARK  status: ('A' for Active; 'I' for Inactive)
REMARK    1  A    between atoms: C_7  and  N_1 
REMARK    2  A    between atoms: C_5  and  C_2 
REMARK    3  A    between atoms: C_11  and  C_7 
ROOT
ATOM      1  N   UNL d   1     -42.636-123.191 -49.504  0.00  0.00    -0.262 N 
ATOM      2  C   UNL d   1     -42.730-122.729 -50.184  0.00  0.00     0.173 A 
ATOM      3  N   UNL d   1     -43.541-122.635 -50.285  0.00  0.00    -0.128 NA
ATOM      4  C   UNL d   1     -43.360-123.375 -49.197  0.00  0.00     0.227 A 
ATOM      5  N   UNL d   1     -43.934-123.031 -49.680  0.00  0.00    -0.117 NA
ATOM      6  S   UNL d   1     -43.594-123.817 -48.528  0.00  0.00    -0.036 SA
ENDROOT
BRANCH   2   7
ATOM      7  C   UNL d   1     -42.143-122.421 -50.670  0.00  0.00     0.064 A 
ATOM      8  C   UNL d   1     -41.630-121.803 -50.837  0.00  0.00     0.143 A 
ATOM      9  F   UNL d   1     -41.752-121.221 -50.258  0.00  0.00    -0.204 F 
ATOM     10  C   UNL d   1     -41.123-121.859 -51.496  0.00  0.00     0.030 A 
ATOM     11  C   UNL d   1     -41.134-122.529 -51.978  0.00  0.00     0.002 A 
ATOM     12  C   UNL d   1     -41.649-123.140 -51.802  0.00  0.00     0.000 A 
ATOM     13  C   UNL d   1     -42.159-123.090 -51.145  0.00  0.00     0.005 A 
ENDBRANCH   2   7
BRANCH   1  14
ATOM     14  C   UNL d   1     -41.918-123.438 -49.171  0.00  0.00     0.108 C 
BRANCH  14  15
ATOM     15  C   UNL d   1     -41.767-123.280 -48.377  0.00  0.00     0.118 A 
ATOM     16  O   UNL d   1     -42.072-122.650 -47.940  0.00  0.00    -0.304 OA
ATOM     17  C   UNL d   1     -41.783-122.697 -47.170  0.00  0.00     0.123 A 
ATOM     18  C   UNL d   1     -41.294-123.365 -47.136  0.00  0.00     0.029 A 
ATOM     19  C   UNL d   1     -41.283-123.725 -47.877  0.00  0.00     0.028 A 
ENDBRANCH  14  15
ENDBRANCH   1  14
TORSDOF 3
ENDMDL
MODEL 3
REMARK VINA RESULT:      -2.5      1.227      3.259
REMARK  3 active torsions:
REMARK  status: ('A' for Active; 'I' for Inactive)
REMARK    1  A    between atoms: C_7  and  N_1 
REMARK    2  A    between atoms: C_5  and  C_2 
REMARK    3  A    between atoms: C_11  and  C_7 
ROOT
ATOM      1  N   UNL d   1     -41.527-122.097 -51.821  0.00  0.00    -0.262 N 
ATOM      2  C   UNL d   1     -41.808-122.070 -51.044  0.00  0.00     0.173 A 
ATOM      3  N   UNL d   1     -41.852-121.272 -50.844  0.00  0.00    -0.128 NA
ATOM      4  C   UNL d   1     -41.401-121.346 -52.091  0.00  0.00     0.227 A 
ATOM      5  N   UNL d   1     -41.602-120.822 -51.486  0.00  0.00    -0.117 NA
ATOM      6  S   UNL d   1     -41.124-121.048 -52.821  0.00  0.00    -0.036 SA
ENDROOT
BRANCH   2   7
ATOM      7  C   UNL d   1     -42.009-122.701 -50.557  0.00  0.00     0.064 A 
ATOM      8  C   UNL d   1     -41.828-123.452 -50.279  0.00  0.00     0.143 A 
ATOM      9  F   UNL d   1     -41.126-123.689 -50.654  0.00  0.00    -0.204 F 
ATOM     10  C   UNL d   1     -42.331-123.814 -49.722  0.00  0.00     0.030 A 
ATOM     11  C   UNL d   1     -43.005-123.424 -49.450  0.00  0.00     0.002 A 
ATOM     12  C   UNL d   1     -43.177-122.675 -49.733  0.00  0.00     0.000 A 
ATOM     13  C   UNL d   1     -42.678-122.308 -50.291  0.00  0.00     0.005 A 
ENDBRANCH   2   7
BRANCH   1  14
ATOM     14  C   UNL d   1     -41.387-122.778 -52.272  0.00  0.00     0.108 C 
BRANCH  14  15
ATOM     15  C   UNL d   1     -41.589-122.780 -53.070  0.00  0.00     0.118 A 
ATOM     16  O   UNL d   1     -42.244-122.410 -53.408  0.00  0.00    -0.304 OA
ATOM     17  C   UNL d   1     -42.239-122.549 -54.220  0.00  0.00     0.123 A 
ATOM     18  C   UNL d   1     -41.570-123.010 -54.381  0.00  0.00     0.029 A 
ATOM     19  C   UNL d   1     -41.169-123.154 -53.675  0.00  0.00     0.028 A 
ENDBRANCH  14  15
ENDBRANCH   1  14
TORSDOF 3
ENDMDL
MODEL 4
REMARK VINA RESULT:      -2.3      2.048      4.247
REMARK  3 active torsions:
REMARK  status: ('A' for Active; 'I' for Inactive)
REMARK    1  A    between atoms: C_7  and  N_1 
REMARK    2  A    between atoms: C_5  and  C_2 
REMARK    3  A    between atoms: C_11  and  C_7 
ROOT
ATOM      1  N   UNL d   1     -42.366-122.383 -50.212  0.00  0.00    -0.262 N 
ATOM      2  C   UNL d   1     -42.580-122.763 -49.510  0.00  0.00     0.173 A 
ATOM      3  N   UNL d   1     -43.404-122.775 -49.498  0.00  0.00    -0.128 NA
ATOM      4  C   UNL d   1     -43.030-122.168 -50.619  0.00  0.00     0.227 A 
ATOM      5  N   UNL d   1     -43.685-122.409 -50.179  0.00  0.00    -0.117 NA
ATOM      6  S   UNL d   1     -43.144-121.776 -51.348  0.00  0.00    -0.036 SA
ENDROOT
BRANCH   2   7
ATOM      7  C   UNL d   1     -42.085-123.072 -48.931  0.00  0.00     0.064 A 
ATOM      8  C   UNL d   1     -41.430-123.531 -48.746  0.00  0.00     0.143 A 
ATOM      9  F   UNL d   1     -41.123-123.817 -49.462  0.00  0.00    -0.204 F 
ATOM     10  C   UNL d   1     -41.206-123.622 -47.949  0.00  0.00     0.030 A 
ATOM     11  C   UNL d   1     -41.638-123.256 -47.348  0.00  0.00     0.002 A 
ATOM     12  C   UNL d   1     -42.289-122.800 -47.543  0.00  0.00     0.000 A 
ATOM     13  C   UNL d   1     -42.518-122.705 -48.338  0.00  0.00     0.005 A 
ENDBRANCH   2   7
BRANCH   1  14
ATOM     14  C   UNL d   1     -41.595-122.235 -50.478  0.00  0.00     0.108 C 
BRANCH  14  15
ATOM     15  C   UNL d   1     -41.418-122.341 -51.275  0.00  0.00     0.118 A 
ATOM     16  O   UNL d   1     -41.349-123.063 -51.667  0.00  0.00    -0.304 OA
ATOM     17  C   UNL d   1     -41.166-122.920 -52.458  0.00  0.00     0.123 A 
ATOM     18  C   UNL d   1     -41.122-122.098 -52.550  0.00  0.00     0.029 A 
ATOM     19  C   UNL d   1     -41.277-121.740 -51.824  0.00  0.00     0.028 A 
ENDBRANCH  14  15
ENDBRANCH   1  14
TORSDOF 3
ENDMDL
MODEL 5
REMARK VINA RESULT:      -2.2      1.207      1.629
REMARK  3 active torsions:
REMARK  status: ('A' for Active; 'I' for Inactive)
REMARK    1  A    between atoms: C_7  and  N_1 
REMARK    2  A    between atoms: C_5  and  C_2 
REMARK    3  A    between atoms: C_11  and  C_7 
ROOT
ATOM      1  N   UNL d   1     -41.628-122.621 -52.034  0.00  0.00    -0.262 N 
ATOM      2  C   UNL d   1     -41.568-122.698 -52.855  0.00  0.00     0.173 A 
ATOM      3  N   UNL d   1     -41.253-123.446 -52.992  0.00  0.00    -0.128 NA
ATOM      4  C   UNL d   1     -41.361-123.295 -51.676  0.00  0.00     0.227 A 
ATOM      5  N   UNL d   1     -41.123-123.817 -52.269  0.00  0.00    -0.117 NA
ATOM      6  S   UNL d   1     -41.294-123.521 -50.875  0.00  0.00    -0.036 SA
ENDROOT
BRANCH   2   7
ATOM      7  C   UNL d   1     -41.777-122.148 -53.430  0.00  0.00     0.064 A 
ATOM      8  C   UNL d   1     -41.819-121.362 -53.660  0.00  0.00     0.143 A 
ATOM      9  F   UNL d   1     -41.515-120.908 -53.036  0.00  0.00    -0.204 F 
ATOM     10  C   UNL d   1     -42.130-121.171 -54.410  0.00  0.00     0.030 A 
ATOM     11  C   UNL d   1     -42.394-121.766 -54.917  0.00  0.00     0.002 A 
ATOM     12  C   UNL d   1     -42.348-122.547 -54.678  0.00  0.00     0.000 A 
ATOM     13  C   UNL d   1     -42.038-122.745 -53.930  0.00  0.00     0.005 A 
ENDBRANCH   2   7
BRANCH   1  14
ATOM     14  C   UNL d   1     -41.916-121.963 -51.618  0.00  0.00     0.108 C 
BRANCH  14  15
ATOM     15  C   UNL d   1     -42.362-122.082 -50.937  0.00  0.00     0.118 A 
ATOM     16  O   UNL d   1     -43.136-122.364 -50.904  0.00  0.00    -0.304 OA
ATOM     17  C   UNL d   1     -43.373-122.399 -50.116  0.00  0.00     0.123 A 
ATOM     18  C   UNL d   1     -42.734-122.134 -49.660  0.00  0.00     0.029 A 
ATOM     19  C   UNL d   1     -42.111-121.938 -50.163  0.00  0.00     0.028 A 
ENDBRANCH  14  15
ENDBRANCH   1  14
TORSDOF 3
ENDMDL
