MODEL 1
REMARK VINA RESULT:      -4.6      0.000      0.000
REMARK  2 active torsions:
REMARK  status: ('A' for Active; 'I' for Inactive)
REMARK    1  A    between atoms: C_5  and  C_1 
REMARK    2  A    between atoms: N_7  and  C_3 
REMARK       I    between atoms: C_8  and  N_7 
ROOT
ATOM      1  C   UNL d   1      56.619  -0.436  32.086  0.00  0.00     0.231 A 
ATOM      2  O   UNL d   1      56.042   0.077  32.383  0.00  0.00    -0.252 OA
ATOM      3  C   UNL d   1      55.634  -0.319  32.978  0.00  0.00     0.297 A 
ATOM      4  N   UNL d   1      56.560  -1.141  32.500  0.00  0.00    -0.117 NA
ATOM      5  N   UNL d   1      55.953  -1.068  33.049  0.00  0.00    -0.101 NA
ENDROOT
BRANCH   1   6
ATOM      6  C   UNL d   1      57.154  -0.260  31.480  0.00  0.00     0.168 A 
ATOM      7  O   UNL d   1      57.471   0.494  31.427  0.00  0.00    -0.297 OA
ATOM      8  C   UNL d   1      57.998   0.668  30.830  0.00  0.00     0.149 A 
ATOM      9  C   UNL d   1      58.212   0.095  30.286  0.00  0.00     0.149 A 
ATOM     10  O   UNL d   1      57.901  -0.663  30.330  0.00  0.00    -0.299 OA
ATOM     11  C   UNL d   1      57.371  -0.838  30.929  0.00  0.00     0.151 A 
ENDBRANCH   1   6
BRANCH   3  12
ATOM     12  N   UNL d   1      55.013  -0.005  33.419  0.00  0.00    -0.165 NA
ATOM     13  C   UNL d   1      55.159   0.367  34.128  0.00  0.00     0.282 C 
ATOM     14  O   UNL d   1      55.936   0.436  34.418  0.00  0.00    -0.265 OA
ATOM     15  C   UNL d   1      54.535   0.682  34.570  0.00  0.00     0.068 C 
ENDBRANCH   3  12
TORSDOF 2
ENDMDL
MODEL 2
REMARK VINA RESULT:      -4.6      1.608      3.922
REMARK  2 active torsions:
REMARK  status: ('A' for Active; 'I' for Inactive)
REMARK    1  A    between atoms: C_5  and  C_1 
REMARK    2  A    between atoms: N_7  and  C_3 
REMARK       I    between atoms: C_8  and  N_7 
ROOT
ATOM      1  C   UNL d   1      57.184   0.095  31.552  0.00  0.00     0.231 A 
ATOM      2  O   UNL d   1      57.134   0.012  30.731  0.00  0.00    -0.252 OA
ATOM      3  C   UNL d   1      57.794   0.377  30.400  0.00  0.00     0.297 A 
ATOM      4  N   UNL d   1      57.871   0.508  31.719  0.00  0.00    -0.117 NA
ATOM      5  N   UNL d   1      58.247   0.682  31.009  0.00  0.00    -0.101 NA
ENDROOT
BRANCH   1   6
ATOM      6  C   UNL d   1      56.632  -0.191  32.099  0.00  0.00     0.168 A 
ATOM      7  O   UNL d   1      56.558  -1.001  32.213  0.00  0.00    -0.297 OA
ATOM      8  C   UNL d   1      56.015  -1.283  32.751  0.00  0.00     0.149 A 
ATOM      9  C   UNL d   1      55.546  -0.765  33.177  0.00  0.00     0.149 A 
ATOM     10  O   UNL d   1      55.612   0.046  33.071  0.00  0.00    -0.299 OA
ATOM     11  C   UNL d   1      56.157   0.331  32.531  0.00  0.00     0.151 A 
ENDBRANCH   1   6
BRANCH   3  12
ATOM     12  N   UNL d   1      57.959   0.421  29.595  0.00  0.00    -0.165 NA
ATOM     13  C   UNL d   1      58.525  -0.062  29.264  0.00  0.00     0.282 C 
ATOM     14  O   UNL d   1      58.944  -0.607  29.734  0.00  0.00    -0.265 OA
ATOM     15  C   UNL d   1      58.690  -0.017  28.455  0.00  0.00     0.068 C 
ENDBRANCH   3  12
TORSDOF 2
ENDMDL
MODEL 3
REMARK VINA RESULT:      -4.3      0.933      3.520
REMARK  2 active torsions:
REMARK  status: ('A' for Active; 'I' for Inactive)
REMARK    1  A    between atoms: C_5  and  C_1 
REMARK    2  A    between atoms: N_7  and  C_3 
REMARK       I    between atoms: C_8  and  N_7 
ROOT
ATOM      1  C   UNL d   1      56.394  -0.253  32.512  0.00  0.00     0.231 A 
ATOM      2  O   UNL d   1      56.658   0.209  31.879  0.00  0.00    -0.252 OA
ATOM      3  C   UNL d   1      57.034  -0.290  31.342  0.00  0.00     0.297 A 
ATOM      4  N   UNL d   1      56.607  -1.028  32.359  0.00  0.00    -0.117 NA
ATOM      5  N   UNL d   1      57.002  -1.051  31.638  0.00  0.00    -0.101 NA
ENDROOT
BRANCH   1   6
ATOM      6  C   UNL d   1      55.987   0.028  33.175  0.00  0.00     0.168 A 
ATOM      7  O   UNL d   1      56.401   0.405  33.775  0.00  0.00    -0.297 OA
ATOM      8  C   UNL d   1      56.000   0.682  34.428  0.00  0.00     0.149 A 
ATOM      9  C   UNL d   1      55.190   0.586  34.489  0.00  0.00     0.149 A 
ATOM     10  O   UNL d   1      54.766   0.210  33.895  0.00  0.00    -0.299 OA
ATOM     11  C   UNL d   1      55.167  -0.068  33.239  0.00  0.00     0.151 A 
ENDBRANCH   1   6
BRANCH   3  12
ATOM     12  N   UNL d   1      57.378  -0.052  30.633  0.00  0.00    -0.165 NA
ATOM     13  C   UNL d   1      58.130   0.259  30.624  0.00  0.00     0.282 C 
ATOM     14  O   UNL d   1      58.562   0.342  31.331  0.00  0.00    -0.265 OA
ATOM     15  C   UNL d   1      58.475   0.497  29.911  0.00  0.00     0.068 C 
ENDBRANCH   3  12
TORSDOF 2
ENDMDL
MODEL 4
REMARK VINA RESULT:      -4.2      1.320      2.047
REMARK  2 active torsions:
REMARK  status: ('A' for Active; 'I' for Inactive)
REMARK    1  A    between atoms: C_5  and  C_1 
REMARK    2  A    between atoms: N_7  and  C_3 
REMARK       I    between atoms: C_8  and  N_7 
ROOT
ATOM      1  C   UNL d   1      57.735  -0.281  30.609  0.00  0.00     0.231 A 
ATOM      2  O   UNL d   1      57.310   0.146  31.176  0.00  0.00    -0.252 OA
ATOM      3  C   UNL d   1      56.865  -0.390  31.615  0.00  0.00     0.297 A 
ATOM      4  N   UNL d   1      57.549  -1.072  30.705  0.00  0.00    -0.117 NA
ATOM      5  N   UNL d   1      57.013  -1.139  31.324  0.00  0.00    -0.101 NA
ENDROOT
BRANCH   1   6
ATOM      6  C   UNL d   1      58.253   0.043  30.051  0.00  0.00     0.168 A 
ATOM      7  O   UNL d   1      58.021   0.095  29.266  0.00  0.00    -0.297 OA
ATOM      8  C   UNL d   1      58.531   0.414  28.716  0.00  0.00     0.149 A 
ATOM      9  C   UNL d   1      59.271   0.682  28.943  0.00  0.00     0.149 A 
ATOM     10  O   UNL d   1      59.513   0.635  29.725  0.00  0.00    -0.299 OA
ATOM     11  C   UNL d   1      59.001   0.315  30.278  0.00  0.00     0.151 A 
ENDBRANCH   1   6
BRANCH   3  12
ATOM     12  N   UNL d   1      56.362  -0.194  32.236  0.00  0.00    -0.165 NA
ATOM     13  C   UNL d   1      56.053  -0.775  32.715  0.00  0.00     0.282 C 
ATOM     14  O   UNL d   1      56.241  -1.576  32.584  0.00  0.00    -0.265 OA
ATOM     15  C   UNL d   1      55.548  -0.577  33.339  0.00  0.00     0.068 C 
ENDBRANCH   3  12
TORSDOF 2
ENDMDL
MODEL 5
REMARK VINA RESULT:      -3.4      8.932      9.685
REMARK  2 active torsions:
REMARK  status: ('A' for Active; 'I' for Inactive)
REMARK    1  A    between atoms: C_5  and  C_1 
REMARK    2  A    between atoms: N_7  and  C_3 
REMARK       I    between atoms: C_8  and  N_7 
ROOT
ATOM      1  C   UNL d   1      59.646  -8.608  34.926  0.00  0.00     0.231 A 
ATOM      2  O   UNL d   1      59.675  -8.634  34.100  0.00  0.00    -0.252 OA
ATOM      3  C   UNL d   1      59.395  -9.371  33.862  0.00  0.00     0.297 A 
ATOM      4  N   UNL d   1      59.351  -9.325  35.187  0.00  0.00    -0.117 NA
ATOM      5  N   UNL d   1      59.196  -9.796  34.532  0.00  0.00    -0.101 NA
ENDROOT
BRANCH   1   6
ATOM      6  C   UNL d   1      59.877  -7.966  35.395  0.00  0.00     0.168 A 
ATOM      7  O   UNL d   1      59.342  -7.363  35.548  0.00  0.00    -0.297 OA
ATOM      8  C   UNL d   1      59.570  -6.731  36.010  0.00  0.00     0.149 A 
ATOM      9  C   UNL d   1      60.326  -6.695  36.320  0.00  0.00     0.149 A 
ATOM     10  O   UNL d   1      60.869  -7.293  36.174  0.00  0.00    -0.299 OA
ATOM     11  C   UNL d   1      60.642  -7.928  35.710  0.00  0.00     0.151 A 
ENDBRANCH   1   6
BRANCH   3  12
ATOM     12  N   UNL d   1      59.331  -9.626  33.082  0.00  0.00    -0.165 NA
ATOM     13  C   UNL d   1      58.624  -9.562  32.684  0.00  0.00     0.282 C 
ATOM     14  O   UNL d   1      57.955  -9.238  33.060  0.00  0.00    -0.265 OA
ATOM     15  C   UNL d   1      58.561  -9.818  31.901  0.00  0.00     0.068 C 
ENDBRANCH   3  12
TORSDOF 2
ENDMDL
MODEL 6
REMARK VINA RESULT:      -1.7      9.910     10.418
REMARK  2 active torsions:
REMARK  status: ('A' for Active; 'I' for Inactive)
REMARK    1  A    between atoms: C_5  and  C_1 
REMARK    2  A    between atoms: N_7  and  C_3 
REMARK       I    between atoms: C_8  and  N_7 
ROOT
ATOM      1  C   UNL d   1      59.333  -9.746  33.382  0.00  0.00     0.231 A 
ATOM      2  O   UNL d   1      58.509  -9.749  33.304  0.00  0.00    -0.252 OA
ATOM      3  C   UNL d   1      58.332  -9.790  32.500  0.00  0.00     0.297 A 
ATOM      4  N   UNL d   1      59.653  -9.785  32.630  0.00  0.00    -0.117 NA
ATOM      5  N   UNL d   1      59.037  -9.812  32.086  0.00  0.00    -0.101 NA
ENDROOT
BRANCH   1   6
ATOM      6  C   UNL d   1      59.748  -9.709  34.097  0.00  0.00     0.168 A 
ATOM      7  O   UNL d   1      60.567  -9.756  34.092  0.00  0.00    -0.297 OA
ATOM      8  C   UNL d   1      60.976  -9.720  34.796  0.00  0.00     0.149 A 
ATOM      9  C   UNL d   1      60.574  -9.638  35.505  0.00  0.00     0.149 A 
ATOM     10  O   UNL d   1      59.756  -9.591  35.521  0.00  0.00    -0.299 OA
ATOM     11  C   UNL d   1      59.344  -9.626  34.814  0.00  0.00     0.151 A 
ENDBRANCH   1   6
BRANCH   3  12
ATOM     12  N   UNL d   1      57.574  -9.806  32.181  0.00  0.00    -0.165 NA
ATOM     13  C   UNL d   1      57.467  -9.801  31.374  0.00  0.00     0.282 C 
ATOM     14  O   UNL d   1      58.122  -9.780  30.860  0.00  0.00    -0.265 OA
ATOM     15  C   UNL d   1      56.705  -9.817  31.054  0.00  0.00     0.068 C 
ENDBRANCH   3  12
TORSDOF 2
ENDMDL
