MODEL 1
REMARK VINA RESULT:      -7.2      0.000      0.000
REMARK  5 active torsions:
REMARK  status: ('A' for Active; 'I' for Inactive)
REMARK    1  A    between atoms: C_5  and  C_1 
REMARK    2  A    between atoms: C_4  and  C_9 
REMARK    3  A    between atoms: N_7  and  C_5 
REMARK    4  A    between atoms: C_10  and  C_5 
REMARK    5  A    between atoms: C_12  and  N_7 
ROOT
ATOM      1  C   UNL d   1     -47.914  12.903  22.922  0.00  0.00     0.086 C 
ENDROOT
BRANCH   1   2
ATOM      2  C   UNL d   1     -47.128  12.818  22.685  0.00  0.00     0.058 A 
ATOM      3  C   UNL d   1     -46.636  12.284  23.079  0.00  0.00     0.214 A 
ATOM      4  C   UNL d   1     -45.847  12.204  22.836  0.00  0.00     0.120 A 
ATOM      5  O   UNL d   1     -46.910  11.836  23.698  0.00  0.00    -0.285 OA
ATOM      6  N   UNL d   1     -45.344  11.671  23.224  0.00  0.00    -0.242 NA
ATOM      7  C   UNL d   1     -45.558  12.654  22.209  0.00  0.00     0.021 A 
ATOM      8  C   UNL d   1     -44.561  11.588  22.988  0.00  0.00     0.082 A 
ATOM      9  C   UNL d   1     -44.063  11.056  23.375  0.00  0.00     0.021 C 
ATOM     10  C   UNL d   1     -44.269  12.041  22.354  0.00  0.00     0.019 A 
ATOM     11  C   UNL d   1     -44.775  12.577  21.965  0.00  0.00     0.003 A 
ATOM     12  C   UNL d   1     -46.053  13.190  21.814  0.00  0.00     0.002 A 
ATOM     13  C   UNL d   1     -46.836  13.272  22.052  0.00  0.00     0.005 A 
ENDBRANCH   1   2
BRANCH   1  14
ATOM     14  N   UNL d   1     -48.035  13.545  23.425  0.00  0.00    -0.245 NA
BRANCH  14  15
ATOM     15  C   UNL d   1     -48.303  14.253  23.137  0.00  0.00     0.081 A 
ATOM     16  C   UNL d   1     -49.078  14.477  23.254  0.00  0.00     0.023 A 
ATOM     17  C   UNL d   1     -49.356  15.202  22.960  0.00  0.00     0.073 A 
ATOM     18  C   UNL d   1     -48.837  15.700  22.543  0.00  0.00     0.004 A 
ATOM     19  C   UNL d   1     -48.056  15.469  22.428  0.00  0.00     0.002 A 
ATOM     20  C   UNL d   1     -47.795  14.747  22.726  0.00  0.00     0.019 A 
BRANCH  17  21
ATOM     21  C   UNL d   1     -50.139  15.420  23.083  0.00  0.00     0.419 C 
ATOM     22  F   UNL d   1     -50.852  15.625  23.205  0.00  0.00    -0.166 F 
ATOM     23  F   UNL d   1     -50.462  15.921  23.698  0.00  0.00    -0.166 F 
ATOM     24  F   UNL d   1     -50.839  15.211  22.640  0.00  0.00    -0.166 F 
ENDBRANCH  17  21
ENDBRANCH  14  15
ENDBRANCH   1  14
BRANCH   1  25
ATOM     25  C   UNL d   1     -48.611  12.491  22.771  0.00  0.00     0.037 A 
ATOM     26  C   UNL d   1     -48.853  12.365  21.985  0.00  0.00     0.100 A 
ATOM     27  N   UNL d   1     -49.555  11.950  21.846  0.00  0.00    -0.242 NA
ATOM     28  C   UNL d   1     -50.001  11.671  22.462  0.00  0.00     0.099 A 
ATOM     29  C   UNL d   1     -49.762  11.796  23.237  0.00  0.00     0.021 A 
ATOM     30  C   UNL d   1     -49.069  12.205  23.395  0.00  0.00     0.005 A 
ENDBRANCH   1  25
TORSDOF 5
ENDMDL
MODEL 2
REMARK VINA RESULT:      -6.2      7.010      9.196
REMARK  5 active torsions:
REMARK  status: ('A' for Active; 'I' for Inactive)
REMARK    1  A    between atoms: C_5  and  C_1 
REMARK    2  A    between atoms: C_4  and  C_9 
REMARK    3  A    between atoms: N_7  and  C_5 
REMARK    4  A    between atoms: C_10  and  C_5 
REMARK    5  A    between atoms: C_12  and  N_7 
ROOT
ATOM      1  C   UNL d   1     -39.235  14.687  20.089  0.00  0.00     0.086 C 
ENDROOT
BRANCH   1   2
ATOM      2  C   UNL d   1     -39.244  14.923  19.298  0.00  0.00     0.058 A 
ATOM      3  C   UNL d   1     -38.939  14.422  18.716  0.00  0.00     0.214 A 
ATOM      4  C   UNL d   1     -38.952  14.666  17.924  0.00  0.00     0.120 A 
ATOM      5  O   UNL d   1     -38.628  13.697  18.906  0.00  0.00    -0.285 OA
ATOM      6  N   UNL d   1     -38.648  14.171  17.331  0.00  0.00    -0.242 NA
ATOM      7  C   UNL d   1     -39.265  15.400  17.719  0.00  0.00     0.021 A 
ATOM      8  C   UNL d   1     -38.658  14.407  16.544  0.00  0.00     0.082 A 
ATOM      9  C   UNL d   1     -38.356  13.913  15.957  0.00  0.00     0.021 C 
ATOM     10  C   UNL d   1     -38.975  15.149  16.338  0.00  0.00     0.019 A 
ATOM     11  C   UNL d   1     -39.279  15.646  16.933  0.00  0.00     0.003 A 
ATOM     12  C   UNL d   1     -39.571  15.902  18.304  0.00  0.00     0.002 A 
ATOM     13  C   UNL d   1     -39.561  15.665  19.092  0.00  0.00     0.005 A 
ENDBRANCH   1   2
BRANCH   1  14
ATOM     14  N   UNL d   1     -39.783  14.093  20.257  0.00  0.00    -0.245 NA
BRANCH  14  15
ATOM     15  C   UNL d   1     -40.525  14.278  20.526  0.00  0.00     0.081 A 
ATOM     16  C   UNL d   1     -41.062  13.687  20.687  0.00  0.00     0.023 A 
ATOM     17  C   UNL d   1     -41.823  13.873  20.963  0.00  0.00     0.073 A 
ATOM     18  C   UNL d   1     -42.034  14.669  21.073  0.00  0.00     0.004 A 
ATOM     19  C   UNL d   1     -41.488  15.262  20.909  0.00  0.00     0.002 A 
ATOM     20  C   UNL d   1     -40.737  15.062  20.636  0.00  0.00     0.019 A 
BRANCH  17  21
ATOM     21  C   UNL d   1     -42.358  13.270  21.123  0.00  0.00     0.419 C 
ATOM     22  F   UNL d   1     -42.842  12.717  21.280  0.00  0.00    -0.166 F 
ATOM     23  F   UNL d   1     -42.419  12.787  21.827  0.00  0.00    -0.166 F 
ATOM     24  F   UNL d   1     -42.992  12.962  20.641  0.00  0.00    -0.166 F 
ENDBRANCH  17  21
ENDBRANCH  14  15
ENDBRANCH   1  14
BRANCH   1  25
ATOM     25  C   UNL d   1     -38.803  14.907  20.753  0.00  0.00     0.037 A 
ATOM     26  C   UNL d   1     -38.728  15.712  20.948  0.00  0.00     0.100 A 
ATOM     27  N   UNL d   1     -38.291  15.922  21.619  0.00  0.00    -0.242 NA
ATOM     28  C   UNL d   1     -37.940  15.355  22.079  0.00  0.00     0.099 A 
ATOM     29  C   UNL d   1     -38.014  14.561  21.887  0.00  0.00     0.021 A 
ATOM     30  C   UNL d   1     -38.443  14.333  21.226  0.00  0.00     0.005 A 
ENDBRANCH   1  25
TORSDOF 5
ENDMDL
MODEL 3
REMARK VINA RESULT:      -5.3      1.315      2.532
REMARK  5 active torsions:
REMARK  status: ('A' for Active; 'I' for Inactive)
REMARK    1  A    between atoms: C_5  and  C_1 
REMARK    2  A    between atoms: C_4  and  C_9 
REMARK    3  A    between atoms: N_7  and  C_5 
REMARK    4  A    between atoms: C_10  and  C_5 
REMARK    5  A    between atoms: C_12  and  N_7 
ROOT
ATOM      1  C   UNL d   1     -47.326  13.086  22.388  0.00  0.00     0.086 C 
ENDROOT
BRANCH   1   2
ATOM      2  C   UNL d   1     -46.815  12.526  22.712  0.00  0.00     0.058 A 
ATOM      3  C   UNL d   1     -46.030  12.490  22.457  0.00  0.00     0.214 A 
ATOM      4  C   UNL d   1     -45.521  11.924  22.786  0.00  0.00     0.120 A 
ATOM      5  O   UNL d   1     -45.747  12.998  21.890  0.00  0.00    -0.285 OA
ATOM      6  N   UNL d   1     -44.731  11.880  22.537  0.00  0.00    -0.242 NA
ATOM      7  C   UNL d   1     -45.796  11.403  23.362  0.00  0.00     0.021 A 
ATOM      8  C   UNL d   1     -44.222  11.320  22.860  0.00  0.00     0.082 A 
ATOM      9  C   UNL d   1     -43.437  11.278  22.611  0.00  0.00     0.021 C 
ATOM     10  C   UNL d   1     -44.500  10.794  23.442  0.00  0.00     0.019 A 
ATOM     11  C   UNL d   1     -45.294  10.839  23.692  0.00  0.00     0.003 A 
ATOM     12  C   UNL d   1     -46.584  11.439  23.618  0.00  0.00     0.002 A 
ATOM     13  C   UNL d   1     -47.093  11.999  23.293  0.00  0.00     0.005 A 
ENDBRANCH   1   2
BRANCH   1  14
ATOM     14  N   UNL d   1     -47.747  12.804  21.736  0.00  0.00    -0.245 NA
BRANCH  14  15
ATOM     15  C   UNL d   1     -48.516  12.562  21.813  0.00  0.00     0.081 A 
ATOM     16  C   UNL d   1     -49.118  12.992  21.470  0.00  0.00     0.023 A 
ATOM     17  C   UNL d   1     -49.907  12.746  21.547  0.00  0.00     0.073 A 
ATOM     18  C   UNL d   1     -50.080  12.056  21.976  0.00  0.00     0.004 A 
ATOM     19  C   UNL d   1     -49.470  11.625  22.319  0.00  0.00     0.002 A 
ATOM     20  C   UNL d   1     -48.691  11.882  22.235  0.00  0.00     0.019 A 
BRANCH  17  21
ATOM     21  C   UNL d   1     -50.508  13.187  21.199  0.00  0.00     0.419 C 
ATOM     22  F   UNL d   1     -51.056  13.597  20.889  0.00  0.00    -0.166 F 
ATOM     23  F   UNL d   1     -50.860  13.917  21.474  0.00  0.00    -0.166 F 
ATOM     24  F   UNL d   1     -50.941  13.042  20.477  0.00  0.00    -0.166 F 
ENDBRANCH  17  21
ENDBRANCH  14  15
ENDBRANCH   1  14
BRANCH   1  25
ATOM     25  C   UNL d   1     -47.516  13.867  22.566  0.00  0.00     0.037 A 
ATOM     26  C   UNL d   1     -47.328  14.470  22.025  0.00  0.00     0.100 A 
ATOM     27  N   UNL d   1     -47.523  15.251  22.214  0.00  0.00    -0.242 NA
ATOM     28  C   UNL d   1     -47.891  15.429  22.914  0.00  0.00     0.099 A 
ATOM     29  C   UNL d   1     -48.077  14.834  23.447  0.00  0.00     0.021 A 
ATOM     30  C   UNL d   1     -47.891  14.053  23.277  0.00  0.00     0.005 A 
ENDBRANCH   1  25
TORSDOF 5
ENDMDL
MODEL 4
REMARK VINA RESULT:      -5.1      1.909      4.331
REMARK  5 active torsions:
REMARK  status: ('A' for Active; 'I' for Inactive)
REMARK    1  A    between atoms: C_5  and  C_1 
REMARK    2  A    between atoms: C_4  and  C_9 
REMARK    3  A    between atoms: N_7  and  C_5 
REMARK    4  A    between atoms: C_10  and  C_5 
REMARK    5  A    between atoms: C_12  and  N_7 
ROOT
ATOM      1  C   UNL d   1     -47.033  13.398  22.690  0.00  0.00     0.086 C 
ENDROOT
BRANCH   1   2
ATOM      2  C   UNL d   1     -47.762  13.680  22.425  0.00  0.00     0.058 A 
ATOM      3  C   UNL d   1     -48.175  14.238  22.874  0.00  0.00     0.214 A 
ATOM      4  C   UNL d   1     -48.906  14.517  22.602  0.00  0.00     0.120 A 
ATOM      5  O   UNL d   1     -47.877  14.517  23.576  0.00  0.00    -0.285 OA
ATOM      6  N   UNL d   1     -49.328  15.077  23.046  0.00  0.00    -0.242 NA
ATOM      7  C   UNL d   1     -49.218  14.242  21.891  0.00  0.00     0.021 A 
ATOM      8  C   UNL d   1     -50.055  15.357  22.780  0.00  0.00     0.082 A 
ATOM      9  C   UNL d   1     -50.473  15.914  23.223  0.00  0.00     0.021 C 
ATOM     10  C   UNL d   1     -50.370  15.079  22.062  0.00  0.00     0.019 A 
ATOM     11  C   UNL d   1     -49.945  14.517  21.618  0.00  0.00     0.003 A 
ATOM     12  C   UNL d   1     -48.803  13.682  21.441  0.00  0.00     0.002 A 
ATOM     13  C   UNL d   1     -48.077  13.402  21.707  0.00  0.00     0.005 A 
ENDBRANCH   1   2
BRANCH   1  14
ATOM     14  N   UNL d   1     -47.073  13.044  23.434  0.00  0.00    -0.245 NA
BRANCH  14  15
ATOM     15  C   UNL d   1     -47.282  12.266  23.513  0.00  0.00     0.081 A 
ATOM     16  C   UNL d   1     -48.069  12.052  23.527  0.00  0.00     0.023 A 
ATOM     17  C   UNL d   1     -48.286  11.255  23.607  0.00  0.00     0.073 A 
ATOM     18  C   UNL d   1     -47.695  10.674  23.673  0.00  0.00     0.004 A 
ATOM     19  C   UNL d   1     -46.903  10.895  23.659  0.00  0.00     0.002 A 
ATOM     20  C   UNL d   1     -46.703  11.690  23.578  0.00  0.00     0.019 A 
BRANCH  17  21
ATOM     21  C   UNL d   1     -49.082  11.048  23.620  0.00  0.00     0.419 C 
ATOM     22  F   UNL d   1     -49.812  10.870  23.631  0.00  0.00    -0.166 F 
ATOM     23  F   UNL d   1     -49.766  11.561  23.573  0.00  0.00    -0.166 F 
ATOM     24  F   UNL d   1     -49.444  10.277  23.683  0.00  0.00    -0.166 F 
ENDBRANCH  17  21
ENDBRANCH  14  15
ENDBRANCH   1  14
BRANCH   1  25
ATOM     25  C   UNL d   1     -46.271  13.388  22.382  0.00  0.00     0.037 A 
ATOM     26  C   UNL d   1     -46.096  12.904  21.728  0.00  0.00     0.100 A 
ATOM     27  N   UNL d   1     -45.326  12.901  21.427  0.00  0.00    -0.242 NA
ATOM     28  C   UNL d   1     -44.748  13.362  21.761  0.00  0.00     0.099 A 
ATOM     29  C   UNL d   1     -44.920  13.839  22.405  0.00  0.00     0.021 A 
ATOM     30  C   UNL d   1     -45.679  13.855  22.718  0.00  0.00     0.005 A 
ENDBRANCH   1  25
TORSDOF 5
ENDMDL
