MODEL 1
REMARK VINA RESULT:      -6.2      0.000      0.000
REMARK  5 active torsions:
REMARK  status: ('A' for Active; 'I' for Inactive)
REMARK    1  A    between atoms: N_2  and  S_1 
REMARK    2  A    between atoms: C_4  and  S_1 
REMARK    3  A    between atoms: C_3  and  N_2 
REMARK    4  A    between atoms: N_7  and  C_3 
REMARK    5  A    between atoms: C_15  and  N_7 
ROOT
ATOM      1  S   UNL d   1     -47.142  13.466  22.857  0.00  0.00     0.287 S 
ATOM      2  O   UNL d   1     -47.328  13.410  22.047  0.00  0.00    -0.198 OA
ATOM      3  O   UNL d   1     -46.940  13.515  23.655  0.00  0.00    -0.198 OA
ENDROOT
BRANCH   1   4
ATOM      4  N   UNL d   1     -47.891  13.777  23.017  0.00  0.00    -0.128 NA
BRANCH   4   5
ATOM      5  C   UNL d   1     -48.717  13.771  22.887  0.00  0.00     0.232 C 
ATOM      6  S   UNL d   1     -49.163  13.124  23.121  0.00  0.00    -0.036 SA
BRANCH   5   7
ATOM      7  N   UNL d   1     -49.073  14.420  22.522  0.00  0.00    -0.217 NA
BRANCH   7   8
ATOM      8  C   UNL d   1     -49.683  14.821  22.908  0.00  0.00     0.084 A 
ATOM      9  C   UNL d   1     -49.524  15.517  23.311  0.00  0.00     0.019 A 
ATOM     10  C   UNL d   1     -50.127  15.916  23.695  0.00  0.00     0.002 A 
ATOM     11  C   UNL d   1     -50.893  15.624  23.680  0.00  0.00     0.000 A 
ATOM     12  C   UNL d   1     -51.056  14.923  23.275  0.00  0.00     0.002 A 
ATOM     13  C   UNL d   1     -50.452  14.521  22.889  0.00  0.00     0.019 A 
ENDBRANCH   7   8
ENDBRANCH   5   7
ENDBRANCH   4   5
ENDBRANCH   1   4
BRANCH   1  14
ATOM     14  C   UNL d   1     -46.388  13.154  22.695  0.00  0.00     0.105 A 
ATOM     15  C   UNL d   1     -45.826  13.613  22.286  0.00  0.00     0.014 A 
ATOM     16  C   UNL d   1     -45.083  13.305  22.127  0.00  0.00     0.012 A 
ATOM     17  C   UNL d   1     -44.890  12.540  22.371  0.00  0.00     0.058 A 
ATOM     18  C   UNL d   1     -45.445  12.080  22.777  0.00  0.00     0.012 A 
ATOM     19 CL   UNL d   1     -44.147  12.232  22.212  0.00  0.00    -0.082 Cl
ATOM     20  C   UNL d   1     -46.193  12.391  22.938  0.00  0.00     0.014 A 
ENDBRANCH   1  14
TORSDOF 5
ENDMDL
MODEL 2
REMARK VINA RESULT:      -5.8      0.940      1.301
REMARK  5 active torsions:
REMARK  status: ('A' for Active; 'I' for Inactive)
REMARK    1  A    between atoms: N_2  and  S_1 
REMARK    2  A    between atoms: C_4  and  S_1 
REMARK    3  A    between atoms: C_3  and  N_2 
REMARK    4  A    between atoms: N_7  and  C_3 
REMARK    5  A    between atoms: C_15  and  N_7 
ROOT
ATOM      1  S   UNL d   1     -47.501  12.767  23.337  0.00  0.00     0.287 S 
ATOM      2  O   UNL d   1     -48.000  12.101  23.381  0.00  0.00    -0.198 OA
ATOM      3  O   UNL d   1     -46.992  13.415  23.294  0.00  0.00    -0.198 OA
ENDROOT
BRANCH   1   4
ATOM      4  N   UNL d   1     -48.157  13.269  23.318  0.00  0.00    -0.128 NA
BRANCH   4   5
ATOM      5  C   UNL d   1     -48.879  13.499  22.962  0.00  0.00     0.232 C 
ATOM      6  S   UNL d   1     -49.494  12.960  22.900  0.00  0.00    -0.036 SA
BRANCH   5   7
ATOM      7  N   UNL d   1     -48.961  14.269  22.677  0.00  0.00    -0.217 NA
BRANCH   7   8
ATOM      8  C   UNL d   1     -49.665  14.680  22.810  0.00  0.00     0.084 A 
ATOM      9  C   UNL d   1     -49.786  15.061  23.526  0.00  0.00     0.019 A 
ATOM     10  C   UNL d   1     -50.483  15.469  23.662  0.00  0.00     0.002 A 
ATOM     11  C   UNL d   1     -51.064  15.499  23.084  0.00  0.00     0.000 A 
ATOM     12  C   UNL d   1     -50.945  15.116  22.362  0.00  0.00     0.002 A 
ATOM     13  C   UNL d   1     -50.246  14.706  22.225  0.00  0.00     0.019 A 
ENDBRANCH   7   8
ENDBRANCH   5   7
ENDBRANCH   4   5
ENDBRANCH   1   4
BRANCH   1  14
ATOM     14  C   UNL d   1     -46.841  12.262  23.357  0.00  0.00     0.105 A 
ATOM     15  C   UNL d   1     -46.912  11.494  23.675  0.00  0.00     0.014 A 
ATOM     16  C   UNL d   1     -46.261  10.996  23.695  0.00  0.00     0.012 A 
ATOM     17  C   UNL d   1     -45.534  11.254  23.400  0.00  0.00     0.058 A 
ATOM     18  C   UNL d   1     -45.458  12.014  23.084  0.00  0.00     0.012 A 
ATOM     19 CL   UNL d   1     -44.883  10.756  23.420  0.00  0.00    -0.082 Cl
ATOM     20  C   UNL d   1     -46.113  12.515  23.065  0.00  0.00     0.014 A 
ENDBRANCH   1  14
TORSDOF 5
ENDMDL
MODEL 3
REMARK VINA RESULT:      -5.3      1.960      4.646
REMARK  5 active torsions:
REMARK  status: ('A' for Active; 'I' for Inactive)
REMARK    1  A    between atoms: N_2  and  S_1 
REMARK    2  A    between atoms: C_4  and  S_1 
REMARK    3  A    between atoms: C_3  and  N_2 
REMARK    4  A    between atoms: N_7  and  C_3 
REMARK    5  A    between atoms: C_15  and  N_7 
ROOT
ATOM      1  S   UNL d   1     -48.524  13.770  22.886  0.00  0.00     0.287 S 
ATOM      2  O   UNL d   1     -48.682  13.824  22.070  0.00  0.00    -0.198 OA
ATOM      3  O   UNL d   1     -48.384  13.728  23.698  0.00  0.00    -0.198 OA
ENDROOT
BRANCH   1   4
ATOM      4  N   UNL d   1     -47.888  13.264  22.740  0.00  0.00    -0.128 NA
BRANCH   4   5
ATOM      5  C   UNL d   1     -47.227  12.836  23.023  0.00  0.00     0.232 C 
ATOM      6  S   UNL d   1     -47.286  12.027  23.147  0.00  0.00    -0.036 SA
BRANCH   5   7
ATOM      7  N   UNL d   1     -46.522  13.237  23.175  0.00  0.00    -0.217 NA
BRANCH   7   8
ATOM      8  C   UNL d   1     -45.832  13.009  22.782  0.00  0.00     0.084 A 
ATOM      9  C   UNL d   1     -45.507  13.499  22.210  0.00  0.00     0.019 A 
ATOM     10  C   UNL d   1     -44.823  13.276  21.818  0.00  0.00     0.002 A 
ATOM     11  C   UNL d   1     -44.459  12.563  21.995  0.00  0.00     0.000 A 
ATOM     12  C   UNL d   1     -44.784  12.068  22.570  0.00  0.00     0.002 A 
ATOM     13  C   UNL d   1     -45.470  12.290  22.964  0.00  0.00     0.019 A 
ENDBRANCH   7   8
ENDBRANCH   5   7
ENDBRANCH   4   5
ENDBRANCH   1   4
BRANCH   1  14
ATOM     14  C   UNL d   1     -49.165  14.280  23.033  0.00  0.00     0.105 A 
ATOM     15  C   UNL d   1     -49.107  15.088  22.839  0.00  0.00     0.014 A 
ATOM     16  C   UNL d   1     -49.739  15.591  22.984  0.00  0.00     0.012 A 
ATOM     17  C   UNL d   1     -50.433  15.297  23.321  0.00  0.00     0.058 A 
ATOM     18  C   UNL d   1     -50.495  14.496  23.515  0.00  0.00     0.012 A 
ATOM     19 CL   UNL d   1     -51.064  15.800  23.466  0.00  0.00    -0.082 Cl
ATOM     20  C   UNL d   1     -49.860  13.990  23.370  0.00  0.00     0.014 A 
ENDBRANCH   1  14
TORSDOF 5
ENDMDL
MODEL 4
REMARK VINA RESULT:      -5.2      8.553      9.476
REMARK  5 active torsions:
REMARK  status: ('A' for Active; 'I' for Inactive)
REMARK    1  A    between atoms: N_2  and  S_1 
REMARK    2  A    between atoms: C_4  and  S_1 
REMARK    3  A    between atoms: C_3  and  N_2 
REMARK    4  A    between atoms: N_7  and  C_3 
REMARK    5  A    between atoms: C_15  and  N_7 
ROOT
ATOM      1  S   UNL d   1     -40.185  14.689  19.074  0.00  0.00     0.287 S 
ATOM      2  O   UNL d   1     -39.693  15.358  19.145  0.00  0.00    -0.198 OA
ATOM      3  O   UNL d   1     -40.679  14.034  18.986  0.00  0.00    -0.198 OA
ENDROOT
BRANCH   1   4
ATOM      4  N   UNL d   1     -39.887  14.382  19.781  0.00  0.00    -0.128 NA
BRANCH   4   5
ATOM      5  C   UNL d   1     -39.778  14.450  20.607  0.00  0.00     0.232 C 
ATOM      6  S   UNL d   1     -40.424  14.406  21.110  0.00  0.00    -0.036 SA
BRANCH   5   7
ATOM      7  N   UNL d   1     -39.017  14.562  20.906  0.00  0.00    -0.217 NA
BRANCH   7   8
ATOM      8  C   UNL d   1     -38.755  14.097  21.537  0.00  0.00     0.084 A 
ATOM      9  C   UNL d   1     -38.323  13.415  21.390  0.00  0.00     0.019 A 
ATOM     10  C   UNL d   1     -38.062  12.952  22.012  0.00  0.00     0.002 A 
ATOM     11  C   UNL d   1     -38.230  13.166  22.786  0.00  0.00     0.000 A 
ATOM     12  C   UNL d   1     -38.664  13.851  22.937  0.00  0.00     0.002 A 
ATOM     13  C   UNL d   1     -38.927  14.317  22.313  0.00  0.00     0.019 A 
ENDBRANCH   7   8
ENDBRANCH   5   7
ENDBRANCH   4   5
ENDBRANCH   1   4
BRANCH   1  14
ATOM     14  C   UNL d   1     -40.484  14.998  18.362  0.00  0.00     0.105 A 
ATOM     15  C   UNL d   1     -41.043  15.617  18.379  0.00  0.00     0.014 A 
ATOM     16  C   UNL d   1     -41.339  15.922  17.677  0.00  0.00     0.012 A 
ATOM     17  C   UNL d   1     -41.084  15.617  16.954  0.00  0.00     0.058 A 
ATOM     18  C   UNL d   1     -40.530  15.003  16.932  0.00  0.00     0.012 A 
ATOM     19 CL   UNL d   1     -41.380  15.921  16.252  0.00  0.00    -0.082 Cl
ATOM     20  C   UNL d   1     -40.233  14.696  17.638  0.00  0.00     0.014 A 
ENDBRANCH   1  14
TORSDOF 5
ENDMDL
MODEL 5
REMARK VINA RESULT:      -5.0      8.450      9.793
REMARK  5 active torsions:
REMARK  status: ('A' for Active; 'I' for Inactive)
REMARK    1  A    between atoms: N_2  and  S_1 
REMARK    2  A    between atoms: C_4  and  S_1 
REMARK    3  A    between atoms: C_3  and  N_2 
REMARK    4  A    between atoms: N_7  and  C_3 
REMARK    5  A    between atoms: C_15  and  N_7 
ROOT
ATOM      1  S   UNL d   1     -39.178  14.444  17.940  0.00  0.00     0.287 S 
ATOM      2  O   UNL d   1     -38.621  15.058  18.020  0.00  0.00    -0.198 OA
ATOM      3  O   UNL d   1     -39.723  13.832  17.842  0.00  0.00    -0.198 OA
ENDROOT
BRANCH   1   4
ATOM      4  N   UNL d   1     -39.487  14.613  18.687  0.00  0.00    -0.128 NA
BRANCH   4   5
ATOM      5  C   UNL d   1     -40.137  14.832  19.166  0.00  0.00     0.232 C 
ATOM      6  S   UNL d   1     -40.663  15.404  18.905  0.00  0.00    -0.036 SA
BRANCH   5   7
ATOM      7  N   UNL d   1     -40.240  14.466  19.899  0.00  0.00    -0.217 NA
BRANCH   7   8
ATOM      8  C   UNL d   1     -40.168  14.912  20.591  0.00  0.00     0.084 A 
ATOM      9  C   UNL d   1     -40.733  15.478  20.772  0.00  0.00     0.019 A 
ATOM     10  C   UNL d   1     -40.664  15.922  21.457  0.00  0.00     0.002 A 
ATOM     11  C   UNL d   1     -40.032  15.805  21.965  0.00  0.00     0.000 A 
ATOM     12  C   UNL d   1     -39.462  15.236  21.785  0.00  0.00     0.002 A 
ATOM     13  C   UNL d   1     -39.529  14.789  21.098  0.00  0.00     0.019 A 
ENDBRANCH   7   8
ENDBRANCH   5   7
ENDBRANCH   4   5
ENDBRANCH   1   4
BRANCH   1  14
ATOM     14  C   UNL d   1     -38.868  14.274  17.187  0.00  0.00     0.105 A 
ATOM     15  C   UNL d   1     -38.468  13.554  17.054  0.00  0.00     0.014 A 
ATOM     16  C   UNL d   1     -38.162  13.386  16.312  0.00  0.00     0.012 A 
ATOM     17  C   UNL d   1     -38.248  13.929  15.696  0.00  0.00     0.058 A 
ATOM     18  C   UNL d   1     -38.643  14.644  15.823  0.00  0.00     0.012 A 
ATOM     19 CL   UNL d   1     -37.941  13.761  14.955  0.00  0.00    -0.082 Cl
ATOM     20  C   UNL d   1     -38.952  14.813  16.570  0.00  0.00     0.014 A 
ENDBRANCH   1  14
TORSDOF 5
ENDMDL
MODEL 6
REMARK VINA RESULT:      -4.9      8.648      9.166
REMARK  5 active torsions:
REMARK  status: ('A' for Active; 'I' for Inactive)
REMARK    1  A    between atoms: N_2  and  S_1 
REMARK    2  A    between atoms: C_4  and  S_1 
REMARK    3  A    between atoms: C_3  and  N_2 
REMARK    4  A    between atoms: N_7  and  C_3 
REMARK    5  A    between atoms: C_15  and  N_7 
ROOT
ATOM      1  S   UNL d   1     -39.371  14.540  20.756  0.00  0.00     0.287 S 
ATOM      2  O   UNL d   1     -38.604  14.804  20.568  0.00  0.00    -0.198 OA
ATOM      3  O   UNL d   1     -40.125  14.272  20.959  0.00  0.00    -0.198 OA
ENDROOT
BRANCH   1   4
ATOM      4  N   UNL d   1     -39.649  14.791  20.019  0.00  0.00    -0.128 NA
BRANCH   4   5
ATOM      5  C   UNL d   1     -40.253  15.137  19.556  0.00  0.00     0.232 C 
ATOM      6  S   UNL d   1     -40.488  15.909  19.702  0.00  0.00    -0.036 SA
BRANCH   5   7
ATOM      7  N   UNL d   1     -40.607  14.694  18.956  0.00  0.00    -0.217 NA
BRANCH   7   8
ATOM      8  C   UNL d   1     -40.517  14.929  18.169  0.00  0.00     0.084 A 
ATOM      9  C   UNL d   1     -40.922  15.585  17.890  0.00  0.00     0.019 A 
ATOM     10  C   UNL d   1     -40.835  15.821  17.111  0.00  0.00     0.002 A 
ATOM     11  C   UNL d   1     -40.344  15.403  16.605  0.00  0.00     0.000 A 
ATOM     12  C   UNL d   1     -39.935  14.742  16.883  0.00  0.00     0.002 A 
ATOM     13  C   UNL d   1     -40.021  14.504  17.665  0.00  0.00     0.019 A 
ENDBRANCH   7   8
ENDBRANCH   5   7
ENDBRANCH   4   5
ENDBRANCH   1   4
BRANCH   1  14
ATOM     14  C   UNL d   1     -39.092  14.287  21.497  0.00  0.00     0.105 A 
ATOM     15  C   UNL d   1     -38.802  13.511  21.592  0.00  0.00     0.014 A 
ATOM     16  C   UNL d   1     -38.526  13.262  22.323  0.00  0.00     0.012 A 
ATOM     17  C   UNL d   1     -38.535  13.779  22.966  0.00  0.00     0.058 A 
ATOM     18  C   UNL d   1     -38.822  14.550  22.878  0.00  0.00     0.012 A 
ATOM     19 CL   UNL d   1     -38.260  13.530  23.697  0.00  0.00    -0.082 Cl
ATOM     20  C   UNL d   1     -39.099  14.800  22.142  0.00  0.00     0.014 A 
ENDBRANCH   1  14
TORSDOF 5
ENDMDL
