MODEL 1
REMARK VINA RESULT:      15.9      0.000      0.000
REMARK  3 active torsions:
REMARK  status: ('A' for Active; 'I' for Inactive)
REMARK    1  A    between atoms: C_7  and  N_1 
REMARK    2  A    between atoms: C_6  and  C_2 
REMARK    3  A    between atoms: O_19  and  C_9 
ROOT
ATOM      1  N   UNL d   1     -41.594-122.414 -52.646  0.00  0.00    -0.259 N 
ATOM      2  C   UNL d   1     -41.570-121.983 -51.937  0.00  0.00     0.137 A 
ATOM      3  C   UNL d   1     -41.444-123.195 -52.490  0.00  0.00     0.282 A 
ATOM      4  N   UNL d   1     -41.399-122.528 -51.328  0.00  0.00    -0.287 N 
ATOM      5  C   UNL d   1     -41.320-123.285 -51.674  0.00  0.00     0.122 A 
ATOM      6  O   UNL d   1     -41.414-123.817 -53.039  0.00  0.00    -0.265 OA
ATOM      7  C   UNL d   1     -41.277-122.610 -50.515  0.00  0.00     0.082 A 
ATOM      8  C   UNL d   1     -41.151-123.816 -51.064  0.00  0.00     0.024 A 
ATOM      9  C   UNL d   1     -41.124-123.408 -50.352  0.00  0.00     0.021 A 
ENDROOT
BRANCH   2  10
ATOM     10  C   UNL d   1     -41.691-121.173 -51.837  0.00  0.00     0.056 A 
ATOM     11  C   UNL d   1     -42.364-120.898 -51.472  0.00  0.00     0.097 A 
ATOM     12  C   UNL d   1     -42.490-120.092 -51.369  0.00  0.00     0.024 A 
ATOM     13  C   UNL d   1     -41.921-119.559 -51.643  0.00  0.00     0.002 A 
ATOM     14  C   UNL d   1     -41.247-119.834 -52.008  0.00  0.00     0.000 A 
ATOM     15  C   UNL d   1     -41.123-120.650 -52.111  0.00  0.00     0.005 A 
BRANCH  11  16
ATOM     16  O   UNL d   1     -42.932-121.440 -51.199  0.00  0.00    -0.328 OA
ATOM     17  C   UNL d   1     -43.586-121.171 -50.742  0.00  0.00     0.181 C 
ENDBRANCH  11  16
ENDBRANCH   2  10
BRANCH   1  18
ATOM     18  C   UNL d   1     -41.746-122.089 -53.387  0.00  0.00     0.068 A 
ATOM     19  C   UNL d   1     -41.152-121.688 -53.784  0.00  0.00     0.018 A 
ATOM     20  C   UNL d   1     -41.297-121.360 -54.527  0.00  0.00     0.013 A 
ATOM     21  C   UNL d   1     -42.048-121.438 -54.869  0.00  0.00     0.058 A 
ATOM     22  C   UNL d   1     -42.647-121.841 -54.471  0.00  0.00     0.013 A 
ATOM     23 CL   UNL d   1     -42.193-121.109 -55.613  0.00  0.00    -0.082 Cl
ATOM     24  C   UNL d   1     -42.497-122.167 -53.729  0.00  0.00     0.018 A 
ENDBRANCH   1  18
TORSDOF 3
ENDMDL
