MODEL 1
REMARK VINA RESULT:      -7.8      0.000      0.000
REMARK  3 active torsions:
REMARK  status: ('A' for Active; 'I' for Inactive)
REMARK    1  A    between atoms: S_4  and  C_1 
REMARK    2  A    between atoms: N_2  and  C_5 
REMARK    3  A    between atoms: C_9  and  S_4 
ROOT
ATOM      1  C   UNL d   1     -49.209  13.447  22.594  0.00  0.00     0.133 A 
ATOM      2  C   UNL d   1     -48.419  13.135  22.618  0.00  0.00     0.051 A 
ATOM      3  C   UNL d   1     -49.573  13.469  21.833  0.00  0.00     0.024 A 
ATOM      4  C   UNL d   1     -48.054  12.877  21.938  0.00  0.00     0.008 A 
ATOM      5  C   UNL d   1     -49.183  13.206  21.176  0.00  0.00     0.002 A 
ATOM      6  C   UNL d   1     -48.435  12.910  21.204  0.00  0.00     0.001 A 
ENDROOT
BRANCH   2   7
ATOM      7  S   UNL d   1     -47.996  13.082  23.335  0.00  0.00    -0.082 SA
BRANCH   7   8
ATOM      8  C   UNL d   1     -47.197  12.921  23.321  0.00  0.00     0.068 A 
ATOM      9  C   UNL d   1     -46.534  13.380  23.156  0.00  0.00     0.110 A 
ATOM     10  N   UNL d   1     -45.890  12.921  23.230  0.00  0.00    -0.147 NA
ATOM     11  C   UNL d   1     -46.565  14.195  22.948  0.00  0.00     0.023 C 
ATOM     12  N   UNL d   1     -46.092  12.186  23.434  0.00  0.00    -0.147 NA
ATOM     13  C   UNL d   1     -46.930  12.165  23.497  0.00  0.00     0.110 A 
ATOM     14  C   UNL d   1     -47.403  11.516  23.698  0.00  0.00     0.023 C 
ENDBRANCH   7   8
ENDBRANCH   2   7
BRANCH   1  15
ATOM     15  N   UNL d   1     -49.630  13.724  23.256  0.00  0.00    -0.113 N 
ATOM     16  O   UNL d   1     -50.042  13.218  23.698  0.00  0.00    -0.532 OA
ATOM     17  O   UNL d   1     -49.609  14.541  23.439  0.00  0.00    -0.532 OA
ENDBRANCH   1  15
TORSDOF 3
ENDMDL
MODEL 2
REMARK VINA RESULT:      -7.5      1.568      3.191
REMARK  3 active torsions:
REMARK  status: ('A' for Active; 'I' for Inactive)
REMARK    1  A    between atoms: S_4  and  C_1 
REMARK    2  A    between atoms: N_2  and  C_5 
REMARK    3  A    between atoms: C_9  and  S_4 
ROOT
ATOM      1  C   UNL d   1     -46.897  12.905  23.085  0.00  0.00     0.133 A 
ATOM      2  C   UNL d   1     -47.714  13.043  22.900  0.00  0.00     0.051 A 
ATOM      3  C   UNL d   1     -46.730  12.187  23.498  0.00  0.00     0.024 A 
ATOM      4  C   UNL d   1     -48.286  12.507  23.115  0.00  0.00     0.008 A 
ATOM      5  C   UNL d   1     -47.321  11.674  23.697  0.00  0.00     0.002 A 
ATOM      6  C   UNL d   1     -48.094  11.811  23.519  0.00  0.00     0.001 A 
ENDROOT
BRANCH   2   7
ATOM      7  S   UNL d   1     -47.954  13.731  22.493  0.00  0.00    -0.082 SA
BRANCH   7   8
ATOM      8  C   UNL d   1     -48.708  13.776  22.186  0.00  0.00     0.068 A 
ATOM      9  C   UNL d   1     -49.073  13.428  21.536  0.00  0.00     0.110 A 
ATOM     10  N   UNL d   1     -49.825  13.678  21.509  0.00  0.00    -0.147 NA
ATOM     11  C   UNL d   1     -48.685  12.900  21.006  0.00  0.00     0.023 C 
ATOM     12  N   UNL d   1     -49.977  14.171  22.106  0.00  0.00    -0.147 NA
ATOM     13  C   UNL d   1     -49.270  14.248  22.555  0.00  0.00     0.110 A 
ATOM     14  C   UNL d   1     -49.153  14.706  23.235  0.00  0.00     0.023 C 
ENDBRANCH   7   8
ENDBRANCH   2   7
BRANCH   1  15
ATOM     15  N   UNL d   1     -46.271  13.417  22.890  0.00  0.00    -0.113 N 
ATOM     16  O   UNL d   1     -46.103  14.027  23.360  0.00  0.00    -0.532 OA
ATOM     17  O   UNL d   1     -45.829  13.273  22.193  0.00  0.00    -0.532 OA
ENDBRANCH   1  15
TORSDOF 3
ENDMDL
MODEL 3
REMARK VINA RESULT:      -7.2      1.803      2.928
REMARK  3 active torsions:
REMARK  status: ('A' for Active; 'I' for Inactive)
REMARK    1  A    between atoms: S_4  and  C_1 
REMARK    2  A    between atoms: N_2  and  C_5 
REMARK    3  A    between atoms: C_9  and  S_4 
ROOT
ATOM      1  C   UNL d   1     -46.852  13.603  22.860  0.00  0.00     0.133 A 
ATOM      2  C   UNL d   1     -47.659  13.395  22.695  0.00  0.00     0.051 A 
ATOM      3  C   UNL d   1     -46.684  14.431  22.884  0.00  0.00     0.024 A 
ATOM      4  C   UNL d   1     -48.219  13.971  22.570  0.00  0.00     0.008 A 
ATOM      5  C   UNL d   1     -47.263  14.978  22.756  0.00  0.00     0.002 A 
ATOM      6  C   UNL d   1     -48.026  14.775  22.600  0.00  0.00     0.001 A 
ENDROOT
BRANCH   2   7
ATOM      7  S   UNL d   1     -47.900  12.597  22.655  0.00  0.00    -0.082 SA
BRANCH   7   8
ATOM      8  C   UNL d   1     -48.638  12.413  22.362  0.00  0.00     0.068 A 
ATOM      9  C   UNL d   1     -48.958  12.408  21.604  0.00  0.00     0.110 A 
ATOM     10  N   UNL d   1     -49.715  12.178  21.655  0.00  0.00    -0.147 NA
ATOM     11  C   UNL d   1     -48.527  12.616  20.911  0.00  0.00     0.023 C 
ATOM     12  N   UNL d   1     -49.913  12.031  22.404  0.00  0.00    -0.147 NA
ATOM     13  C   UNL d   1     -49.233  12.177  22.877  0.00  0.00     0.110 A 
ATOM     14  C   UNL d   1     -49.165  12.101  23.698  0.00  0.00     0.023 C 
ENDBRANCH   7   8
ENDBRANCH   2   7
BRANCH   1  15
ATOM     15  N   UNL d   1     -46.238  13.058  22.994  0.00  0.00    -0.113 N 
ATOM     16  O   UNL d   1     -46.183  12.695  23.692  0.00  0.00    -0.532 OA
ATOM     17  O   UNL d   1     -45.687  12.906  22.381  0.00  0.00    -0.532 OA
ENDBRANCH   1  15
TORSDOF 3
ENDMDL
MODEL 4
REMARK VINA RESULT:      -7.1      1.485      2.003
REMARK  3 active torsions:
REMARK  status: ('A' for Active; 'I' for Inactive)
REMARK    1  A    between atoms: S_4  and  C_1 
REMARK    2  A    between atoms: N_2  and  C_5 
REMARK    3  A    between atoms: C_9  and  S_4 
ROOT
ATOM      1  C   UNL d   1     -49.126  12.490  22.114  0.00  0.00     0.133 A 
ATOM      2  C   UNL d   1     -48.453  12.523  22.630  0.00  0.00     0.051 A 
ATOM      3  C   UNL d   1     -49.830  12.166  22.448  0.00  0.00     0.024 A 
ATOM      4  C   UNL d   1     -48.502  12.254  23.396  0.00  0.00     0.008 A 
ATOM      5  C   UNL d   1     -49.848  11.907  23.213  0.00  0.00     0.002 A 
ATOM      6  C   UNL d   1     -49.206  11.941  23.698  0.00  0.00     0.001 A 
ENDROOT
BRANCH   2   7
ATOM      7  S   UNL d   1     -47.722  12.831  22.369  0.00  0.00    -0.082 SA
BRANCH   7   8
ATOM      8  C   UNL d   1     -47.094  12.874  22.887  0.00  0.00     0.068 A 
ATOM      9  C   UNL d   1     -46.610  12.307  23.234  0.00  0.00     0.110 A 
ATOM     10  N   UNL d   1     -46.084  12.678  23.698  0.00  0.00    -0.147 NA
ATOM     11  C   UNL d   1     -46.686  11.479  23.100  0.00  0.00     0.023 C 
ATOM     12  N   UNL d   1     -46.195  13.459  23.676  0.00  0.00    -0.147 NA
ATOM     13  C   UNL d   1     -46.841  13.607  23.159  0.00  0.00     0.110 A 
ATOM     14  C   UNL d   1     -47.166  14.341  22.957  0.00  0.00     0.023 C 
ENDBRANCH   7   8
ENDBRANCH   2   7
BRANCH   1  15
ATOM     15  N   UNL d   1     -49.133  12.750  21.323  0.00  0.00    -0.113 N 
ATOM     16  O   UNL d   1     -49.400  13.471  21.150  0.00  0.00    -0.532 OA
ATOM     17  O   UNL d   1     -48.854  12.236  20.723  0.00  0.00    -0.532 OA
ENDBRANCH   1  15
TORSDOF 3
ENDMDL
MODEL 5
REMARK VINA RESULT:      -6.8      2.039      3.488
REMARK  3 active torsions:
REMARK  status: ('A' for Active; 'I' for Inactive)
REMARK    1  A    between atoms: S_4  and  C_1 
REMARK    2  A    between atoms: N_2  and  C_5 
REMARK    3  A    between atoms: C_9  and  S_4 
ROOT
ATOM      1  C   UNL d   1     -48.761  12.631  22.408  0.00  0.00     0.133 A 
ATOM      2  C   UNL d   1     -49.333  13.228  22.599  0.00  0.00     0.051 A 
ATOM      3  C   UNL d   1     -48.839  11.900  22.825  0.00  0.00     0.024 A 
ATOM      4  C   UNL d   1     -49.912  13.087  23.152  0.00  0.00     0.008 A 
ATOM      5  C   UNL d   1     -49.426  11.791  23.369  0.00  0.00     0.002 A 
ATOM      6  C   UNL d   1     -49.965  12.361  23.546  0.00  0.00     0.001 A 
ENDROOT
BRANCH   2   7
ATOM      7  S   UNL d   1     -49.319  13.975  22.227  0.00  0.00    -0.082 SA
BRANCH   7   8
ATOM      8  C   UNL d   1     -49.941  14.492  22.336  0.00  0.00     0.068 A 
ATOM      9  C   UNL d   1     -50.699  14.533  22.020  0.00  0.00     0.110 A 
ATOM     10  N   UNL d   1     -51.064  15.164  22.333  0.00  0.00    -0.147 NA
ATOM     11  C   UNL d   1     -51.007  13.983  21.461  0.00  0.00     0.023 C 
ATOM     12  N   UNL d   1     -50.589  15.541  22.837  0.00  0.00    -0.147 NA
ATOM     13  C   UNL d   1     -49.859  15.124  22.854  0.00  0.00     0.110 A 
ATOM     14  C   UNL d   1     -49.186  15.305  23.300  0.00  0.00     0.023 C 
ENDBRANCH   7   8
ENDBRANCH   2   7
BRANCH   1  15
ATOM     15  N   UNL d   1     -48.148  12.719  21.852  0.00  0.00    -0.113 N 
ATOM     16  O   UNL d   1     -48.283  12.559  21.092  0.00  0.00    -0.532 OA
ATOM     17  O   UNL d   1     -47.396  12.977  22.114  0.00  0.00    -0.532 OA
ENDBRANCH   1  15
TORSDOF 3
ENDMDL
MODEL 6
REMARK VINA RESULT:      -6.7      1.246      1.841
REMARK  3 active torsions:
REMARK  status: ('A' for Active; 'I' for Inactive)
REMARK    1  A    between atoms: S_4  and  C_1 
REMARK    2  A    between atoms: N_2  and  C_5 
REMARK    3  A    between atoms: C_9  and  S_4 
ROOT
ATOM      1  C   UNL d   1     -49.741  14.024  22.558  0.00  0.00     0.133 A 
ATOM      2  C   UNL d   1     -49.335  13.280  22.603  0.00  0.00     0.051 A 
ATOM      3  C   UNL d   1     -50.169  14.167  21.843  0.00  0.00     0.024 A 
ATOM      4  C   UNL d   1     -49.368  12.750  21.987  0.00  0.00     0.008 A 
ATOM      5  C   UNL d   1     -50.182  13.620  21.249  0.00  0.00     0.002 A 
ATOM      6  C   UNL d   1     -49.795  12.916  21.298  0.00  0.00     0.001 A 
ENDROOT
BRANCH   2   7
ATOM      7  S   UNL d   1     -48.892  13.070  23.278  0.00  0.00    -0.082 SA
BRANCH   7   8
ATOM      8  C   UNL d   1     -48.616  12.306  23.358  0.00  0.00     0.068 A 
ATOM      9  C   UNL d   1     -48.981  11.592  23.541  0.00  0.00     0.110 A 
ATOM     10  N   UNL d   1     -48.428  11.023  23.540  0.00  0.00    -0.147 NA
ATOM     11  C   UNL d   1     -49.804  11.511  23.698  0.00  0.00     0.023 C 
ATOM     12  N   UNL d   1     -47.718  11.323  23.366  0.00  0.00    -0.147 NA
ATOM     13  C   UNL d   1     -47.818  12.149  23.246  0.00  0.00     0.110 A 
ATOM     14  C   UNL d   1     -47.234  12.702  23.051  0.00  0.00     0.023 C 
ENDBRANCH   7   8
ENDBRANCH   2   7
BRANCH   1  15
ATOM     15  N   UNL d   1     -49.743  14.603  23.156  0.00  0.00    -0.113 N 
ATOM     16  O   UNL d   1     -50.315  14.604  23.698  0.00  0.00    -0.532 OA
ATOM     17  O   UNL d   1     -49.132  15.176  23.169  0.00  0.00    -0.532 OA
ENDBRANCH   1  15
TORSDOF 3
ENDMDL
