MODEL 1
REMARK VINA RESULT:      -5.3      0.000      0.000
REMARK  3 active torsions:
REMARK  status: ('A' for Active; 'I' for Inactive)
REMARK       I    between atoms: C_6  and  N_1 
REMARK    1  A    between atoms: C_11  and  C_5 
REMARK    2  A    between atoms: C_12  and  C_6 
REMARK    3  A    between atoms: C_27  and  N_10 
ROOT
ATOM      1  N   UNL d   1     -39.215  14.602  19.150  0.00  0.00    -0.264 N 
ATOM      2  C   UNL d   1     -38.671  14.365  19.733  0.00  0.00     0.198 A 
ATOM      3  C   UNL d   1     -39.207  14.025  18.555  0.00  0.00     0.138 A 
ATOM      4  N   UNL d   1     -38.340  13.654  19.492  0.00  0.00    -0.243 NA
ATOM      5  C   UNL d   1     -38.667  13.440  18.767  0.00  0.00     0.105 A 
ATOM      6  C   UNL d   1     -39.670  15.276  19.162  0.00  0.00     0.263 C 
ATOM      7  C   UNL d   1     -38.118  14.069  20.269  0.00  0.00     0.041 A 
ATOM      8  C   UNL d   1     -39.054  15.069  19.887  0.00  0.00     0.041 A 
ATOM      9  S   UNL d   1     -39.667  14.036  17.862  0.00  0.00    -0.058 SA
ATOM     10  N   UNL d   1     -38.344  15.202  21.114  0.00  0.00    -0.303 N 
ATOM     11  O   UNL d   1     -39.615  15.804  19.800  0.00  0.00    -0.267 OA
ATOM     12  C   UNL d   1     -38.890  15.488  20.577  0.00  0.00     0.080 A 
ATOM     13  C   UNL d   1     -37.960  14.498  20.960  0.00  0.00     0.080 A 
ENDROOT
BRANCH   6  14
ATOM     14  C   UNL d   1     -40.185  15.437  18.543  0.00  0.00     0.056 A 
ATOM     15  C   UNL d   1     -40.987  15.307  18.639  0.00  0.00     0.005 A 
ATOM     16  C   UNL d   1     -41.507  15.468  18.019  0.00  0.00     0.000 A 
ATOM     17  C   UNL d   1     -41.220  15.760  17.302  0.00  0.00     0.000 A 
ATOM     18  C   UNL d   1     -40.407  15.892  17.207  0.00  0.00     0.000 A 
ATOM     19  C   UNL d   1     -41.744  15.920  16.682  0.00  0.00     0.000 C 
ATOM     20  C   UNL d   1     -39.892  15.730  17.826  0.00  0.00     0.005 A 
ENDBRANCH   6  14
BRANCH   5  21
ATOM     21  C   UNL d   1     -38.487  12.765  18.334  0.00  0.00     0.020 A 
ATOM     22  C   UNL d   1     -38.318  12.053  18.730  0.00  0.00     0.004 A 
ATOM     23  C   UNL d   1     -38.134  11.365  18.287  0.00  0.00     0.030 A 
ATOM     24  C   UNL d   1     -38.122  11.404  17.458  0.00  0.00     0.140 A 
ATOM     25  C   UNL d   1     -38.288  12.105  17.075  0.00  0.00     0.030 A 
ATOM     26  F   UNL d   1     -37.940  10.725  17.026  0.00  0.00    -0.204 F 
ATOM     27  C   UNL d   1     -38.471  12.791  17.494  0.00  0.00     0.004 A 
ENDBRANCH   5  21
BRANCH  10  28
ATOM     28  C   UNL d   1     -38.178  15.624  21.811  0.00  0.00     0.080 C 
ATOM     29  C   UNL d   1     -37.982  15.214  22.502  0.00  0.00     0.021 C 
ENDBRANCH  10  28
TORSDOF 3
ENDMDL
MODEL 2
REMARK VINA RESULT:      -5.2      2.474      3.291
REMARK  3 active torsions:
REMARK  status: ('A' for Active; 'I' for Inactive)
REMARK       I    between atoms: C_6  and  N_1 
REMARK    1  A    between atoms: C_11  and  C_5 
REMARK    2  A    between atoms: C_12  and  C_6 
REMARK    3  A    between atoms: C_27  and  N_10 
ROOT
ATOM      1  N   UNL d   1     -40.161  14.882  20.318  0.00  0.00    -0.264 N 
ATOM      2  C   UNL d   1     -39.991  14.864  21.132  0.00  0.00     0.198 A 
ATOM      3  C   UNL d   1     -40.877  14.481  20.206  0.00  0.00     0.138 A 
ATOM      4  N   UNL d   1     -40.597  14.457  21.506  0.00  0.00    -0.243 NA
ATOM      5  C   UNL d   1     -41.146  14.218  20.939  0.00  0.00     0.105 A 
ATOM      6  C   UNL d   1     -39.708  15.231  19.739  0.00  0.00     0.263 C 
ATOM      7  C   UNL d   1     -39.886  14.808  21.949  0.00  0.00     0.041 A 
ATOM      8  C   UNL d   1     -39.439  15.253  20.675  0.00  0.00     0.041 A 
ATOM      9  S   UNL d   1     -41.259  14.364  19.476  0.00  0.00    -0.058 SA
ATOM     10  N   UNL d   1     -38.662  15.539  21.833  0.00  0.00    -0.303 N 
ATOM     11  O   UNL d   1     -39.000  15.614  19.940  0.00  0.00    -0.267 OA
ATOM     12  C   UNL d   1     -38.774  15.590  21.025  0.00  0.00     0.080 A 
ATOM     13  C   UNL d   1     -39.215  15.150  22.291  0.00  0.00     0.080 A 
ENDROOT
BRANCH   6  14
ATOM     14  C   UNL d   1     -39.948  15.203  18.954  0.00  0.00     0.056 A 
ATOM     15  C   UNL d   1     -40.398  15.814  18.648  0.00  0.00     0.005 A 
ATOM     16  C   UNL d   1     -40.641  15.790  17.860  0.00  0.00     0.000 A 
ATOM     17  C   UNL d   1     -40.432  15.151  17.380  0.00  0.00     0.000 A 
ATOM     18  C   UNL d   1     -39.976  14.533  17.694  0.00  0.00     0.000 A 
ATOM     19  C   UNL d   1     -40.678  15.129  16.590  0.00  0.00     0.000 C 
ATOM     20  C   UNL d   1     -39.736  14.560  18.479  0.00  0.00     0.005 A 
ENDBRANCH   6  14
BRANCH   5  21
ATOM     21  C   UNL d   1     -41.836  13.795  21.081  0.00  0.00     0.020 A 
ATOM     22  C   UNL d   1     -42.570  14.187  21.076  0.00  0.00     0.004 A 
ATOM     23  C   UNL d   1     -43.273  13.753  21.222  0.00  0.00     0.030 A 
ATOM     24  C   UNL d   1     -43.228  12.938  21.368  0.00  0.00     0.140 A 
ATOM     25  C   UNL d   1     -42.505  12.559  21.371  0.00  0.00     0.030 A 
ATOM     26  F   UNL d   1     -43.922  12.515  21.511  0.00  0.00    -0.204 F 
ATOM     27  C   UNL d   1     -41.804  12.968  21.230  0.00  0.00     0.004 A 
ENDBRANCH   5  21
BRANCH  10  28
ATOM     28  C   UNL d   1     -37.991  15.879  22.189  0.00  0.00     0.080 C 
ATOM     29  C   UNL d   1     -37.940  15.921  23.013  0.00  0.00     0.021 C 
ENDBRANCH  10  28
TORSDOF 3
ENDMDL
MODEL 3
REMARK VINA RESULT:      -4.7      2.149      3.109
REMARK  3 active torsions:
REMARK  status: ('A' for Active; 'I' for Inactive)
REMARK       I    between atoms: C_6  and  N_1 
REMARK    1  A    between atoms: C_11  and  C_5 
REMARK    2  A    between atoms: C_12  and  C_6 
REMARK    3  A    between atoms: C_27  and  N_10 
ROOT
ATOM      1  N   UNL d   1     -40.201  14.841  20.503  0.00  0.00    -0.264 N 
ATOM      2  C   UNL d   1     -39.482  15.254  20.436  0.00  0.00     0.198 A 
ATOM      3  C   UNL d   1     -40.497  14.733  19.736  0.00  0.00     0.138 A 
ATOM      4  N   UNL d   1     -39.346  15.393  19.639  0.00  0.00    -0.243 NA
ATOM      5  C   UNL d   1     -39.969  15.073  19.203  0.00  0.00     0.105 A 
ATOM      6  C   UNL d   1     -40.550  14.591  21.194  0.00  0.00     0.263 C 
ATOM      7  C   UNL d   1     -38.779  15.663  20.295  0.00  0.00     0.041 A 
ATOM      8  C   UNL d   1     -39.703  15.070  21.200  0.00  0.00     0.041 A 
ATOM      9  S   UNL d   1     -41.206  14.346  19.540  0.00  0.00    -0.058 SA
ATOM     10  N   UNL d   1     -38.528  15.697  21.703  0.00  0.00    -0.303 N 
ATOM     11  O   UNL d   1     -40.184  14.742  21.923  0.00  0.00    -0.267 OA
ATOM     12  C   UNL d   1     -39.225  15.292  21.834  0.00  0.00     0.080 A 
ATOM     13  C   UNL d   1     -38.307  15.881  20.940  0.00  0.00     0.080 A 
ENDROOT
BRANCH   6  14
ATOM     14  C   UNL d   1     -41.265  14.187  21.172  0.00  0.00     0.056 A 
ATOM     15  C   UNL d   1     -41.268  13.369  21.164  0.00  0.00     0.005 A 
ATOM     16  C   UNL d   1     -41.984  12.961  21.142  0.00  0.00     0.000 A 
ATOM     17  C   UNL d   1     -42.698  13.375  21.129  0.00  0.00     0.000 A 
ATOM     18  C   UNL d   1     -42.693  14.205  21.137  0.00  0.00     0.000 A 
ATOM     19  C   UNL d   1     -43.415  12.963  21.107  0.00  0.00     0.000 C 
ATOM     20  C   UNL d   1     -41.978  14.608  21.159  0.00  0.00     0.005 A 
ENDBRANCH   6  14
BRANCH   5  21
ATOM     21  C   UNL d   1     -40.047  15.092  18.385  0.00  0.00     0.020 A 
ATOM     22  C   UNL d   1     -39.713  14.485  17.924  0.00  0.00     0.004 A 
ATOM     23  C   UNL d   1     -39.794  14.507  17.090  0.00  0.00     0.030 A 
ATOM     24  C   UNL d   1     -40.206  15.133  16.734  0.00  0.00     0.140 A 
ATOM     25  C   UNL d   1     -40.532  15.725  17.192  0.00  0.00     0.030 A 
ATOM     26  F   UNL d   1     -40.284  15.150  15.912  0.00  0.00    -0.204 F 
ATOM     27  C   UNL d   1     -40.463  15.721  18.013  0.00  0.00     0.004 A 
ENDBRANCH   5  21
BRANCH  10  28
ATOM     28  C   UNL d   1     -38.045  15.922  22.343  0.00  0.00     0.080 C 
ATOM     29  C   UNL d   1     -37.940  15.404  22.979  0.00  0.00     0.021 C 
ENDBRANCH  10  28
TORSDOF 3
ENDMDL
MODEL 4
REMARK VINA RESULT:      -3.7      1.932      4.371
REMARK  3 active torsions:
REMARK  status: ('A' for Active; 'I' for Inactive)
REMARK       I    between atoms: C_6  and  N_1 
REMARK    1  A    between atoms: C_11  and  C_5 
REMARK    2  A    between atoms: C_12  and  C_6 
REMARK    3  A    between atoms: C_27  and  N_10 
ROOT
ATOM      1  N   UNL d   1     -40.058  14.256  18.131  0.00  0.00    -0.264 N 
ATOM      2  C   UNL d   1     -40.538  14.934  18.132  0.00  0.00     0.198 A 
ATOM      3  C   UNL d   1     -39.796  14.136  18.908  0.00  0.00     0.138 A 
ATOM      4  N   UNL d   1     -40.566  15.221  18.901  0.00  0.00    -0.243 NA
ATOM      5  C   UNL d   1     -40.110  14.732  19.383  0.00  0.00     0.105 A 
ATOM      6  C   UNL d   1     -39.879  13.794  17.486  0.00  0.00     0.263 C 
ATOM      7  C   UNL d   1     -41.002  15.614  18.208  0.00  0.00     0.041 A 
ATOM      8  C   UNL d   1     -40.451  14.577  17.405  0.00  0.00     0.041 A 
ATOM      9  S   UNL d   1     -39.301  13.519  19.164  0.00  0.00    -0.058 SA
ATOM     10  N   UNL d   1     -41.286  15.564  16.806  0.00  0.00    -0.303 N 
ATOM     11  O   UNL d   1     -40.185  13.986  16.739  0.00  0.00    -0.267 OA
ATOM     12  C   UNL d   1     -40.825  14.892  16.741  0.00  0.00     0.080 A 
ATOM     13  C   UNL d   1     -41.373  15.922  17.534  0.00  0.00     0.080 A 
ENDROOT
BRANCH   6  14
ATOM     14  C   UNL d   1     -39.394  13.136  17.571  0.00  0.00     0.056 A 
ATOM     15  C   UNL d   1     -39.729  12.393  17.638  0.00  0.00     0.005 A 
ATOM     16  C   UNL d   1     -39.245  11.731  17.724  0.00  0.00     0.000 A 
ATOM     17  C   UNL d   1     -38.424  11.816  17.742  0.00  0.00     0.000 A 
ATOM     18  C   UNL d   1     -38.087  12.571  17.673  0.00  0.00     0.000 A 
ATOM     19  C   UNL d   1     -37.941  11.149  17.828  0.00  0.00     0.000 C 
ATOM     20  C   UNL d   1     -38.571  13.228  17.588  0.00  0.00     0.005 A 
ENDBRANCH   6  14
BRANCH   5  21
ATOM     21  C   UNL d   1     -39.991  14.824  20.191  0.00  0.00     0.020 A 
ATOM     22  C   UNL d   1     -39.389  15.329  20.465  0.00  0.00     0.004 A 
ATOM     23  C   UNL d   1     -39.269  15.422  21.290  0.00  0.00     0.030 A 
ATOM     24  C   UNL d   1     -39.752  15.008  21.823  0.00  0.00     0.140 A 
ATOM     25  C   UNL d   1     -40.341  14.514  21.548  0.00  0.00     0.030 A 
ATOM     26  F   UNL d   1     -39.631  15.102  22.634  0.00  0.00    -0.204 F 
ATOM     27  C   UNL d   1     -40.474  14.411  20.741  0.00  0.00     0.004 A 
ENDBRANCH   5  21
BRANCH  10  28
ATOM     28  C   UNL d   1     -41.664  15.882  16.137  0.00  0.00     0.080 C 
ATOM     29  C   UNL d   1     -42.432  15.642  15.946  0.00  0.00     0.021 C 
ENDBRANCH  10  28
TORSDOF 3
ENDMDL
MODEL 5
REMARK VINA RESULT:      -3.6      2.173      4.463
REMARK  3 active torsions:
REMARK  status: ('A' for Active; 'I' for Inactive)
REMARK       I    between atoms: C_6  and  N_1 
REMARK    1  A    between atoms: C_11  and  C_5 
REMARK    2  A    between atoms: C_12  and  C_6 
REMARK    3  A    between atoms: C_27  and  N_10 
ROOT
ATOM      1  N   UNL d   1     -38.821  13.996  17.525  0.00  0.00    -0.264 N 
ATOM      2  C   UNL d   1     -38.970  14.780  17.291  0.00  0.00     0.198 A 
ATOM      3  C   UNL d   1     -39.251  13.858  18.220  0.00  0.00     0.138 A 
ATOM      4  N   UNL d   1     -39.483  15.111  17.839  0.00  0.00    -0.243 NA
ATOM      5  C   UNL d   1     -39.660  14.547  18.414  0.00  0.00     0.105 A 
ATOM      6  C   UNL d   1     -38.342  13.462  17.141  0.00  0.00     0.263 C 
ATOM      7  C   UNL d   1     -39.162  15.564  17.120  0.00  0.00     0.041 A 
ATOM      8  C   UNL d   1     -38.465  14.366  16.802  0.00  0.00     0.041 A 
ATOM      9  S   UNL d   1     -39.266  13.146  18.648  0.00  0.00    -0.058 SA
ATOM     10  N   UNL d   1     -38.329  15.505  15.958  0.00  0.00    -0.303 N 
ATOM     11  O   UNL d   1     -37.946  13.683  16.447  0.00  0.00    -0.267 OA
ATOM     12  C   UNL d   1     -38.144  14.729  16.135  0.00  0.00     0.080 A 
ATOM     13  C   UNL d   1     -38.835  15.919  16.447  0.00  0.00     0.080 A 
ENDROOT
BRANCH   6  14
ATOM     14  C   UNL d   1     -38.248  12.703  17.440  0.00  0.00     0.056 A 
ATOM     15  C   UNL d   1     -38.035  12.599  18.223  0.00  0.00     0.005 A 
ATOM     16  C   UNL d   1     -37.940  11.838  18.526  0.00  0.00     0.000 A 
ATOM     17  C   UNL d   1     -38.060  11.180  18.041  0.00  0.00     0.000 A 
ATOM     18  C   UNL d   1     -38.276  11.288  17.248  0.00  0.00     0.000 A 
ATOM     19  C   UNL d   1     -37.964  10.418  18.348  0.00  0.00     0.000 C 
ATOM     20  C   UNL d   1     -38.370  12.047  16.949  0.00  0.00     0.005 A 
ENDBRANCH   6  14
BRANCH   5  21
ATOM     21  C   UNL d   1     -40.154  14.654  19.062  0.00  0.00     0.020 A 
ATOM     22  C   UNL d   1     -39.847  14.970  19.768  0.00  0.00     0.004 A 
ATOM     23  C   UNL d   1     -40.353  15.079  20.427  0.00  0.00     0.030 A 
ATOM     24  C   UNL d   1     -41.154  14.869  20.368  0.00  0.00     0.140 A 
ATOM     25  C   UNL d   1     -41.449  14.560  19.673  0.00  0.00     0.030 A 
ATOM     26  F   UNL d   1     -41.648  14.978  21.020  0.00  0.00    -0.204 F 
ATOM     27  C   UNL d   1     -40.967  14.446  19.014  0.00  0.00     0.004 A 
ENDBRANCH   5  21
BRANCH  10  28
ATOM     28  C   UNL d   1     -38.006  15.872  15.285  0.00  0.00     0.080 C 
ATOM     29  C   UNL d   1     -38.282  15.667  14.533  0.00  0.00     0.021 C 
ENDBRANCH  10  28
TORSDOF 3
ENDMDL
MODEL 6
REMARK VINA RESULT:      -3.4      2.703      4.146
REMARK  3 active torsions:
REMARK  status: ('A' for Active; 'I' for Inactive)
REMARK       I    between atoms: C_6  and  N_1 
REMARK    1  A    between atoms: C_11  and  C_5 
REMARK    2  A    between atoms: C_12  and  C_6 
REMARK    3  A    between atoms: C_27  and  N_10 
ROOT
ATOM      1  N   UNL d   1     -40.796  14.303  20.210  0.00  0.00    -0.264 N 
ATOM      2  C   UNL d   1     -41.226  14.002  20.855  0.00  0.00     0.198 A 
ATOM      3  C   UNL d   1     -40.135  14.697  20.516  0.00  0.00     0.138 A 
ATOM      4  N   UNL d   1     -40.828  14.213  21.542  0.00  0.00    -0.243 NA
ATOM      5  C   UNL d   1     -40.155  14.642  21.337  0.00  0.00     0.105 A 
ATOM      6  C   UNL d   1     -40.990  14.224  19.424  0.00  0.00     0.263 C 
ATOM      7  C   UNL d   1     -41.600  13.733  21.541  0.00  0.00     0.041 A 
ATOM      8  C   UNL d   1     -41.548  13.840  20.124  0.00  0.00     0.041 A 
ATOM      9  S   UNL d   1     -39.551  15.084  20.068  0.00  0.00    -0.058 SA
ATOM     10  N   UNL d   1     -42.624  13.139  20.738  0.00  0.00    -0.303 N 
ATOM     11  O   UNL d   1     -41.674  13.810  19.204  0.00  0.00    -0.267 OA
ATOM     12  C   UNL d   1     -42.247  13.409  20.065  0.00  0.00     0.080 A 
ATOM     13  C   UNL d   1     -42.303  13.300  21.471  0.00  0.00     0.080 A 
ENDROOT
BRANCH   6  14
ATOM     14  C   UNL d   1     -40.509  14.553  18.845  0.00  0.00     0.056 A 
ATOM     15  C   UNL d   1     -40.616  15.334  18.627  0.00  0.00     0.005 A 
ATOM     16  C   UNL d   1     -40.134  15.667  18.046  0.00  0.00     0.000 A 
ATOM     17  C   UNL d   1     -39.545  15.216  17.685  0.00  0.00     0.000 A 
ATOM     18  C   UNL d   1     -39.438  14.424  17.909  0.00  0.00     0.000 A 
ATOM     19  C   UNL d   1     -39.064  15.553  17.103  0.00  0.00     0.000 C 
ATOM     20  C   UNL d   1     -39.919  14.095  18.487  0.00  0.00     0.005 A 
ENDBRANCH   6  14
BRANCH   5  21
ATOM     21  C   UNL d   1     -39.604  14.956  21.860  0.00  0.00     0.020 A 
ATOM     22  C   UNL d   1     -38.843  14.624  21.908  0.00  0.00     0.004 A 
ATOM     23  C   UNL d   1     -38.283  14.947  22.443  0.00  0.00     0.030 A 
ATOM     24  C   UNL d   1     -38.494  15.594  22.917  0.00  0.00     0.140 A 
ATOM     25  C   UNL d   1     -39.243  15.915  22.865  0.00  0.00     0.030 A 
ATOM     26  F   UNL d   1     -37.940  15.908  23.441  0.00  0.00    -0.204 F 
ATOM     27  C   UNL d   1     -39.806  15.612  22.346  0.00  0.00     0.004 A 
ENDBRANCH   5  21
BRANCH  10  28
ATOM     28  C   UNL d   1     -43.331  12.703  20.679  0.00  0.00     0.080 C 
ATOM     29  C   UNL d   1     -43.871  12.712  21.305  0.00  0.00     0.021 C 
ENDBRANCH  10  28
TORSDOF 3
ENDMDL
