MODEL 1
REMARK VINA RESULT:      73.6      0.000      0.000
REMARK  5 active torsions:
REMARK  status: ('A' for Active; 'I' for Inactive)
REMARK    1  A    between atoms: C_2  and  C_1 
REMARK    2  A    between atoms: C_6  and  C_2 
REMARK    3  A    between atoms: S_3  and  C_11 
REMARK    4  A    between atoms: N_7  and  S_3 
REMARK    5  A    between atoms: C_15  and  C_6 
ROOT
ATOM      1  C   UNL d   1      14.103  15.043  -4.416  0.00  0.00     0.141 C 
ATOM      2  C   UNL d   1      14.136  15.500  -3.717  0.00  0.00     0.107 C 
ATOM      3  N   UNL d   1      14.174  15.954  -3.048  0.00  0.00    -0.191 NA
ENDROOT
BRANCH   1   4
ATOM      4  C   UNL d   1      13.798  14.277  -4.384  0.00  0.00     0.161 A 
ATOM      5  N   UNL d   1      13.677  13.830  -3.695  0.00  0.00    -0.287 N 
ATOM      6  C   UNL d   1      13.366  13.099  -3.907  0.00  0.00     0.083 A 
ATOM      7  C   UNL d   1      13.845  14.079  -2.903  0.00  0.00     0.101 C 
ATOM      8  C   UNL d   1      13.145  12.454  -3.462  0.00  0.00     0.019 A 
ATOM      9  C   UNL d   1      13.292  13.094  -4.754  0.00  0.00     0.099 A 
ATOM     10  C   UNL d   1      12.844  11.788  -3.852  0.00  0.00     0.002 A 
ATOM     11  C   UNL d   1      12.770  11.783  -4.699  0.00  0.00     0.002 A 
ATOM     12  C   UNL d   1      12.998  12.443  -5.135  0.00  0.00     0.021 A 
ATOM     13  N   UNL d   1      13.561  13.821  -5.026  0.00  0.00    -0.226 NA
ENDBRANCH   1   4
BRANCH   1  14
ATOM     14  C   UNL d   1      14.370  15.349  -5.126  0.00  0.00     0.208 C 
ATOM     15  O   UNL d   1      14.639  14.845  -5.707  0.00  0.00    -0.286 OA
BRANCH  14  16
ATOM     16  C   UNL d   1      14.365  16.169  -5.254  0.00  0.00     0.040 A 
ATOM     17  C   UNL d   1      13.828  16.495  -5.805  0.00  0.00     0.004 A 
ATOM     18  C   UNL d   1      13.823  17.310  -5.931  0.00  0.00     0.013 A 
ATOM     19  C   UNL d   1      14.342  17.791  -5.520  0.00  0.00     0.104 A 
ATOM     20  C   UNL d   1      14.879  17.465  -4.969  0.00  0.00     0.013 A 
ATOM     21  C   UNL d   1      14.884  16.650  -4.843  0.00  0.00     0.004 A 
BRANCH  19  22
ATOM     22  S   UNL d   1      14.337  18.612  -5.648  0.00  0.00     0.271 S 
ATOM     23  O   UNL d   1      13.500  18.631  -5.497  0.00  0.00    -0.200 OA
ATOM     24  O   UNL d   1      15.154  18.593  -5.795  0.00  0.00    -0.200 OA
BRANCH  22  25
ATOM     25  N   UNL d   1      14.333  19.427  -5.774  0.00  0.00    -0.229 N 
ATOM     26  C   UNL d   1      13.623  19.831  -5.816  0.00  0.00     0.092 A 
ATOM     27  C   UNL d   1      13.619  20.651  -5.943  0.00  0.00     0.020 A 
ATOM     28  C   UNL d   1      14.325  21.062  -6.028  0.00  0.00     0.003 A 
ATOM     29  C   UNL d   1      15.025  20.652  -5.986  0.00  0.00     0.020 A 
ATOM     30  C   UNL d   1      15.030  19.832  -5.858  0.00  0.00     0.092 A 
ENDBRANCH  22  25
ENDBRANCH  19  22
ENDBRANCH  14  16
ENDBRANCH   1  14
TORSDOF 5
ENDMDL
