MODEL 1
REMARK VINA RESULT:      -2.8      0.000      0.000
REMARK  7 active torsions:
REMARK  status: ('A' for Active; 'I' for Inactive)
REMARK       I    between atoms: N_2  and  C_13 
REMARK    1  A    between atoms: C_11  and  C_6 
REMARK    2  A    between atoms: C_14  and  C_7 
REMARK    3  A    between atoms: S_18  and  C_9 
REMARK    4  A    between atoms: C_13  and  C_19 
REMARK    5  A    between atoms: O_26  and  C_15 
REMARK    6  A    between atoms: C_19  and  S_18 
REMARK    7  A    between atoms: O_29  and  C_22 
ROOT
ATOM      1  N   UNL d   1     -48.236  14.057  22.950  0.00  0.00    -0.194 N 
ATOM      2  N   UNL d   1     -48.669  14.756  22.949  0.00  0.00    -0.162 NA
ATOM      3  C   UNL d   1     -48.771  13.431  23.006  0.00  0.00     0.090 A 
ATOM      4  C   UNL d   1     -49.473  14.553  23.005  0.00  0.00     0.109 A 
ATOM      5  C   UNL d   1     -49.516  13.744  23.039  0.00  0.00     0.041 A 
ATOM      6  C   UNL d   1     -47.431  14.004  22.904  0.00  0.00     0.287 C 
ATOM      7  O   UNL d   1     -46.969  14.682  22.850  0.00  0.00    -0.265 OA
ENDROOT
BRANCH   6   8
ATOM      8  C   UNL d   1     -47.062  13.264  22.910  0.00  0.00     0.100 C 
BRANCH   8   9
ATOM      9  S   UNL d   1     -46.334  13.172  23.294  0.00  0.00    -0.054 SA
BRANCH   9  10
ATOM     10  C   UNL d   1     -45.649  12.992  22.858  0.00  0.00     0.163 A 
ATOM     11  S   UNL d   1     -45.064  12.423  23.070  0.00  0.00    -0.021 SA
ATOM     12  C   UNL d   1     -44.477  12.425  22.477  0.00  0.00     0.200 A 
ATOM     13  N   UNL d   1     -43.869  11.893  22.614  0.00  0.00    -0.182 NA
ATOM     14  N   UNL d   1     -44.687  12.991  21.893  0.00  0.00    -0.204 N 
ATOM     15  C   UNL d   1     -43.304  11.886  22.055  0.00  0.00     0.281 A 
ATOM     16  O   UNL d   1     -42.947  11.295  22.527  0.00  0.00    -0.265 OA
ATOM     17  C   UNL d   1     -43.165  12.310  21.321  0.00  0.00     0.064 A 
ATOM     18  C   UNL d   1     -43.663  12.922  20.962  0.00  0.00     0.026 A 
ATOM     19  C   UNL d   1     -44.384  13.218  21.271  0.00  0.00     0.103 A 
ATOM     20  N   UNL d   1     -45.414  13.343  22.129  0.00  0.00    -0.150 NA
ENDBRANCH   9  10
ENDBRANCH   8   9
ENDBRANCH   6   8
BRANCH   3  21
ATOM     21  C   UNL d   1     -48.559  12.643  23.023  0.00  0.00     0.042 A 
ATOM     22  C   UNL d   1     -48.683  12.190  22.346  0.00  0.00     0.118 A 
ATOM     23  C   UNL d   1     -48.471  11.386  22.349  0.00  0.00     0.116 A 
ATOM     24  C   UNL d   1     -48.140  11.050  23.027  0.00  0.00     0.026 A 
ATOM     25  C   UNL d   1     -48.020  11.506  23.694  0.00  0.00     0.002 A 
ATOM     26  C   UNL d   1     -48.233  12.309  23.688  0.00  0.00     0.004 A 
BRANCH  22  27
ATOM     27  O   UNL d   1     -49.013  12.522  21.669  0.00  0.00    -0.326 OA
ATOM     28  C   UNL d   1     -49.745  12.251  21.415  0.00  0.00     0.181 C 
ENDBRANCH  22  27
BRANCH  23  29
ATOM     29  O   UNL d   1     -48.595  10.934  21.674  0.00  0.00    -0.326 OA
ATOM     30  C   UNL d   1     -48.097  10.300  21.504  0.00  0.00     0.181 C 
ENDBRANCH  23  29
ENDBRANCH   3  21
BRANCH   4  31
ATOM     31  C   UNL d   1     -50.094  15.083  23.022  0.00  0.00     0.049 A 
ATOM     32  S   UNL d   1     -50.465  15.371  23.697  0.00  0.00    -0.085 SA
ATOM     33  C   UNL d   1     -51.064  15.893  23.454  0.00  0.00     0.035 A 
ATOM     34  C   UNL d   1     -51.051  15.918  22.631  0.00  0.00     0.007 A 
ATOM     35  C   UNL d   1     -50.448  15.414  22.379  0.00  0.00     0.009 A 
ENDBRANCH   4  31
TORSDOF 7
ENDMDL
MODEL 2
REMARK VINA RESULT:      -2.6      4.646      8.959
REMARK  7 active torsions:
REMARK  status: ('A' for Active; 'I' for Inactive)
REMARK       I    between atoms: N_2  and  C_13 
REMARK    1  A    between atoms: C_11  and  C_6 
REMARK    2  A    between atoms: C_14  and  C_7 
REMARK    3  A    between atoms: S_18  and  C_9 
REMARK    4  A    between atoms: C_13  and  C_19 
REMARK    5  A    between atoms: O_26  and  C_15 
REMARK    6  A    between atoms: C_19  and  S_18 
REMARK    7  A    between atoms: O_29  and  C_22 
ROOT
ATOM      1  N   UNL d   1     -40.047  14.123  19.100  0.00  0.00    -0.194 N 
ATOM      2  N   UNL d   1     -39.848  13.982  18.315  0.00  0.00    -0.162 NA
ATOM      3  C   UNL d   1     -39.356  14.335  19.499  0.00  0.00     0.090 A 
ATOM      4  C   UNL d   1     -39.031  14.109  18.236  0.00  0.00     0.109 A 
ATOM      5  C   UNL d   1     -38.749  14.324  18.966  0.00  0.00     0.041 A 
ATOM      6  C   UNL d   1     -40.789  14.062  19.414  0.00  0.00     0.287 C 
ATOM      7  O   UNL d   1     -41.426  13.843  18.943  0.00  0.00    -0.265 OA
ENDROOT
BRANCH   6   8
ATOM      8  C   UNL d   1     -40.916  14.219  20.216  0.00  0.00     0.100 C 
BRANCH   8   9
ATOM      9  S   UNL d   1     -41.663  14.469  20.472  0.00  0.00    -0.054 SA
BRANCH   9  10
ATOM     10  C   UNL d   1     -42.169  13.943  20.868  0.00  0.00     0.163 A 
ATOM     11  S   UNL d   1     -42.982  14.079  21.047  0.00  0.00    -0.021 SA
ATOM     12  C   UNL d   1     -43.273  13.406  21.446  0.00  0.00     0.200 A 
ATOM     13  N   UNL d   1     -44.064  13.465  21.655  0.00  0.00    -0.182 NA
ATOM     14  N   UNL d   1     -42.651  12.847  21.520  0.00  0.00    -0.204 N 
ATOM     15  C   UNL d   1     -44.351  12.829  22.036  0.00  0.00     0.281 A 
ATOM     16  O   UNL d   1     -45.070  13.256  22.053  0.00  0.00    -0.265 OA
ATOM     17  C   UNL d   1     -44.033  12.073  22.292  0.00  0.00     0.064 A 
ATOM     18  C   UNL d   1     -43.226  11.778  22.188  0.00  0.00     0.026 A 
ATOM     19  C   UNL d   1     -42.594  12.182  21.812  0.00  0.00     0.103 A 
ATOM     20  N   UNL d   1     -41.966  13.179  21.161  0.00  0.00    -0.150 NA
ENDBRANCH   9  10
ENDBRANCH   8   9
ENDBRANCH   6   8
BRANCH   3  21
ATOM     21  C   UNL d   1     -39.321  14.520  20.293  0.00  0.00     0.042 A 
ATOM     22  C   UNL d   1     -38.949  13.989  20.802  0.00  0.00     0.118 A 
ATOM     23  C   UNL d   1     -38.905  14.164  21.614  0.00  0.00     0.116 A 
ATOM     24  C   UNL d   1     -39.233  14.865  21.902  0.00  0.00     0.026 A 
ATOM     25  C   UNL d   1     -39.601  15.386  21.391  0.00  0.00     0.002 A 
ATOM     26  C   UNL d   1     -39.643  15.209  20.580  0.00  0.00     0.004 A 
BRANCH  22  27
ATOM     27  O   UNL d   1     -38.621  13.290  20.518  0.00  0.00    -0.326 OA
ATOM     28  C   UNL d   1     -37.940  13.002  20.874  0.00  0.00     0.181 C 
ENDBRANCH  22  27
BRANCH  23  29
ATOM     29  O   UNL d   1     -38.534  13.635  22.121  0.00  0.00    -0.326 OA
ATOM     30  C   UNL d   1     -38.591  13.735  22.937  0.00  0.00     0.181 C 
ENDBRANCH  23  29
ENDBRANCH   3  21
BRANCH   4  31
ATOM     31  C   UNL d   1     -38.605  14.030  17.545  0.00  0.00     0.049 A 
ATOM     32  S   UNL d   1     -38.362  14.643  17.053  0.00  0.00    -0.085 SA
ATOM     33  C   UNL d   1     -37.946  14.308  16.416  0.00  0.00     0.035 A 
ATOM     34  C   UNL d   1     -37.940  13.492  16.527  0.00  0.00     0.007 A 
ATOM     35  C   UNL d   1     -38.349  13.335  17.226  0.00  0.00     0.009 A 
ENDBRANCH   4  31
TORSDOF 7
ENDMDL
MODEL 3
REMARK VINA RESULT:      -1.4      8.104     10.687
REMARK  7 active torsions:
REMARK  status: ('A' for Active; 'I' for Inactive)
REMARK       I    between atoms: N_2  and  C_13 
REMARK    1  A    between atoms: C_11  and  C_6 
REMARK    2  A    between atoms: C_14  and  C_7 
REMARK    3  A    between atoms: S_18  and  C_9 
REMARK    4  A    between atoms: C_13  and  C_19 
REMARK    5  A    between atoms: O_26  and  C_15 
REMARK    6  A    between atoms: C_19  and  S_18 
REMARK    7  A    between atoms: O_29  and  C_22 
ROOT
ATOM      1  N   UNL d   1     -38.262  13.492  16.775  0.00  0.00    -0.194 N 
ATOM      2  N   UNL d   1     -38.085  13.118  16.065  0.00  0.00    -0.162 NA
ATOM      3  C   UNL d   1     -38.513  14.258  16.599  0.00  0.00     0.090 A 
ATOM      4  C   UNL d   1     -38.228  13.660  15.453  0.00  0.00     0.109 A 
ATOM      5  C   UNL d   1     -38.488  14.348  15.796  0.00  0.00     0.041 A 
ATOM      6  C   UNL d   1     -38.199  13.160  17.509  0.00  0.00     0.287 C 
ATOM      7  O   UNL d   1     -37.940  12.385  17.597  0.00  0.00    -0.265 OA
ENDROOT
BRANCH   6   8
ATOM      8  C   UNL d   1     -38.396  13.597  18.183  0.00  0.00     0.100 C 
BRANCH   8   9
ATOM      9  S   UNL d   1     -38.029  13.427  18.905  0.00  0.00    -0.054 SA
BRANCH   9  10
ATOM     10  C   UNL d   1     -38.459  13.465  19.615  0.00  0.00     0.163 A 
ATOM     11  S   UNL d   1     -38.132  13.543  20.388  0.00  0.00    -0.021 SA
ATOM     12  C   UNL d   1     -38.763  13.558  20.934  0.00  0.00     0.200 A 
ATOM     13  N   UNL d   1     -38.522  13.633  21.714  0.00  0.00    -0.182 NA
ATOM     14  N   UNL d   1     -39.486  13.490  20.511  0.00  0.00    -0.204 N 
ATOM     15  C   UNL d   1     -39.116  13.648  22.242  0.00  0.00     0.281 A 
ATOM     16  O   UNL d   1     -38.508  13.723  22.812  0.00  0.00    -0.265 OA
ATOM     17  C   UNL d   1     -39.973  13.605  22.201  0.00  0.00     0.064 A 
ATOM     18  C   UNL d   1     -40.464  13.524  21.492  0.00  0.00     0.026 A 
ATOM     19  C   UNL d   1     -40.188  13.472  20.701  0.00  0.00     0.103 A 
ATOM     20  N   UNL d   1     -39.298  13.432  19.692  0.00  0.00    -0.150 NA
ENDBRANCH   9  10
ENDBRANCH   8   9
ENDBRANCH   6   8
BRANCH   3  21
ATOM     21  C   UNL d   1     -38.740  14.809  17.157  0.00  0.00     0.042 A 
ATOM     22  C   UNL d   1     -39.532  15.037  17.180  0.00  0.00     0.118 A 
ATOM     23  C   UNL d   1     -39.778  15.598  17.743  0.00  0.00     0.116 A 
ATOM     24  C   UNL d   1     -39.230  15.919  18.271  0.00  0.00     0.026 A 
ATOM     25  C   UNL d   1     -38.447  15.687  18.241  0.00  0.00     0.002 A 
ATOM     26  C   UNL d   1     -38.204  15.127  17.678  0.00  0.00     0.004 A 
BRANCH  22  27
ATOM     27  O   UNL d   1     -40.080  14.719  16.656  0.00  0.00    -0.326 OA
ATOM     28  C   UNL d   1     -40.766  15.142  16.499  0.00  0.00     0.181 C 
ENDBRANCH  22  27
BRANCH  23  29
ATOM     29  O   UNL d   1     -40.567  15.826  17.767  0.00  0.00    -0.326 OA
ATOM     30  C   UNL d   1     -40.954  15.902  18.491  0.00  0.00     0.181 C 
ENDBRANCH  23  29
ENDBRANCH   3  21
BRANCH   4  31
ATOM     31  C   UNL d   1     -38.123  13.513  14.657  0.00  0.00     0.049 A 
ATOM     32  S   UNL d   1     -38.035  14.081  14.068  0.00  0.00    -0.085 SA
ATOM     33  C   UNL d   1     -37.943  13.683  13.344  0.00  0.00     0.035 A 
ATOM     34  C   UNL d   1     -37.976  12.875  13.500  0.00  0.00     0.007 A 
ATOM     35  C   UNL d   1     -38.087  12.786  14.313  0.00  0.00     0.009 A 
ENDBRANCH   4  31
TORSDOF 7
ENDMDL
MODEL 4
REMARK VINA RESULT:      -1.1      6.175     10.207
REMARK  7 active torsions:
REMARK  status: ('A' for Active; 'I' for Inactive)
REMARK       I    between atoms: N_2  and  C_13 
REMARK    1  A    between atoms: C_11  and  C_6 
REMARK    2  A    between atoms: C_14  and  C_7 
REMARK    3  A    between atoms: S_18  and  C_9 
REMARK    4  A    between atoms: C_13  and  C_19 
REMARK    5  A    between atoms: O_26  and  C_15 
REMARK    6  A    between atoms: C_19  and  S_18 
REMARK    7  A    between atoms: O_29  and  C_22 
ROOT
ATOM      1  N   UNL d   1     -39.383  14.523  16.863  0.00  0.00    -0.194 N 
ATOM      2  N   UNL d   1     -39.384  14.459  16.043  0.00  0.00    -0.162 NA
ATOM      3  C   UNL d   1     -38.632  14.311  17.130  0.00  0.00     0.090 A 
ATOM      4  C   UNL d   1     -38.628  14.206  15.810  0.00  0.00     0.109 A 
ATOM      5  C   UNL d   1     -38.184  14.121  16.484  0.00  0.00     0.041 A 
ATOM      6  C   UNL d   1     -40.011  14.753  17.316  0.00  0.00     0.287 C 
ATOM      7  O   UNL d   1     -40.730  14.948  16.967  0.00  0.00    -0.265 OA
ENDROOT
BRANCH   6   8
ATOM      8  C   UNL d   1     -39.939  14.794  18.138  0.00  0.00     0.100 C 
BRANCH   8   9
ATOM      9  S   UNL d   1     -40.474  15.250  18.576  0.00  0.00    -0.054 SA
BRANCH   9  10
ATOM     10  C   UNL d   1     -40.868  14.923  19.231  0.00  0.00     0.163 A 
ATOM     11  S   UNL d   1     -41.410  14.277  19.210  0.00  0.00    -0.021 SA
ATOM     12  C   UNL d   1     -41.669  14.135  19.990  0.00  0.00     0.200 A 
ATOM     13  N   UNL d   1     -42.203  13.516  20.051  0.00  0.00    -0.182 NA
ATOM     14  N   UNL d   1     -41.295  14.685  20.503  0.00  0.00    -0.204 N 
ATOM     15  C   UNL d   1     -42.457  13.371  20.791  0.00  0.00     0.281 A 
ATOM     16  O   UNL d   1     -42.909  12.762  20.437  0.00  0.00    -0.265 OA
ATOM     17  C   UNL d   1     -42.308  13.710  21.566  0.00  0.00     0.064 A 
ATOM     18  C   UNL d   1     -41.784  14.372  21.761  0.00  0.00     0.026 A 
ATOM     19  C   UNL d   1     -41.316  14.810  21.220  0.00  0.00     0.103 A 
ATOM     20  N   UNL d   1     -40.798  15.174  20.032  0.00  0.00    -0.150 NA
ENDBRANCH   9  10
ENDBRANCH   8   9
ENDBRANCH   6   8
BRANCH   3  21
ATOM     21  C   UNL d   1     -38.407  14.302  17.914  0.00  0.00     0.042 A 
ATOM     22  C   UNL d   1     -38.351  13.574  18.297  0.00  0.00     0.118 A 
ATOM     23  C   UNL d   1     -38.123  13.550  19.097  0.00  0.00     0.116 A 
ATOM     24  C   UNL d   1     -37.955  14.252  19.497  0.00  0.00     0.026 A 
ATOM     25  C   UNL d   1     -38.012  14.970  19.111  0.00  0.00     0.002 A 
ATOM     26  C   UNL d   1     -38.240  14.991  18.312  0.00  0.00     0.004 A 
BRANCH  22  27
ATOM     27  O   UNL d   1     -38.518  12.873  17.900  0.00  0.00    -0.326 OA
ATOM     28  C   UNL d   1     -38.048  12.216  18.047  0.00  0.00     0.181 C 
ENDBRANCH  22  27
BRANCH  23  29
ATOM     29  O   UNL d   1     -38.068  12.825  19.478  0.00  0.00    -0.326 OA
ATOM     30  C   UNL d   1     -37.947  12.795  20.293  0.00  0.00     0.181 C 
ENDBRANCH  23  29
ENDBRANCH   3  21
BRANCH   4  31
ATOM     31  C   UNL d   1     -38.390  14.072  15.041  0.00  0.00     0.049 A 
ATOM     32  S   UNL d   1     -38.135  13.354  14.732  0.00  0.00    -0.085 SA
ATOM     33  C   UNL d   1     -37.950  13.474  13.931  0.00  0.00     0.035 A 
ATOM     34  C   UNL d   1     -38.094  14.267  13.760  0.00  0.00     0.007 A 
ATOM     35  C   UNL d   1     -38.365  14.623  14.453  0.00  0.00     0.009 A 
ENDBRANCH   4  31
TORSDOF 7
ENDMDL
