MODEL 1
REMARK VINA RESULT:      -6.7      0.000      0.000
REMARK  5 active torsions:
REMARK  status: ('A' for Active; 'I' for Inactive)
REMARK    1  A    between atoms: N_2  and  S_1 
REMARK    2  A    between atoms: C_3  and  S_1 
REMARK    3  A    between atoms: C_14  and  C_5 
REMARK    4  A    between atoms: O_15  and  C_8 
REMARK    5  A    between atoms: C_18  and  C_14 
ROOT
ATOM      1  C   UNL d   1     -48.271  12.781  22.738  0.00  0.00     0.104 A 
ATOM      2  C   UNL d   1     -47.546  13.162  22.631  0.00  0.00     0.015 A 
ATOM      3  C   UNL d   1     -46.848  12.803  22.885  0.00  0.00     0.023 A 
ATOM      4  C   UNL d   1     -46.871  12.061  23.247  0.00  0.00     0.094 A 
ATOM      5  C   UNL d   1     -48.294  12.040  23.100  0.00  0.00     0.015 A 
ATOM      6  C   UNL d   1     -47.596  11.680  23.354  0.00  0.00     0.025 A 
ENDROOT
BRANCH   1   7
ATOM      7  S   UNL d   1     -48.969  13.141  22.483  0.00  0.00     0.272 S 
ATOM      8  O   UNL d   1     -49.172  13.303  23.268  0.00  0.00    -0.200 OA
ATOM      9  O   UNL d   1     -48.767  12.979  21.698  0.00  0.00    -0.200 OA
BRANCH   7  10
ATOM     10  N   UNL d   1     -49.666  13.499  22.230  0.00  0.00    -0.225 N 
ATOM     11  C   UNL d   1     -49.756  14.316  22.293  0.00  0.00     0.118 A 
ATOM     12  C   UNL d   1     -50.456  14.676  22.038  0.00  0.00     0.142 A 
ATOM     13  O   UNL d   1     -51.064  14.218  21.721  0.00  0.00    -0.300 OA
ATOM     14  C   UNL d   1     -50.974  13.401  21.658  0.00  0.00     0.142 A 
ATOM     15  C   UNL d   1     -50.274  13.041  21.913  0.00  0.00     0.118 A 
ENDBRANCH   7  10
ENDBRANCH   1   7
BRANCH   3  16
ATOM     16  C   UNL d   1     -46.124  13.183  22.778  0.00  0.00     0.002 C 
ATOM     17  C   UNL d   1     -45.853  13.716  23.348  0.00  0.00     0.000 C 
BRANCH  16  18
ATOM     18  C   UNL d   1     -45.671  13.031  22.104  0.00  0.00     0.000 C 
ATOM     19  C   UNL d   1     -45.000  13.485  21.945  0.00  0.00     0.000 C 
ENDBRANCH  16  18
ENDBRANCH   3  16
BRANCH   4  20
ATOM     20  O   UNL d   1     -46.172  11.702  23.501  0.00  0.00    -0.328 OA
ATOM     21  C   UNL d   1     -46.167  10.900  23.698  0.00  0.00     0.181 C 
ENDBRANCH   4  20
TORSDOF 5
ENDMDL
MODEL 2
REMARK VINA RESULT:      -6.6      1.103      2.099
REMARK  5 active torsions:
REMARK  status: ('A' for Active; 'I' for Inactive)
REMARK    1  A    between atoms: N_2  and  S_1 
REMARK    2  A    between atoms: C_3  and  S_1 
REMARK    3  A    between atoms: C_14  and  C_5 
REMARK    4  A    between atoms: O_15  and  C_8 
REMARK    5  A    between atoms: C_18  and  C_14 
ROOT
ATOM      1  C   UNL d   1     -48.070  14.096  22.766  0.00  0.00     0.104 A 
ATOM      2  C   UNL d   1     -47.960  13.334  23.063  0.00  0.00     0.015 A 
ATOM      3  C   UNL d   1     -47.211  12.986  23.047  0.00  0.00     0.023 A 
ATOM      4  C   UNL d   1     -46.569  13.400  22.733  0.00  0.00     0.094 A 
ATOM      5  C   UNL d   1     -47.428  14.509  22.452  0.00  0.00     0.015 A 
ATOM      6  C   UNL d   1     -46.679  14.162  22.435  0.00  0.00     0.025 A 
ENDROOT
BRANCH   1   7
ATOM      7  S   UNL d   1     -48.819  14.443  22.782  0.00  0.00     0.272 S 
ATOM      8  O   UNL d   1     -49.044  13.987  22.131  0.00  0.00    -0.200 OA
ATOM      9  O   UNL d   1     -48.593  14.900  23.433  0.00  0.00    -0.200 OA
BRANCH   7  10
ATOM     10  N   UNL d   1     -49.565  14.789  22.798  0.00  0.00    -0.225 N 
ATOM     11  C   UNL d   1     -50.138  14.561  22.250  0.00  0.00     0.118 A 
ATOM     12  C   UNL d   1     -50.888  14.909  22.266  0.00  0.00     0.142 A 
ATOM     13  O   UNL d   1     -51.064  15.485  22.830  0.00  0.00    -0.300 OA
ATOM     14  C   UNL d   1     -50.491  15.713  23.378  0.00  0.00     0.142 A 
ATOM     15  C   UNL d   1     -49.741  15.365  23.362  0.00  0.00     0.118 A 
ENDBRANCH   7  10
ENDBRANCH   1   7
BRANCH   3  16
ATOM     16  C   UNL d   1     -47.101  12.225  23.345  0.00  0.00     0.002 C 
ATOM     17  C   UNL d   1     -46.383  12.023  23.698  0.00  0.00     0.000 C 
BRANCH  16  18
ATOM     18  C   UNL d   1     -47.707  11.667  23.289  0.00  0.00     0.000 C 
ATOM     19  C   UNL d   1     -47.647  10.949  23.693  0.00  0.00     0.000 C 
ENDBRANCH  16  18
ENDBRANCH   3  16
BRANCH   4  20
ATOM     20  O   UNL d   1     -45.820  13.052  22.717  0.00  0.00    -0.328 OA
ATOM     21  C   UNL d   1     -45.253  13.316  22.178  0.00  0.00     0.181 C 
ENDBRANCH   4  20
TORSDOF 5
ENDMDL
MODEL 3
REMARK VINA RESULT:      -6.3      1.409      3.918
REMARK  5 active torsions:
REMARK  status: ('A' for Active; 'I' for Inactive)
REMARK    1  A    between atoms: N_2  and  S_1 
REMARK    2  A    between atoms: C_3  and  S_1 
REMARK    3  A    between atoms: C_14  and  C_5 
REMARK    4  A    between atoms: O_15  and  C_8 
REMARK    5  A    between atoms: C_18  and  C_14 
ROOT
ATOM      1  C   UNL d   1     -47.918  12.779  23.032  0.00  0.00     0.104 A 
ATOM      2  C   UNL d   1     -48.345  13.449  22.808  0.00  0.00     0.015 A 
ATOM      3  C   UNL d   1     -49.158  13.489  22.952  0.00  0.00     0.023 A 
ATOM      4  C   UNL d   1     -49.545  12.860  23.320  0.00  0.00     0.094 A 
ATOM      5  C   UNL d   1     -48.305  12.150  23.400  0.00  0.00     0.015 A 
ATOM      6  C   UNL d   1     -49.117  12.190  23.543  0.00  0.00     0.025 A 
ENDROOT
BRANCH   1   7
ATOM      7  S   UNL d   1     -47.106  12.739  22.888  0.00  0.00     0.272 S 
ATOM      8  O   UNL d   1     -47.235  12.943  22.098  0.00  0.00    -0.200 OA
ATOM      9  O   UNL d   1     -46.976  12.535  23.679  0.00  0.00    -0.200 OA
BRANCH   7  10
ATOM     10  N   UNL d   1     -46.296  12.699  22.744  0.00  0.00    -0.225 N 
ATOM     11  C   UNL d   1     -45.863  12.046  23.003  0.00  0.00     0.118 A 
ATOM     12  C   UNL d   1     -45.049  12.006  22.859  0.00  0.00     0.142 A 
ATOM     13  O   UNL d   1     -44.670  12.618  22.457  0.00  0.00    -0.300 OA
ATOM     14  C   UNL d   1     -45.104  13.271  22.198  0.00  0.00     0.142 A 
ATOM     15  C   UNL d   1     -45.917  13.311  22.342  0.00  0.00     0.118 A 
ENDBRANCH   7  10
ENDBRANCH   1   7
BRANCH   3  16
ATOM     16  C   UNL d   1     -49.585  14.158  22.729  0.00  0.00     0.002 C 
ATOM     17  C   UNL d   1     -49.990  14.164  22.009  0.00  0.00     0.000 C 
BRANCH  16  18
ATOM     18  C   UNL d   1     -49.608  14.820  23.222  0.00  0.00     0.000 C 
ATOM     19  C   UNL d   1     -49.630  15.578  22.898  0.00  0.00     0.000 C 
ENDBRANCH  16  18
ENDBRANCH   3  16
BRANCH   4  20
ATOM     20  O   UNL d   1     -50.357  12.900  23.464  0.00  0.00    -0.328 OA
ATOM     21  C   UNL d   1     -50.771  12.224  23.693  0.00  0.00     0.181 C 
ENDBRANCH   4  20
TORSDOF 5
ENDMDL
MODEL 4
REMARK VINA RESULT:      -5.4      1.482      4.180
REMARK  5 active torsions:
REMARK  status: ('A' for Active; 'I' for Inactive)
REMARK    1  A    between atoms: N_2  and  S_1 
REMARK    2  A    between atoms: C_3  and  S_1 
REMARK    3  A    between atoms: C_14  and  C_5 
REMARK    4  A    between atoms: O_15  and  C_8 
REMARK    5  A    between atoms: C_18  and  C_14 
ROOT
ATOM      1  C   UNL d   1     -48.002  13.665  22.832  0.00  0.00     0.104 A 
ATOM      2  C   UNL d   1     -48.632  13.132  22.872  0.00  0.00     0.015 A 
ATOM      3  C   UNL d   1     -49.406  13.411  22.946  0.00  0.00     0.023 A 
ATOM      4  C   UNL d   1     -49.552  14.223  22.979  0.00  0.00     0.094 A 
ATOM      5  C   UNL d   1     -48.149  14.476  22.865  0.00  0.00     0.015 A 
ATOM      6  C   UNL d   1     -48.923  14.755  22.939  0.00  0.00     0.025 A 
ENDROOT
BRANCH   1   7
ATOM      7  S   UNL d   1     -47.228  13.386  22.758  0.00  0.00     0.272 S 
ATOM      8  O   UNL d   1     -47.090  13.560  23.554  0.00  0.00    -0.200 OA
ATOM      9  O   UNL d   1     -47.366  13.212  21.961  0.00  0.00    -0.200 OA
BRANCH   7  10
ATOM     10  N   UNL d   1     -46.457  13.108  22.685  0.00  0.00    -0.225 N 
ATOM     11  C   UNL d   1     -46.242  12.389  23.027  0.00  0.00     0.118 A 
ATOM     12  C   UNL d   1     -45.467  12.110  22.954  0.00  0.00     0.142 A 
ATOM     13  O   UNL d   1     -44.908  12.551  22.537  0.00  0.00    -0.300 OA
ATOM     14  C   UNL d   1     -45.122  13.270  22.194  0.00  0.00     0.142 A 
ATOM     15  C   UNL d   1     -45.897  13.549  22.268  0.00  0.00     0.118 A 
ENDBRANCH   7  10
ENDBRANCH   1   7
BRANCH   3  16
ATOM     16  C   UNL d   1     -50.035  12.880  22.986  0.00  0.00     0.002 C 
ATOM     17  C   UNL d   1     -50.488  12.730  22.313  0.00  0.00     0.000 C 
BRANCH  16  18
ATOM     18  C   UNL d   1     -50.211  12.499  23.698  0.00  0.00     0.000 C 
ATOM     19  C   UNL d   1     -50.663  11.809  23.697  0.00  0.00     0.000 C 
ENDBRANCH  16  18
ENDBRANCH   3  16
BRANCH   4  20
ATOM     20  O   UNL d   1     -50.326  14.501  23.053  0.00  0.00    -0.328 OA
ATOM     21  C   UNL d   1     -50.468  15.309  23.148  0.00  0.00     0.181 C 
ENDBRANCH   4  20
TORSDOF 5
ENDMDL
MODEL 5
REMARK VINA RESULT:      -5.4      8.788      9.764
REMARK  5 active torsions:
REMARK  status: ('A' for Active; 'I' for Inactive)
REMARK    1  A    between atoms: N_2  and  S_1 
REMARK    2  A    between atoms: C_3  and  S_1 
REMARK    3  A    between atoms: C_14  and  C_5 
REMARK    4  A    between atoms: O_15  and  C_8 
REMARK    5  A    between atoms: C_18  and  C_14 
ROOT
ATOM      1  C   UNL d   1     -40.041  15.251  19.307  0.00  0.00     0.104 A 
ATOM      2  C   UNL d   1     -39.558  14.874  18.753  0.00  0.00     0.015 A 
ATOM      3  C   UNL d   1     -39.758  14.888  17.952  0.00  0.00     0.023 A 
ATOM      4  C   UNL d   1     -40.440  15.279  17.702  0.00  0.00     0.094 A 
ATOM      5  C   UNL d   1     -40.724  15.641  19.057  0.00  0.00     0.015 A 
ATOM      6  C   UNL d   1     -40.923  15.656  18.255  0.00  0.00     0.025 A 
ENDROOT
BRANCH   1   7
ATOM      7  S   UNL d   1     -39.842  15.236  20.108  0.00  0.00     0.272 S 
ATOM      8  O   UNL d   1     -39.315  15.861  19.988  0.00  0.00    -0.200 OA
ATOM      9  O   UNL d   1     -40.370  14.611  20.228  0.00  0.00    -0.200 OA
BRANCH   7  10
ATOM     10  N   UNL d   1     -39.643  15.222  20.907  0.00  0.00    -0.225 N 
ATOM     11  C   UNL d   1     -39.696  15.911  21.358  0.00  0.00     0.118 A 
ATOM     12  C   UNL d   1     -39.497  15.897  22.160  0.00  0.00     0.142 A 
ATOM     13  O   UNL d   1     -39.244  15.194  22.511  0.00  0.00    -0.300 OA
ATOM     14  C   UNL d   1     -39.191  14.505  22.060  0.00  0.00     0.142 A 
ATOM     15  C   UNL d   1     -39.391  14.520  21.257  0.00  0.00     0.118 A 
ENDBRANCH   7  10
ENDBRANCH   1   7
BRANCH   3  16
ATOM     16  C   UNL d   1     -39.276  14.513  17.399  0.00  0.00     0.002 C 
ATOM     17  C   UNL d   1     -38.792  14.963  16.904  0.00  0.00     0.000 C 
BRANCH  16  18
ATOM     18  C   UNL d   1     -39.276  13.689  17.340  0.00  0.00     0.000 C 
ATOM     19  C   UNL d   1     -38.639  13.298  16.990  0.00  0.00     0.000 C 
ENDBRANCH  16  18
ENDBRANCH   3  16
BRANCH   4  20
ATOM     20  O   UNL d   1     -40.640  15.293  16.901  0.00  0.00    -0.328 OA
ATOM     21  C   UNL d   1     -41.305  15.711  16.647  0.00  0.00     0.181 C 
ENDBRANCH   4  20
TORSDOF 5
ENDMDL
MODEL 6
REMARK VINA RESULT:      -5.3      8.020      9.818
REMARK  5 active torsions:
REMARK  status: ('A' for Active; 'I' for Inactive)
REMARK    1  A    between atoms: N_2  and  S_1 
REMARK    2  A    between atoms: C_3  and  S_1 
REMARK    3  A    between atoms: C_14  and  C_5 
REMARK    4  A    between atoms: O_15  and  C_8 
REMARK    5  A    between atoms: C_18  and  C_14 
ROOT
ATOM      1  C   UNL d   1     -39.813  14.602  18.951  0.00  0.00     0.104 A 
ATOM      2  C   UNL d   1     -39.473  14.471  19.691  0.00  0.00     0.015 A 
ATOM      3  C   UNL d   1     -39.835  14.768  20.372  0.00  0.00     0.023 A 
ATOM      4  C   UNL d   1     -40.538  15.197  20.313  0.00  0.00     0.094 A 
ATOM      5  C   UNL d   1     -40.516  15.031  18.892  0.00  0.00     0.015 A 
ATOM      6  C   UNL d   1     -40.878  15.328  19.573  0.00  0.00     0.025 A 
ENDROOT
BRANCH   1   7
ATOM      7  S   UNL d   1     -39.452  14.305  18.270  0.00  0.00     0.272 S 
ATOM      8  O   UNL d   1     -38.918  14.935  18.278  0.00  0.00    -0.200 OA
ATOM      9  O   UNL d   1     -39.986  13.673  18.262  0.00  0.00    -0.200 OA
BRANCH   7  10
ATOM     10  N   UNL d   1     -39.091  14.009  17.592  0.00  0.00    -0.225 N 
ATOM     11  C   UNL d   1     -39.090  14.453  16.897  0.00  0.00     0.118 A 
ATOM     12  C   UNL d   1     -38.728  14.156  16.216  0.00  0.00     0.142 A 
ATOM     13  O   UNL d   1     -38.368  13.414  16.230  0.00  0.00    -0.300 OA
ATOM     14  C   UNL d   1     -38.369  12.970  16.924  0.00  0.00     0.142 A 
ATOM     15  C   UNL d   1     -38.731  13.267  17.606  0.00  0.00     0.118 A 
ENDBRANCH   7  10
ENDBRANCH   1   7
BRANCH   3  16
ATOM     16  C   UNL d   1     -39.495  14.637  21.111  0.00  0.00     0.002 C 
ATOM     17  C   UNL d   1     -39.064  15.239  21.476  0.00  0.00     0.000 C 
BRANCH  16  18
ATOM     18  C   UNL d   1     -39.587  13.907  21.487  0.00  0.00     0.000 C 
ATOM     19  C   UNL d   1     -39.055  13.674  22.074  0.00  0.00     0.000 C 
ENDBRANCH  16  18
ENDBRANCH   3  16
BRANCH   4  20
ATOM     20  O   UNL d   1     -40.899  15.494  20.994  0.00  0.00    -0.328 OA
ATOM     21  C   UNL d   1     -41.603  15.921  20.936  0.00  0.00     0.181 C 
ENDBRANCH   4  20
TORSDOF 5
ENDMDL
MODEL 7
REMARK VINA RESULT:      -5.1      8.085      9.809
REMARK  5 active torsions:
REMARK  status: ('A' for Active; 'I' for Inactive)
REMARK    1  A    between atoms: N_2  and  S_1 
REMARK    2  A    between atoms: C_3  and  S_1 
REMARK    3  A    between atoms: C_14  and  C_5 
REMARK    4  A    between atoms: O_15  and  C_8 
REMARK    5  A    between atoms: C_18  and  C_14 
ROOT
ATOM      1  C   UNL d   1     -39.217  14.248  19.239  0.00  0.00     0.104 A 
ATOM      2  C   UNL d   1     -39.904  14.552  19.582  0.00  0.00     0.015 A 
ATOM      3  C   UNL d   1     -40.012  14.510  20.400  0.00  0.00     0.023 A 
ATOM      4  C   UNL d   1     -39.434  14.164  20.877  0.00  0.00     0.094 A 
ATOM      5  C   UNL d   1     -38.639  13.902  19.716  0.00  0.00     0.015 A 
ATOM      6  C   UNL d   1     -38.748  13.860  20.534  0.00  0.00     0.025 A 
ENDROOT
BRANCH   1   7
ATOM      7  S   UNL d   1     -39.109  14.290  18.422  0.00  0.00     0.272 S 
ATOM      8  O   UNL d   1     -39.626  13.654  18.320  0.00  0.00    -0.200 OA
ATOM      9  O   UNL d   1     -38.591  14.927  18.523  0.00  0.00    -0.200 OA
BRANCH   7  10
ATOM     10  N   UNL d   1     -39.001  14.332  17.607  0.00  0.00    -0.225 N 
ATOM     11  C   UNL d   1     -39.166  15.032  17.204  0.00  0.00     0.118 A 
ATOM     12  C   UNL d   1     -39.058  15.074  16.385  0.00  0.00     0.142 A 
ATOM     13  O   UNL d   1     -38.784  14.416  15.970  0.00  0.00    -0.300 OA
ATOM     14  C   UNL d   1     -38.619  13.715  16.373  0.00  0.00     0.142 A 
ATOM     15  C   UNL d   1     -38.727  13.673  17.192  0.00  0.00     0.118 A 
ENDBRANCH   7  10
ENDBRANCH   1   7
BRANCH   3  16
ATOM     16  C   UNL d   1     -40.698  14.813  20.743  0.00  0.00     0.002 C 
ATOM     17  C   UNL d   1     -41.242  14.301  21.093  0.00  0.00     0.000 C 
BRANCH  16  18
ATOM     18  C   UNL d   1     -40.840  15.627  20.736  0.00  0.00     0.000 C 
ATOM     19  C   UNL d   1     -41.583  15.919  20.946  0.00  0.00     0.000 C 
ENDBRANCH  16  18
ENDBRANCH   3  16
BRANCH   4  20
ATOM     20  O   UNL d   1     -39.543  14.122  21.695  0.00  0.00    -0.328 OA
ATOM     21  C   UNL d   1     -38.960  13.787  22.173  0.00  0.00     0.181 C 
ENDBRANCH   4  20
TORSDOF 5
ENDMDL
