MODEL 1
REMARK VINA RESULT:      -9.3      0.000      0.000
REMARK  2 active torsions:
REMARK  status: ('A' for Active; 'I' for Inactive)
REMARK    1  A    between atoms: C_6  and  C_4 
REMARK    2  A    between atoms: C_7  and  C_5 
ROOT
ATOM      1  O   UNL d   1      53.111  32.359  53.793  0.00  0.00    -0.268 OA
ATOM      2  N   UNL d   1      54.349  32.799  53.526  0.00  0.00    -0.121 NA
ATOM      3  N   UNL d   1      54.342  31.977  53.409  0.00  0.00    -0.121 NA
ATOM      4  C   UNL d   1      53.577  31.710  53.575  0.00  0.00     0.204 A 
ATOM      5  C   UNL d   1      53.600  33.028  53.759  0.00  0.00     0.204 A 
ENDROOT
BRANCH   4   6
ATOM      6  C   UNL d   1      53.314  30.923  53.532  0.00  0.00     0.046 A 
ATOM      7  C   UNL d   1      52.803  30.688  52.933  0.00  0.00     0.024 A 
ATOM      8  C   UNL d   1      52.547  29.915  52.894  0.00  0.00     0.099 A 
ATOM      9  N   UNL d   1      52.800  29.367  53.456  0.00  0.00    -0.242 NA
ATOM     10  C   UNL d   1      53.309  29.591  54.057  0.00  0.00     0.099 A 
ATOM     11  C   UNL d   1      53.567  30.374  54.094  0.00  0.00     0.024 A 
ENDBRANCH   4   6
BRANCH   5  12
ATOM     12  C   UNL d   1      53.358  33.805  53.935  0.00  0.00     0.043 A 
ATOM     13  C   UNL d   1      52.958  34.250  53.372  0.00  0.00     0.004 A 
ATOM     14  C   UNL d   1      52.720  35.015  53.547  0.00  0.00     0.000 A 
ATOM     15  C   UNL d   1      52.885  35.335  54.290  0.00  0.00     0.000 A 
ATOM     16  C   UNL d   1      53.286  34.890  54.854  0.00  0.00     0.000 A 
ATOM     17  C   UNL d   1      53.524  34.120  54.676  0.00  0.00     0.004 A 
ENDBRANCH   5  12
TORSDOF 2
ENDMDL
MODEL 2
REMARK VINA RESULT:      -9.2      0.843      3.912
REMARK  2 active torsions:
REMARK  status: ('A' for Active; 'I' for Inactive)
REMARK    1  A    between atoms: C_6  and  C_4 
REMARK    2  A    between atoms: C_7  and  C_5 
ROOT
ATOM      1  O   UNL d   1      53.145  32.576  53.855  0.00  0.00    -0.268 OA
ATOM      2  N   UNL d   1      54.390  32.227  53.502  0.00  0.00    -0.121 NA
ATOM      3  N   UNL d   1      54.390  33.042  53.659  0.00  0.00    -0.121 NA
ATOM      4  C   UNL d   1      53.622  33.253  53.876  0.00  0.00     0.204 A 
ATOM      5  C   UNL d   1      53.632  31.947  53.622  0.00  0.00     0.204 A 
ENDROOT
BRANCH   4   6
ATOM      6  C   UNL d   1      53.363  34.016  54.082  0.00  0.00     0.046 A 
ATOM      7  C   UNL d   1      52.951  34.475  53.540  0.00  0.00     0.024 A 
ATOM      8  C   UNL d   1      52.700  35.223  53.746  0.00  0.00     0.099 A 
ATOM      9  N   UNL d   1      52.858  35.520  54.499  0.00  0.00    -0.242 NA
ATOM     10  C   UNL d   1      53.268  35.070  55.047  0.00  0.00     0.099 A 
ATOM     11  C   UNL d   1      53.522  34.313  54.835  0.00  0.00     0.024 A 
ENDBRANCH   4   6
BRANCH   5  12
ATOM     12  C   UNL d   1      53.380  31.159  53.528  0.00  0.00     0.043 A 
ATOM     13  C   UNL d   1      52.880  30.956  52.907  0.00  0.00     0.004 A 
ATOM     14  C   UNL d   1      52.633  30.181  52.816  0.00  0.00     0.000 A 
ATOM     15  C   UNL d   1      52.888  29.604  53.348  0.00  0.00     0.000 A 
ATOM     16  C   UNL d   1      53.389  29.805  53.970  0.00  0.00     0.000 A 
ATOM     17  C   UNL d   1      53.637  30.587  54.060  0.00  0.00     0.004 A 
ENDBRANCH   5  12
TORSDOF 2
ENDMDL
MODEL 3
REMARK VINA RESULT:      -8.5      2.115      3.278
REMARK  2 active torsions:
REMARK  status: ('A' for Active; 'I' for Inactive)
REMARK    1  A    between atoms: C_6  and  C_4 
REMARK    2  A    between atoms: C_7  and  C_5 
ROOT
ATOM      1  O   UNL d   1      52.690  33.718  53.586  0.00  0.00    -0.268 OA
ATOM      2  N   UNL d   1      53.065  32.442  53.417  0.00  0.00    -0.121 NA
ATOM      3  N   UNL d   1      52.358  32.555  52.998  0.00  0.00    -0.121 NA
ATOM      4  C   UNL d   1      52.130  33.342  53.104  0.00  0.00     0.204 A 
ATOM      5  C   UNL d   1      53.264  33.150  53.774  0.00  0.00     0.204 A 
ENDROOT
BRANCH   4   6
ATOM      6  C   UNL d   1      51.453  33.703  52.784  0.00  0.00     0.046 A 
ATOM      7  C   UNL d   1      51.466  34.005  52.020  0.00  0.00     0.024 A 
ATOM      8  C   UNL d   1      50.800  34.358  51.709  0.00  0.00     0.099 A 
ATOM      9  N   UNL d   1      50.112  34.414  52.162  0.00  0.00    -0.242 NA
ATOM     10  C   UNL d   1      50.089  34.116  52.924  0.00  0.00     0.099 A 
ATOM     11  C   UNL d   1      50.765  33.759  53.236  0.00  0.00     0.024 A 
ENDBRANCH   4   6
BRANCH   5  12
ATOM     12  C   UNL d   1      53.933  33.288  54.250  0.00  0.00     0.043 A 
ATOM     13  C   UNL d   1      53.854  33.345  55.066  0.00  0.00     0.004 A 
ATOM     14  C   UNL d   1      54.513  33.481  55.533  0.00  0.00     0.000 A 
ATOM     15  C   UNL d   1      55.256  33.560  55.182  0.00  0.00     0.000 A 
ATOM     16  C   UNL d   1      55.336  33.502  54.364  0.00  0.00     0.000 A 
ATOM     17  C   UNL d   1      54.671  33.366  53.895  0.00  0.00     0.004 A 
ENDBRANCH   5  12
TORSDOF 2
ENDMDL
MODEL 4
REMARK VINA RESULT:      -8.4      2.113      3.131
REMARK  2 active torsions:
REMARK  status: ('A' for Active; 'I' for Inactive)
REMARK    1  A    between atoms: C_6  and  C_4 
REMARK    2  A    between atoms: C_7  and  C_5 
ROOT
ATOM      1  O   UNL d   1      52.693  33.671  53.642  0.00  0.00    -0.268 OA
ATOM      2  N   UNL d   1      52.550  32.646  52.791  0.00  0.00    -0.121 NA
ATOM      3  N   UNL d   1      53.236  32.510  53.238  0.00  0.00    -0.121 NA
ATOM      4  C   UNL d   1      53.321  33.143  53.761  0.00  0.00     0.204 A 
ATOM      5  C   UNL d   1      52.222  33.352  53.039  0.00  0.00     0.204 A 
ENDROOT
BRANCH   4   6
ATOM      6  C   UNL d   1      53.931  33.241  54.317  0.00  0.00     0.046 A 
ATOM      7  C   UNL d   1      53.860  32.924  55.072  0.00  0.00     0.024 A 
ATOM      8  C   UNL d   1      54.461  33.022  55.613  0.00  0.00     0.099 A 
ATOM      9  N   UNL d   1      55.142  33.440  55.406  0.00  0.00    -0.242 NA
ATOM     10  C   UNL d   1      55.222  33.760  54.656  0.00  0.00     0.099 A 
ATOM     11  C   UNL d   1      54.611  33.659  54.109  0.00  0.00     0.024 A 
ENDBRANCH   4   6
BRANCH   5  12
ATOM     12  C   UNL d   1      51.529  33.702  52.739  0.00  0.00     0.043 A 
ATOM     13  C   UNL d   1      50.846  33.722  53.197  0.00  0.00     0.004 A 
ATOM     14  C   UNL d   1      50.164  34.066  52.902  0.00  0.00     0.000 A 
ATOM     15  C   UNL d   1      50.165  34.393  52.144  0.00  0.00     0.000 A 
ATOM     16  C   UNL d   1      50.848  34.374  51.685  0.00  0.00     0.000 A 
ATOM     17  C   UNL d   1      51.534  34.027  51.984  0.00  0.00     0.004 A 
ENDBRANCH   5  12
TORSDOF 2
ENDMDL
