MODEL 1
REMARK VINA RESULT:      -3.3      0.000      0.000
REMARK  2 active torsions:
REMARK  status: ('A' for Active; 'I' for Inactive)
REMARK    1  A    between atoms: N_9  and  C_3 
REMARK    2  A    between atoms: C_11  and  C_5 
ROOT
ATOM      1  N   UNL d   1     -41.716-122.488 -51.882  0.00  0.00    -0.196 N 
ATOM      2  C   UNL d   1     -41.634-121.988 -52.532  0.00  0.00     0.167 A 
ATOM      3  C   UNL d   1     -41.602-122.196 -51.122  0.00  0.00     0.152 A 
ATOM      4  N   UNL d   1     -41.911-123.232 -52.162  0.00  0.00    -0.163 NA
ATOM      5  C   UNL d   1     -41.778-122.424 -53.213  0.00  0.00     0.055 A 
ATOM      6  C   UNL d   1     -41.949-123.192 -52.986  0.00  0.00     0.104 A 
ATOM      7  N   UNL d   1     -41.437-121.197 -52.423  0.00  0.00    -0.227 NA
ATOM      8  C   UNL d   1     -41.404-121.399 -51.006  0.00  0.00     0.057 A 
ATOM      9  C   UNL d   1     -41.322-120.900 -51.656  0.00  0.00     0.086 A 
ATOM     10  C   UNL d   1     -42.129-123.817 -53.494  0.00  0.00     0.023 C 
ATOM     11  C   UNL d   1     -41.123-120.098 -51.554  0.00  0.00     0.021 C 
ENDROOT
BRANCH   5  12
ATOM     12  C   UNL d   1     -41.776-122.224 -54.015  0.00  0.00     0.004 A 
ATOM     13  C   UNL d   1     -42.404-121.785 -54.331  0.00  0.00     0.000 A 
ATOM     14  C   UNL d   1     -42.403-121.585 -55.133  0.00  0.00     0.000 A 
ATOM     15  C   UNL d   1     -41.779-121.820 -55.618  0.00  0.00     0.000 A 
ATOM     16  C   UNL d   1     -41.150-122.260 -55.298  0.00  0.00     0.000 A 
ATOM     17  C   UNL d   1     -41.152-122.459 -54.500  0.00  0.00     0.000 A 
ENDBRANCH   5  12
BRANCH   3  18
ATOM     18  N   UNL d   1     -41.684-122.696 -50.471  0.00  0.00    -0.289 N 
ATOM     19  C   UNL d   1     -42.361-122.746 -50.003  0.00  0.00     0.082 A 
ATOM     20  C   UNL d   1     -42.228-123.307 -49.409  0.00  0.00     0.021 A 
ATOM     21  C   UNL d   1     -41.464-123.600 -49.517  0.00  0.00     0.021 A 
ATOM     22  C   UNL d   1     -41.126-123.235 -50.160  0.00  0.00     0.082 A 
ENDBRANCH   3  18
TORSDOF 2
ENDMDL
