MODEL 1
REMARK VINA RESULT:      85.9      0.000      0.000
REMARK  5 active torsions:
REMARK  status: ('A' for Active; 'I' for Inactive)
REMARK    1  A    between atoms: N_2  and  S_1 
REMARK    2  A    between atoms: C_6  and  S_1 
REMARK       I    between atoms: C_3  and  N_4 
REMARK    3  A    between atoms: C_5  and  C_3 
REMARK    4  A    between atoms: O_20  and  C_21 
REMARK    5  A    between atoms: C_24  and  O_20 
ROOT
ATOM      1  S   UNL d   1     -59.041 -99.086 -43.891  0.00  0.00     0.271 S 
ATOM      2  O   UNL d   1     -59.854 -99.028 -43.773  0.00  0.00    -0.200 OA
ATOM      3  O   UNL d   1     -58.910 -98.780 -43.138  0.00  0.00    -0.200 OA
ENDROOT
BRANCH   1   4
ATOM      4  N   UNL d   1     -59.169 -99.392 -44.646  0.00  0.00    -0.226 N 
ATOM      5  C   UNL d   1     -59.244 -98.893 -45.291  0.00  0.00     0.111 A 
ATOM      6  C   UNL d   1     -59.372 -99.202 -46.043  0.00  0.00     0.103 A 
ATOM      7  N   UNL d   1     -59.423-100.017 -46.141  0.00  0.00    -0.267 N 
ATOM      8  C   UNL d   1     -59.551-100.326 -46.893  0.00  0.00     0.288 C 
ATOM      9  C   UNL d   1     -59.350-100.521 -45.501  0.00  0.00     0.103 A 
ATOM     10  O   UNL d   1     -59.604-101.141 -47.002  0.00  0.00    -0.264 OA
ATOM     11  C   UNL d   1     -59.222-100.216 -44.745  0.00  0.00     0.111 A 
BRANCH   8  12
ATOM     12  C   UNL d   1     -59.627 -99.822 -47.544  0.00  0.00     0.156 A 
ATOM     13  O   UNL d   1     -59.388 -99.978 -48.321  0.00  0.00    -0.300 OA
ATOM     14  C   UNL d   1     -59.569 -99.326 -48.784  0.00  0.00     0.123 A 
ATOM     15  C   UNL d   1     -59.924 -98.755 -48.302  0.00  0.00     0.029 A 
ATOM     16  C   UNL d   1     -59.957 -99.067 -47.533  0.00  0.00     0.032 A 
ENDBRANCH   8  12
ENDBRANCH   1   4
BRANCH   1  17
ATOM     17  C   UNL d   1     -58.226 -99.142 -44.006  0.00  0.00     0.104 A 
ATOM     18  C   UNL d   1     -57.868 -98.811 -44.674  0.00  0.00     0.015 A 
ATOM     19  C   UNL d   1     -57.057 -98.871 -44.782  0.00  0.00     0.025 A 
ATOM     20  C   UNL d   1     -56.598 -99.262 -44.225  0.00  0.00     0.100 A 
ATOM     21  C   UNL d   1     -56.946 -99.597 -43.555  0.00  0.00     0.025 A 
ATOM     22  C   UNL d   1     -57.759 -99.538 -43.443  0.00  0.00     0.015 A 
BRANCH  20  23
ATOM     23  O   UNL d   1     -55.776 -99.321 -44.339  0.00  0.00    -0.307 OA
BRANCH  23  24
ATOM     24  C   UNL d   1     -55.432-100.065 -44.465  0.00  0.00     0.100 A 
ATOM     25  C   UNL d   1     -55.258-100.564 -43.824  0.00  0.00     0.025 A 
ATOM     26  C   UNL d   1     -54.916-101.303 -43.957  0.00  0.00     0.002 A 
ATOM     27  C   UNL d   1     -54.747-101.545 -44.727  0.00  0.00     0.000 A 
ATOM     28  C   UNL d   1     -54.922-101.046 -45.368  0.00  0.00     0.002 A 
ATOM     29  C   UNL d   1     -55.264-100.307 -45.236  0.00  0.00     0.025 A 
ENDBRANCH  23  24
ENDBRANCH  20  23
ENDBRANCH   1  17
TORSDOF 5
ENDMDL
