MODEL 1
REMARK VINA RESULT:       0.0      0.000      0.000
REMARK  9 active torsions:
REMARK  status: ('A' for Active; 'I' for Inactive)
REMARK    1  A    between atoms: C_8  and  S_1 
REMARK    2  A    between atoms: C_2  and  N_3 
REMARK    3  A    between atoms: N_4  and  C_2 
REMARK    4  A    between atoms: C_6  and  C_2 
REMARK    5  A    between atoms: N_3  and  C_5 
REMARK       I    between atoms: C_7  and  N_4 
REMARK    6  A    between atoms: C_5  and  N_9 
REMARK    7  A    between atoms: C_13  and  C_7 
REMARK    8  A    between atoms: N_9  and  C_23 
REMARK    9  A    between atoms: O_29  and  C_24 
ROOT
ATOM      1  C   UNL d   1     -41.585-122.317 -52.377  0.00  0.00     0.238 C 
ENDROOT
BRANCH   1   2
ATOM      2  N   UNL d   1     -41.276-122.768 -51.745  0.00  0.00    -0.188 NA
BRANCH   2   3
ATOM      3  C   UNL d   1     -41.543-123.374 -51.250  0.00  0.00     0.223 C 
ATOM      4  S   UNL d   1     -42.171-123.815 -51.451  0.00  0.00    -0.037 SA
BRANCH   3   5
ATOM      5  N   UNL d   1     -41.132-123.496 -50.550  0.00  0.00    -0.217 NA
BRANCH   5   6
ATOM      6  C   UNL d   1     -41.523-123.554 -49.828  0.00  0.00     0.084 A 
ATOM      7  C   UNL d   1     -42.312-123.757 -49.780  0.00  0.00     0.020 A 
ATOM      8  C   UNL d   1     -42.709-123.817 -49.067  0.00  0.00     0.015 A 
ATOM      9  C   UNL d   1     -42.299-123.668 -48.372  0.00  0.00     0.107 A 
ATOM     10  C   UNL d   1     -41.497-123.458 -48.383  0.00  0.00     0.015 A 
ATOM     11  C   UNL d   1     -41.124-123.406 -49.116  0.00  0.00     0.020 A 
BRANCH   9  12
ATOM     12  S   UNL d   1     -42.698-123.727 -47.636  0.00  0.00     0.302 S 
ATOM     13  O   UNL d   1     -43.424-123.722 -48.032  0.00  0.00    -0.197 OA
ATOM     14  O   UNL d   1     -41.961-123.731 -47.249  0.00  0.00    -0.197 OA
ATOM     15  N   UNL d   1     -43.087-123.786 -46.906  0.00  0.00    -0.043 N 
ENDBRANCH   9  12
ENDBRANCH   5   6
ENDBRANCH   3   5
ENDBRANCH   2   3
ENDBRANCH   1   2
BRANCH   1  16
ATOM     16  N   UNL d   1     -41.552-122.546 -52.967  0.00  0.00    -0.346 NA
ATOM     17  C   UNL d   1     -41.454-122.969 -53.689  0.00  0.00     0.329 C 
ATOM     18  O   UNL d   1     -41.138-123.758 -53.664  0.00  0.00    -0.251 OA
BRANCH  17  19
ATOM     19  C   UNL d   1     -41.663-122.611 -54.378  0.00  0.00     0.071 A 
ATOM     20  C   UNL d   1     -42.483-122.720 -54.671  0.00  0.00     0.008 A 
ATOM     21  C   UNL d   1     -42.723-122.359 -55.383  0.00  0.00     0.024 A 
ATOM     22  C   UNL d   1     -42.178-121.892 -55.817  0.00  0.00     0.094 A 
ATOM     23  C   UNL d   1     -41.425-121.814 -55.513  0.00  0.00     0.024 A 
ATOM     24  C   UNL d   1     -41.164-122.169 -54.799  0.00  0.00     0.008 A 
BRANCH  22  25
ATOM     25  O   UNL d   1     -42.447-121.542 -56.528  0.00  0.00    -0.328 OA
ATOM     26  C   UNL d   1     -41.921-121.106 -57.017  0.00  0.00     0.181 C 
ENDBRANCH  22  25
ENDBRANCH  17  19
ENDBRANCH   1  16
BRANCH   1  27
ATOM     27  C   UNL d   1     -41.925-121.591 -52.225  0.00  0.00     0.262 C 
ATOM     28 CL   UNL d   1     -42.269-120.864 -52.075  0.00  0.00    -0.074 Cl
ATOM     29 CL   UNL d   1     -41.163-121.275 -52.021  0.00  0.00    -0.074 Cl
ATOM     30 CL   UNL d   1     -42.665-121.900 -52.425  0.00  0.00    -0.074 Cl
ENDBRANCH   1  27
TORSDOF 9
ENDMDL
