MODEL 1
REMARK VINA RESULT:      -7.2      0.000      0.000
REMARK  7 active torsions:
REMARK  status: ('A' for Active; 'I' for Inactive)
REMARK    1  A    between atoms: N_2  and  S_1 
REMARK    2  A    between atoms: C_3  and  S_1 
REMARK    3  A    between atoms: C_16  and  N_2 
REMARK    4  A    between atoms: C_4  and  C_10 
REMARK       I    between atoms: N_7  and  C_4 
REMARK    5  A    between atoms: C_17  and  N_7 
REMARK    6  A    between atoms: C_9  and  C_17 
REMARK    7  A    between atoms: O_23  and  C_20 
ROOT
ATOM      1  C   UNL d   1     -46.080  13.408  22.370  0.00  0.00     0.058 A 
ATOM      2  C   UNL d   1     -47.580  14.093  22.376  0.00  0.00     0.094 A 
ATOM      3  C   UNL d   1     -46.622  13.226  21.776  0.00  0.00     0.006 A 
ATOM      4  C   UNL d   1     -46.290  13.936  22.969  0.00  0.00     0.006 A 
ATOM      5  C   UNL d   1     -47.374  13.567  21.777  0.00  0.00     0.020 A 
ATOM      6  C   UNL d   1     -47.037  14.281  22.977  0.00  0.00     0.020 A 
ENDROOT
BRANCH   2   7
ATOM      7  N   UNL d   1     -48.324  14.435  22.382  0.00  0.00    -0.158 NA
BRANCH   7   8
ATOM      8  S   UNL d   1     -48.964  14.021  22.703  0.00  0.00     0.285 S 
ATOM      9  O   UNL d   1     -49.267  13.898  21.941  0.00  0.00    -0.198 OA
ATOM     10  O   UNL d   1     -48.668  14.139  23.459  0.00  0.00    -0.198 OA
BRANCH   8  11
ATOM     11  C   UNL d   1     -49.602  13.608  23.016  0.00  0.00     0.107 A 
ATOM     12  C   UNL d   1     -49.625  12.786  22.963  0.00  0.00     0.037 A 
ATOM     13  C   UNL d   1     -50.266  12.361  23.277  0.00  0.00     0.095 A 
ATOM     14  C   UNL d   1     -50.881  12.770  23.643  0.00  0.00     0.024 A 
ATOM     15  C   UNL d   1     -50.861  13.593  23.698  0.00  0.00     0.003 A 
ATOM     16  C   UNL d   1     -50.221  14.013  23.384  0.00  0.00     0.013 A 
BRANCH  13  17
ATOM     17  O   UNL d   1     -50.289  11.526  23.223  0.00  0.00    -0.328 OA
ATOM     18  C   UNL d   1     -49.769  11.072  23.682  0.00  0.00     0.181 C 
ENDBRANCH  13  17
ENDBRANCH   8  11
ENDBRANCH   7   8
ENDBRANCH   2   7
BRANCH   1  19
ATOM     19  C   UNL d   1     -45.320  13.064  22.370  0.00  0.00     0.279 C 
ATOM     20  N   UNL d   1     -45.217  12.302  22.659  0.00  0.00    -0.204 NA
ATOM     21  O   UNL d   1     -44.669  13.490  22.079  0.00  0.00    -0.265 OA
BRANCH  20  22
ATOM     22  C   UNL d   1     -44.461  11.958  22.660  0.00  0.00     0.127 C 
BRANCH  22  23
ATOM     23  C   UNL d   1     -44.342  11.219  23.027  0.00  0.00     0.119 A 
ATOM     24  O   UNL d   1     -44.909  10.783  23.429  0.00  0.00    -0.304 OA
ATOM     25  C   UNL d   1     -44.547  10.096  23.698  0.00  0.00     0.123 A 
ATOM     26  C   UNL d   1     -43.768  10.113  23.462  0.00  0.00     0.029 A 
ATOM     27  C   UNL d   1     -43.639  10.810  23.046  0.00  0.00     0.028 A 
ENDBRANCH  22  23
ENDBRANCH  20  22
ENDBRANCH   1  19
TORSDOF 7
ENDMDL
MODEL 2
REMARK VINA RESULT:      -5.8      8.177      9.926
REMARK  7 active torsions:
REMARK  status: ('A' for Active; 'I' for Inactive)
REMARK    1  A    between atoms: N_2  and  S_1 
REMARK    2  A    between atoms: C_3  and  S_1 
REMARK    3  A    between atoms: C_16  and  N_2 
REMARK    4  A    between atoms: C_4  and  C_10 
REMARK       I    between atoms: N_7  and  C_4 
REMARK    5  A    between atoms: C_17  and  N_7 
REMARK    6  A    between atoms: C_9  and  C_17 
REMARK    7  A    between atoms: O_23  and  C_20 
ROOT
ATOM      1  C   UNL d   1     -40.099  15.247  20.400  0.00  0.00     0.058 A 
ATOM      2  C   UNL d   1     -40.190  15.037  18.767  0.00  0.00     0.094 A 
ATOM      3  C   UNL d   1     -40.531  14.619  20.086  0.00  0.00     0.006 A 
ATOM      4  C   UNL d   1     -39.712  15.772  19.894  0.00  0.00     0.006 A 
ATOM      5  C   UNL d   1     -40.578  14.511  19.268  0.00  0.00     0.020 A 
ATOM      6  C   UNL d   1     -39.753  15.672  19.078  0.00  0.00     0.020 A 
ENDROOT
BRANCH   2   7
ATOM      7  N   UNL d   1     -40.233  14.935  17.955  0.00  0.00    -0.158 NA
BRANCH   7   8
ATOM      8  S   UNL d   1     -39.656  14.487  17.566  0.00  0.00     0.285 S 
ATOM      9  O   UNL d   1     -40.121  13.808  17.658  0.00  0.00    -0.198 OA
ATOM     10  O   UNL d   1     -39.191  15.158  17.473  0.00  0.00    -0.198 OA
BRANCH   8  11
ATOM     11  C   UNL d   1     -39.087  14.037  17.181  0.00  0.00     0.107 A 
ATOM     12  C   UNL d   1     -38.817  14.267  16.437  0.00  0.00     0.037 A 
ATOM     13  C   UNL d   1     -38.242  13.817  16.039  0.00  0.00     0.095 A 
ATOM     14  C   UNL d   1     -37.942  13.139  16.397  0.00  0.00     0.024 A 
ATOM     15  C   UNL d   1     -38.209  12.906  17.143  0.00  0.00     0.003 A 
ATOM     16  C   UNL d   1     -38.782  13.356  17.535  0.00  0.00     0.013 A 
BRANCH  13  17
ATOM     17  O   UNL d   1     -37.968  14.051  15.284  0.00  0.00    -0.328 OA
ATOM     18  C   UNL d   1     -38.156  13.589  14.620  0.00  0.00     0.181 C 
ENDBRANCH  13  17
ENDBRANCH   8  11
ENDBRANCH   7   8
ENDBRANCH   2   7
BRANCH   1  19
ATOM     19  C   UNL d   1     -40.051  15.357  21.226  0.00  0.00     0.279 C 
ATOM     20  N   UNL d   1     -39.482  14.953  21.659  0.00  0.00    -0.204 NA
ATOM     21  O   UNL d   1     -40.577  15.873  21.609  0.00  0.00    -0.265 OA
BRANCH  20  22
ATOM     22  C   UNL d   1     -39.433  15.062  22.481  0.00  0.00     0.127 C 
BRANCH  22  23
ATOM     23  C   UNL d   1     -38.958  14.552  22.939  0.00  0.00     0.119 A 
ATOM     24  O   UNL d   1     -38.190  14.701  23.187  0.00  0.00    -0.304 OA
ATOM     25  C   UNL d   1     -37.941  14.050  23.622  0.00  0.00     0.123 A 
ATOM     26  C   UNL d   1     -38.550  13.509  23.639  0.00  0.00     0.029 A 
ATOM     27  C   UNL d   1     -39.182  13.821  23.215  0.00  0.00     0.028 A 
ENDBRANCH  22  23
ENDBRANCH  20  22
ENDBRANCH   1  19
TORSDOF 7
ENDMDL
MODEL 3
REMARK VINA RESULT:      -5.8      2.318      3.121
REMARK  7 active torsions:
REMARK  status: ('A' for Active; 'I' for Inactive)
REMARK    1  A    between atoms: N_2  and  S_1 
REMARK    2  A    between atoms: C_3  and  S_1 
REMARK    3  A    between atoms: C_16  and  N_2 
REMARK    4  A    between atoms: C_4  and  C_10 
REMARK       I    between atoms: N_7  and  C_4 
REMARK    5  A    between atoms: C_17  and  N_7 
REMARK    6  A    between atoms: C_9  and  C_17 
REMARK    7  A    between atoms: O_23  and  C_20 
ROOT
ATOM      1  C   UNL d   1     -44.342  12.971  21.871  0.00  0.00     0.058 A 
ATOM      2  C   UNL d   1     -45.704  13.060  22.796  0.00  0.00     0.094 A 
ATOM      3  C   UNL d   1     -44.808  13.651  21.859  0.00  0.00     0.006 A 
ATOM      4  C   UNL d   1     -44.559  12.334  22.348  0.00  0.00     0.006 A 
ATOM      5  C   UNL d   1     -45.491  13.698  22.321  0.00  0.00     0.020 A 
ATOM      6  C   UNL d   1     -45.238  12.372  22.813  0.00  0.00     0.020 A 
ENDROOT
BRANCH   2   7
ATOM      7  N   UNL d   1     -46.380  13.101  23.257  0.00  0.00    -0.158 NA
BRANCH   7   8
ATOM      8  S   UNL d   1     -47.107  12.863  22.941  0.00  0.00     0.285 S 
ATOM      9  O   UNL d   1     -46.936  12.077  23.139  0.00  0.00    -0.198 OA
ATOM     10  O   UNL d   1     -47.282  13.640  22.743  0.00  0.00    -0.198 OA
BRANCH   8  11
ATOM     11  C   UNL d   1     -47.828  12.620  22.629  0.00  0.00     0.107 A 
ATOM     12  C   UNL d   1     -48.341  12.165  23.086  0.00  0.00     0.037 A 
ATOM     13  C   UNL d   1     -49.072  11.916  22.778  0.00  0.00     0.095 A 
ATOM     14  C   UNL d   1     -49.279  12.129  22.010  0.00  0.00     0.024 A 
ATOM     15  C   UNL d   1     -48.769  12.585  21.550  0.00  0.00     0.003 A 
ATOM     16  C   UNL d   1     -48.042  12.831  21.859  0.00  0.00     0.013 A 
BRANCH  13  17
ATOM     17  O   UNL d   1     -49.592  11.454  23.243  0.00  0.00    -0.328 OA
ATOM     18  C   UNL d   1     -50.339  11.755  23.442  0.00  0.00     0.181 C 
ENDBRANCH  13  17
ENDBRANCH   8  11
ENDBRANCH   7   8
ENDBRANCH   2   7
BRANCH   1  19
ATOM     19  C   UNL d   1     -43.652  12.923  21.405  0.00  0.00     0.279 C 
ATOM     20  N   UNL d   1     -43.074  13.503  21.469  0.00  0.00    -0.204 NA
ATOM     21  O   UNL d   1     -43.549  12.290  20.877  0.00  0.00    -0.265 OA
BRANCH  20  22
ATOM     22  C   UNL d   1     -42.386  13.455  21.005  0.00  0.00     0.127 C 
BRANCH  22  23
ATOM     23  C   UNL d   1     -41.837  14.083  21.012  0.00  0.00     0.119 A 
ATOM     24  O   UNL d   1     -42.019  14.883  21.020  0.00  0.00    -0.304 OA
ATOM     25  C   UNL d   1     -41.309  15.297  21.024  0.00  0.00     0.123 A 
ATOM     26  C   UNL d   1     -40.701  14.755  21.019  0.00  0.00     0.029 A 
ATOM     27  C   UNL d   1     -41.029  14.001  21.011  0.00  0.00     0.028 A 
ENDBRANCH  22  23
ENDBRANCH  20  22
ENDBRANCH   1  19
TORSDOF 7
ENDMDL
MODEL 4
REMARK VINA RESULT:      -5.8      1.157      1.761
REMARK  7 active torsions:
REMARK  status: ('A' for Active; 'I' for Inactive)
REMARK    1  A    between atoms: N_2  and  S_1 
REMARK    2  A    between atoms: C_3  and  S_1 
REMARK    3  A    between atoms: C_16  and  N_2 
REMARK    4  A    between atoms: C_4  and  C_10 
REMARK       I    between atoms: N_7  and  C_4 
REMARK    5  A    between atoms: C_17  and  N_7 
REMARK    6  A    between atoms: C_9  and  C_17 
REMARK    7  A    between atoms: O_23  and  C_20 
ROOT
ATOM      1  C   UNL d   1     -46.155  13.314  22.583  0.00  0.00     0.058 A 
ATOM      2  C   UNL d   1     -47.462  14.315  22.486  0.00  0.00     0.094 A 
ATOM      3  C   UNL d   1     -46.144  14.048  22.957  0.00  0.00     0.006 A 
ATOM      4  C   UNL d   1     -46.823  13.080  22.158  0.00  0.00     0.006 A 
ATOM      5  C   UNL d   1     -46.797  14.551  22.911  0.00  0.00     0.020 A 
ATOM      6  C   UNL d   1     -47.479  13.575  22.106  0.00  0.00     0.020 A 
ENDROOT
BRANCH   2   7
ATOM      7  N   UNL d   1     -48.113  14.809  22.436  0.00  0.00    -0.158 NA
BRANCH   7   8
ATOM      8  S   UNL d   1     -48.854  14.539  22.685  0.00  0.00     0.285 S 
ATOM      9  O   UNL d   1     -48.697  14.811  23.451  0.00  0.00    -0.198 OA
ATOM     10  O   UNL d   1     -49.015  14.267  21.927  0.00  0.00    -0.198 OA
BRANCH   8  11
ATOM     11  C   UNL d   1     -49.590  14.272  22.937  0.00  0.00     0.107 A 
ATOM     12  C   UNL d   1     -49.680  13.492  23.187  0.00  0.00     0.037 A 
ATOM     13  C   UNL d   1     -50.420  13.214  23.444  0.00  0.00     0.095 A 
ATOM     14  C   UNL d   1     -51.064  13.727  23.446  0.00  0.00     0.024 A 
ATOM     15  C   UNL d   1     -50.978  14.509  23.196  0.00  0.00     0.003 A 
ATOM     16  C   UNL d   1     -50.240  14.782  22.941  0.00  0.00     0.013 A 
BRANCH  13  17
ATOM     17  O   UNL d   1     -50.511  12.422  23.698  0.00  0.00    -0.328 OA
ATOM     18  C   UNL d   1     -50.659  11.828  23.138  0.00  0.00     0.181 C 
ENDBRANCH  13  17
ENDBRANCH   8  11
ENDBRANCH   7   8
ENDBRANCH   2   7
BRANCH   1  19
ATOM     19  C   UNL d   1     -45.495  12.805  22.629  0.00  0.00     0.279 C 
ATOM     20  N   UNL d   1     -44.854  12.921  22.130  0.00  0.00    -0.204 NA
ATOM     21  O   UNL d   1     -45.488  12.182  23.178  0.00  0.00    -0.265 OA
BRANCH  20  22
ATOM     22  C   UNL d   1     -44.197  12.415  22.175  0.00  0.00     0.127 C 
BRANCH  22  23
ATOM     23  C   UNL d   1     -43.494  12.609  21.770  0.00  0.00     0.119 A 
ATOM     24  O   UNL d   1     -42.730  12.490  22.045  0.00  0.00    -0.304 OA
ATOM     25  C   UNL d   1     -42.215  12.763  21.466  0.00  0.00     0.123 A 
ATOM     26  C   UNL d   1     -42.660  13.046  20.845  0.00  0.00     0.029 A 
ATOM     27  C   UNL d   1     -43.455  12.950  21.034  0.00  0.00     0.028 A 
ENDBRANCH  22  23
ENDBRANCH  20  22
ENDBRANCH   1  19
TORSDOF 7
ENDMDL
MODEL 5
REMARK VINA RESULT:      -5.6      8.006      9.524
REMARK  7 active torsions:
REMARK  status: ('A' for Active; 'I' for Inactive)
REMARK    1  A    between atoms: N_2  and  S_1 
REMARK    2  A    between atoms: C_3  and  S_1 
REMARK    3  A    between atoms: C_16  and  N_2 
REMARK    4  A    between atoms: C_4  and  C_10 
REMARK       I    between atoms: N_7  and  C_4 
REMARK    5  A    between atoms: C_17  and  N_7 
REMARK    6  A    between atoms: C_9  and  C_17 
REMARK    7  A    between atoms: O_23  and  C_20 
ROOT
ATOM      1  C   UNL d   1     -40.442  15.149  18.428  0.00  0.00     0.058 A 
ATOM      2  C   UNL d   1     -40.667  15.205  20.061  0.00  0.00     0.094 A 
ATOM      3  C   UNL d   1     -40.434  15.873  18.824  0.00  0.00     0.006 A 
ATOM      4  C   UNL d   1     -40.563  14.451  18.852  0.00  0.00     0.006 A 
ATOM      5  C   UNL d   1     -40.546  15.903  19.641  0.00  0.00     0.020 A 
ATOM      6  C   UNL d   1     -40.676  14.473  19.667  0.00  0.00     0.020 A 
ENDROOT
BRANCH   2   7
ATOM      7  N   UNL d   1     -40.779  15.229  20.872  0.00  0.00    -0.158 NA
BRANCH   7   8
ATOM      8  S   UNL d   1     -40.137  15.104  21.379  0.00  0.00     0.285 S 
ATOM      9  O   UNL d   1     -40.305  14.293  21.392  0.00  0.00    -0.198 OA
ATOM     10  O   UNL d   1     -39.967  15.907  21.370  0.00  0.00    -0.198 OA
BRANCH   8  11
ATOM     11  C   UNL d   1     -39.501  14.974  21.883  0.00  0.00     0.107 A 
ATOM     12  C   UNL d   1     -39.385  14.228  22.213  0.00  0.00     0.037 A 
ATOM     13  C   UNL d   1     -38.744  14.088  22.724  0.00  0.00     0.095 A 
ATOM     14  C   UNL d   1     -38.225  14.704  22.897  0.00  0.00     0.024 A 
ATOM     15  C   UNL d   1     -38.338  15.452  22.569  0.00  0.00     0.003 A 
ATOM     16  C   UNL d   1     -38.977  15.588  22.060  0.00  0.00     0.013 A 
BRANCH  13  17
ATOM     17  O   UNL d   1     -38.627  13.331  23.059  0.00  0.00    -0.328 OA
ATOM     18  C   UNL d   1     -37.943  13.183  23.505  0.00  0.00     0.181 C 
ENDBRANCH  13  17
ENDBRANCH   8  11
ENDBRANCH   7   8
ENDBRANCH   2   7
BRANCH   1  19
ATOM     19  C   UNL d   1     -40.328  15.117  17.602  0.00  0.00     0.279 C 
ATOM     20  N   UNL d   1     -39.654  14.761  17.296  0.00  0.00    -0.204 NA
ATOM     21  O   UNL d   1     -40.895  15.443  17.090  0.00  0.00    -0.265 OA
BRANCH  20  22
ATOM     22  C   UNL d   1     -39.540  14.729  16.474  0.00  0.00     0.127 C 
BRANCH  22  23
ATOM     23  C   UNL d   1     -38.905  14.289  16.160  0.00  0.00     0.119 A 
ATOM     24  O   UNL d   1     -38.553  14.404  15.427  0.00  0.00    -0.304 OA
ATOM     25  C   UNL d   1     -37.953  13.847  15.352  0.00  0.00     0.123 A 
ATOM     26  C   UNL d   1     -37.940  13.397  16.031  0.00  0.00     0.029 A 
ATOM     27  C   UNL d   1     -38.530  13.671  16.533  0.00  0.00     0.028 A 
ENDBRANCH  22  23
ENDBRANCH  20  22
ENDBRANCH   1  19
TORSDOF 7
ENDMDL
MODEL 6
REMARK VINA RESULT:      -5.3      1.567      2.441
REMARK  7 active torsions:
REMARK  status: ('A' for Active; 'I' for Inactive)
REMARK    1  A    between atoms: N_2  and  S_1 
REMARK    2  A    between atoms: C_3  and  S_1 
REMARK    3  A    between atoms: C_16  and  N_2 
REMARK    4  A    between atoms: C_4  and  C_10 
REMARK       I    between atoms: N_7  and  C_4 
REMARK    5  A    between atoms: C_17  and  N_7 
REMARK    6  A    between atoms: C_9  and  C_17 
REMARK    7  A    between atoms: O_23  and  C_20 
ROOT
ATOM      1  C   UNL d   1     -46.565  11.689  23.427  0.00  0.00     0.058 A 
ATOM      2  C   UNL d   1     -48.191  11.896  23.607  0.00  0.00     0.094 A 
ATOM      3  C   UNL d   1     -47.076  11.045  23.355  0.00  0.00     0.006 A 
ATOM      4  C   UNL d   1     -46.870  12.438  23.590  0.00  0.00     0.006 A 
ATOM      5  C   UNL d   1     -47.891  11.147  23.444  0.00  0.00     0.020 A 
ATOM      6  C   UNL d   1     -47.681  12.548  23.681  0.00  0.00     0.020 A 
ENDROOT
BRANCH   2   7
ATOM      7  N   UNL d   1     -48.998  12.003  23.697  0.00  0.00    -0.158 NA
BRANCH   7   8
ATOM      8  S   UNL d   1     -49.411  12.482  23.164  0.00  0.00     0.285 S 
ATOM      9  O   UNL d   1     -49.560  11.822  22.686  0.00  0.00    -0.198 OA
ATOM     10  O   UNL d   1     -49.267  13.139  23.634  0.00  0.00    -0.198 OA
BRANCH   8  11
ATOM     11  C   UNL d   1     -49.823  12.953  22.631  0.00  0.00     0.107 A 
ATOM     12  C   UNL d   1     -49.903  13.760  22.773  0.00  0.00     0.037 A 
ATOM     13  C   UNL d   1     -50.317  14.244  22.239  0.00  0.00     0.095 A 
ATOM     14  C   UNL d   1     -50.648  13.907  21.564  0.00  0.00     0.024 A 
ATOM     15  C   UNL d   1     -50.570  13.099  21.418  0.00  0.00     0.003 A 
ATOM     16  C   UNL d   1     -50.157  12.620  21.951  0.00  0.00     0.013 A 
BRANCH  13  17
ATOM     17  O   UNL d   1     -50.398  15.064  22.384  0.00  0.00    -0.328 OA
ATOM     18  C   UNL d   1     -50.699  15.322  23.113  0.00  0.00     0.181 C 
ENDBRANCH  13  17
ENDBRANCH   8  11
ENDBRANCH   7   8
ENDBRANCH   2   7
BRANCH   1  19
ATOM     19  C   UNL d   1     -45.742  11.587  23.336  0.00  0.00     0.279 C 
ATOM     20  N   UNL d   1     -45.311  12.125  22.889  0.00  0.00    -0.204 NA
ATOM     21  O   UNL d   1     -45.358  10.945  23.698  0.00  0.00    -0.265 OA
BRANCH  20  22
ATOM     22  C   UNL d   1     -44.491  12.025  22.798  0.00  0.00     0.127 C 
BRANCH  22  23
ATOM     23  C   UNL d   1     -44.096  12.395  22.164  0.00  0.00     0.119 A 
ATOM     24  O   UNL d   1     -44.305  13.109  21.816  0.00  0.00    -0.304 OA
ATOM     25  C   UNL d   1     -43.763  13.258  21.216  0.00  0.00     0.123 A 
ATOM     26  C   UNL d   1     -43.230  12.643  21.199  0.00  0.00     0.029 A 
ATOM     27  C   UNL d   1     -43.436  12.107  21.787  0.00  0.00     0.028 A 
ENDBRANCH  22  23
ENDBRANCH  20  22
ENDBRANCH   1  19
TORSDOF 7
ENDMDL
MODEL 7
REMARK VINA RESULT:      -4.8      4.905      7.822
REMARK  7 active torsions:
REMARK  status: ('A' for Active; 'I' for Inactive)
REMARK    1  A    between atoms: N_2  and  S_1 
REMARK    2  A    between atoms: C_3  and  S_1 
REMARK    3  A    between atoms: C_16  and  N_2 
REMARK    4  A    between atoms: C_4  and  C_10 
REMARK       I    between atoms: N_7  and  C_4 
REMARK    5  A    between atoms: C_17  and  N_7 
REMARK    6  A    between atoms: C_9  and  C_17 
REMARK    7  A    between atoms: O_23  and  C_20 
ROOT
ATOM      1  C   UNL d   1     -42.583  13.441  21.266  0.00  0.00     0.058 A 
ATOM      2  C   UNL d   1     -41.270  14.345  20.848  0.00  0.00     0.094 A 
ATOM      3  C   UNL d   1     -42.672  14.239  21.081  0.00  0.00     0.006 A 
ATOM      4  C   UNL d   1     -41.835  13.094  21.242  0.00  0.00     0.006 A 
ATOM      5  C   UNL d   1     -42.015  14.695  20.872  0.00  0.00     0.020 A 
ATOM      6  C   UNL d   1     -41.175  13.540  21.034  0.00  0.00     0.020 A 
ENDROOT
BRANCH   2   7
ATOM      7  N   UNL d   1     -40.615  14.792  20.641  0.00  0.00    -0.158 NA
BRANCH   7   8
ATOM      8  S   UNL d   1     -40.416  14.882  19.844  0.00  0.00     0.285 S 
ATOM      9  O   UNL d   1     -40.019  14.155  19.859  0.00  0.00    -0.198 OA
ATOM     10  O   UNL d   1     -40.807  15.604  19.822  0.00  0.00    -0.198 OA
BRANCH   8  11
ATOM     11  C   UNL d   1     -40.214  14.967  19.051  0.00  0.00     0.107 A 
ATOM     12  C   UNL d   1     -40.803  14.957  18.475  0.00  0.00     0.037 A 
ATOM     13  C   UNL d   1     -40.608  15.042  17.671  0.00  0.00     0.095 A 
ATOM     14  C   UNL d   1     -39.820  15.137  17.456  0.00  0.00     0.024 A 
ATOM     15  C   UNL d   1     -39.227  15.148  18.030  0.00  0.00     0.003 A 
ATOM     16  C   UNL d   1     -39.424  15.063  18.829  0.00  0.00     0.013 A 
BRANCH  13  17
ATOM     17  O   UNL d   1     -41.207  15.032  17.087  0.00  0.00    -0.328 OA
ATOM     18  C   UNL d   1     -41.238  15.640  16.523  0.00  0.00     0.181 C 
ENDBRANCH  13  17
ENDBRANCH   8  11
ENDBRANCH   7   8
ENDBRANCH   2   7
BRANCH   1  19
ATOM     19  C   UNL d   1     -43.246  12.979  21.478  0.00  0.00     0.279 C 
ATOM     20  N   UNL d   1     -43.944  13.348  21.705  0.00  0.00    -0.204 NA
ATOM     21  O   UNL d   1     -43.200  12.150  21.460  0.00  0.00    -0.265 OA
BRANCH  20  22
ATOM     22  C   UNL d   1     -44.604  12.889  21.916  0.00  0.00     0.127 C 
BRANCH  22  23
ATOM     23  C   UNL d   1     -45.293  13.262  22.205  0.00  0.00     0.119 A 
ATOM     24  O   UNL d   1     -45.325  13.992  22.578  0.00  0.00    -0.304 OA
ATOM     25  C   UNL d   1     -46.112  14.137  22.767  0.00  0.00     0.123 A 
ATOM     26  C   UNL d   1     -46.554  13.502  22.512  0.00  0.00     0.029 A 
ATOM     27  C   UNL d   1     -46.045  12.958  22.163  0.00  0.00     0.028 A 
ENDBRANCH  22  23
ENDBRANCH  20  22
ENDBRANCH   1  19
TORSDOF 7
ENDMDL
