MODEL 1
REMARK VINA RESULT:      34.5      0.000      0.000
REMARK  5 active torsions:
REMARK  status: ('A' for Active; 'I' for Inactive)
REMARK    1  A    between atoms: N_2  and  C_7 
REMARK    2  A    between atoms: N_6  and  C_3 
REMARK    3  A    between atoms: N_8  and  N_6 
REMARK    4  A    between atoms: C_15  and  N_8 
REMARK    5  A    between atoms: C_16  and  C_15 
ROOT
ATOM      1  C   UNL d   1      61.175  48.978  51.003  0.00  0.00     0.127 A 
ATOM      2  C   UNL d   1      61.079  49.466  50.346  0.00  0.00     0.024 A 
ATOM      3  C   UNL d   1      60.503  48.733  51.418  0.00  0.00     0.024 A 
ATOM      4  C   UNL d   1      59.667  49.463  50.518  0.00  0.00     0.021 A 
ATOM      5  C   UNL d   1      59.751  48.979  51.171  0.00  0.00     0.003 A 
ATOM      6  C   UNL d   1      60.323  49.701  50.115  0.00  0.00     0.003 A 
ENDROOT
BRANCH   4   7
ATOM      7  C   UNL d   1      58.917  49.708  50.273  0.00  0.00     0.122 C 
BRANCH   7   8
ATOM      8  N   UNL d   1      58.258  49.267  50.477  0.00  0.00    -0.144 NA
BRANCH   8   9
ATOM      9  N   UNL d   1      57.489  49.618  50.411  0.00  0.00    -0.121 NA
BRANCH   9  10
ATOM     10  C   UNL d   1      56.960  49.284  49.852  0.00  0.00     0.217 A 
ATOM     11  N   UNL d   1      56.864  48.493  49.757  0.00  0.00    -0.181 NA
ATOM     12  C   UNL d   1      56.299  48.368  49.159  0.00  0.00     0.288 A 
ATOM     13  O   UNL d   1      56.058  47.604  48.910  0.00  0.00    -0.265 OA
ATOM     14  C   UNL d   1      56.048  49.086  48.887  0.00  0.00     0.101 A 
ATOM     15  S   UNL d   1      56.464  49.660  49.323  0.00  0.00    -0.041 SA
ENDBRANCH   9  10
ENDBRANCH   8   9
ENDBRANCH   7   8
ENDBRANCH   4   7
BRANCH   1  16
ATOM     16  N   UNL d   1      61.893  48.734  51.251  0.00  0.00    -0.114 N 
ATOM     17  O   UNL d   1      62.284  48.064  50.956  0.00  0.00    -0.532 OA
ATOM     18  O   UNL d   1      62.351  49.084  51.815  0.00  0.00    -0.532 OA
ENDBRANCH   1  16
TORSDOF 5
ENDMDL
MODEL 2
REMARK VINA RESULT:      35.6      1.886      4.809
REMARK  5 active torsions:
REMARK  status: ('A' for Active; 'I' for Inactive)
REMARK    1  A    between atoms: N_2  and  C_7 
REMARK    2  A    between atoms: N_6  and  C_3 
REMARK    3  A    between atoms: N_8  and  N_6 
REMARK    4  A    between atoms: C_15  and  N_8 
REMARK    5  A    between atoms: C_16  and  C_15 
ROOT
ATOM      1  C   UNL d   1      57.350  49.528  49.989  0.00  0.00     0.127 A 
ATOM      2  C   UNL d   1      57.808  49.542  49.304  0.00  0.00     0.024 A 
ATOM      3  C   UNL d   1      57.730  49.572  50.722  0.00  0.00     0.024 A 
ATOM      4  C   UNL d   1      59.001  49.640  50.072  0.00  0.00     0.021 A 
ATOM      5  C   UNL d   1      58.557  49.627  50.757  0.00  0.00     0.003 A 
ATOM      6  C   UNL d   1      58.629  49.598  49.358  0.00  0.00     0.003 A 
ENDROOT
BRANCH   4   7
ATOM      7  C   UNL d   1      59.825  49.695  50.108  0.00  0.00     0.122 C 
BRANCH   7   8
ATOM      8  N   UNL d   1      60.207  49.608  50.826  0.00  0.00    -0.144 NA
BRANCH   8   9
ATOM      9  N   UNL d   1      60.983  49.267  50.844  0.00  0.00    -0.121 NA
BRANCH   9  10
ATOM     10  C   UNL d   1      61.299  49.065  51.594  0.00  0.00     0.217 A 
ATOM     11  N   UNL d   1      61.696  49.585  52.058  0.00  0.00    -0.181 NA
ATOM     12  C   UNL d   1      61.926  49.192  52.754  0.00  0.00     0.288 A 
ATOM     13  O   UNL d   1      62.355  49.568  53.370  0.00  0.00    -0.265 OA
ATOM     14  C   UNL d   1      61.668  48.428  52.716  0.00  0.00     0.101 A 
ATOM     15  S   UNL d   1      61.274  48.349  51.987  0.00  0.00    -0.041 SA
ENDBRANCH   9  10
ENDBRANCH   8   9
ENDBRANCH   7   8
ENDBRANCH   4   7
BRANCH   1  16
ATOM     16  N   UNL d   1      56.554  49.475  49.969  0.00  0.00    -0.114 N 
ATOM     17  O   UNL d   1      56.065  49.567  50.633  0.00  0.00    -0.532 OA
ATOM     18  O   UNL d   1      56.099  49.328  49.320  0.00  0.00    -0.532 OA
ENDBRANCH   1  16
TORSDOF 5
ENDMDL
