MODEL 1
REMARK VINA RESULT:      86.5      0.000      0.000
REMARK  5 active torsions:
REMARK  status: ('A' for Active; 'I' for Inactive)
REMARK    1  A    between atoms: C_5  and  C_18 
REMARK       I    between atoms: N_9  and  C_5 
REMARK    2  A    between atoms: S_12  and  C_6 
REMARK    3  A    between atoms: C_15  and  C_7 
REMARK    4  A    between atoms: C_10  and  N_9 
REMARK    5  A    between atoms: C_18  and  S_12 
ROOT
ATOM      1  C   UNL d   1      61.568  48.512  50.254  0.00  0.00     0.099 C 
ENDROOT
BRANCH   1   2
ATOM      2  C   UNL d   1      61.586  47.767  49.880  0.00  0.00     0.286 C 
ATOM      3  N   UNL d   1      61.445  47.090  50.314  0.00  0.00    -0.207 NA
ATOM      4  O   UNL d   1      61.745  47.719  49.081  0.00  0.00    -0.265 OA
BRANCH   3   5
ATOM      5  C   UNL d   1      61.463  46.366  49.948  0.00  0.00     0.087 A 
ATOM      6  C   UNL d   1      60.809  45.865  49.995  0.00  0.00     0.046 A 
ATOM      7  C   UNL d   1      60.824  45.130  49.625  0.00  0.00     0.124 A 
ATOM      8  O   UNL d   1      60.180  44.624  49.664  0.00  0.00    -0.301 OA
ATOM      9  C   UNL d   1      61.508  44.897  49.202  0.00  0.00     0.123 A 
ATOM     10  C   UNL d   1      60.209  43.885  49.286  0.00  0.00     0.149 A 
ATOM     11  C   UNL d   1      60.888  43.659  48.868  0.00  0.00     0.149 A 
ATOM     12  O   UNL d   1      61.536  44.168  48.828  0.00  0.00    -0.301 OA
ATOM     13  C   UNL d   1      62.152  45.412  49.166  0.00  0.00     0.028 A 
ATOM     14  C   UNL d   1      62.127  46.131  49.533  0.00  0.00     0.021 A 
ENDBRANCH   3   5
ENDBRANCH   1   2
BRANCH   1  15
ATOM     15  S   UNL d   1      61.140  49.132  49.923  0.00  0.00    -0.061 SA
BRANCH  15  16
ATOM     16  C   UNL d   1      60.350  49.226  50.104  0.00  0.00     0.133 A 
ATOM     17  N   UNL d   1      59.790  49.267  49.502  0.00  0.00    -0.141 NA
ATOM     18  N   UNL d   1      58.991  49.363  49.681  0.00  0.00    -0.148 NA
ATOM     19  C   UNL d   1      58.752  49.418  50.470  0.00  0.00     0.103 A 
ATOM     20  C   UNL d   1      59.303  49.378  51.075  0.00  0.00     0.023 A 
ATOM     21  C   UNL d   1      60.100  49.283  50.901  0.00  0.00     0.029 A 
BRANCH  19  22
ATOM     22  C   UNL d   1      57.953  49.513  50.649  0.00  0.00     0.019 A 
ATOM     23  C   UNL d   1      57.397  49.609  50.038  0.00  0.00     0.002 A 
ATOM     24  C   UNL d   1      56.594  49.705  50.219  0.00  0.00     0.000 A 
ATOM     25  C   UNL d   1      56.342  49.706  51.010  0.00  0.00     0.000 A 
ATOM     26  C   UNL d   1      56.887  49.612  51.610  0.00  0.00     0.000 A 
ATOM     27  C   UNL d   1      57.693  49.516  51.441  0.00  0.00     0.002 A 
ENDBRANCH  19  22
ENDBRANCH  15  16
ENDBRANCH   1  15
TORSDOF 5
ENDMDL
