MODEL 1
REMARK VINA RESULT:      13.0      0.000      0.000
REMARK  2 active torsions:
REMARK  status: ('A' for Active; 'I' for Inactive)
REMARK    1  A    between atoms: C_6  and  C_1 
REMARK    2  A    between atoms: C_7  and  C_5 
ROOT
ATOM      1  C   UNL d   1     -52.881  24.147  33.418  0.00  0.00     0.169 A 
ATOM      2  C   UNL d   1     -52.549  24.917  33.457  0.00  0.00     0.048 A 
ATOM      3  N   UNL d   1     -51.536  24.041  33.308  0.00  0.00    -0.148 NA
ATOM      4  N   UNL d   1     -52.260  23.620  33.328  0.00  0.00    -0.142 NA
ATOM      5  C   UNL d   1     -51.733  24.852  33.390  0.00  0.00     0.105 A 
ENDROOT
BRANCH   5   6
ATOM      6  C   UNL d   1     -51.191  25.472  33.401  0.00  0.00     0.019 A 
ATOM      7  C   UNL d   1     -51.459  26.248  33.483  0.00  0.00     0.002 A 
ATOM      8  C   UNL d   1     -50.921  26.871  33.494  0.00  0.00     0.011 A 
ATOM      9  C   UNL d   1     -50.109  26.741  33.424  0.00  0.00     0.058 A 
ATOM     10  C   UNL d   1     -49.849  25.965  33.343  0.00  0.00     0.011 A 
ATOM     11 CL   UNL d   1     -49.585  27.352  33.436  0.00  0.00    -0.082 Cl
ATOM     12  C   UNL d   1     -50.379  25.329  33.330  0.00  0.00     0.002 A 
ENDBRANCH   5   6
BRANCH   1  13
ATOM     13  C   UNL d   1     -53.694  23.963  33.464  0.00  0.00     0.231 C 
ATOM     14  O   UNL d   1     -53.951  23.196  33.656  0.00  0.00    -0.643 OA
ATOM     15  O   UNL d   1     -54.245  24.572  33.312  0.00  0.00    -0.643 OA
ENDBRANCH   1  13
TORSDOF 2
ENDMDL
