MODEL 1
REMARK VINA RESULT:     117.4      0.000      0.000
REMARK  6 active torsions:
REMARK  status: ('A' for Active; 'I' for Inactive)
REMARK    1  A    between atoms: C_17  and  N_1 
REMARK    2  A    between atoms: N_9  and  C_8 
REMARK    3  A    between atoms: C_11  and  O_21 
REMARK    4  A    between atoms: C_15  and  C_11 
REMARK    5  A    between atoms: C_30  and  C_17 
REMARK    6  A    between atoms: O_21  and  C_30 
ROOT
ATOM      1  N   UNL d   1      61.414  46.892  50.190  0.00  0.00    -0.238 N 
ATOM      2  C   UNL d   1      61.906  46.454  49.697  0.00  0.00     0.267 A 
ATOM      3  C   UNL d   1      61.080  46.560  50.864  0.00  0.00     0.267 A 
ATOM      4  C   UNL d   1      62.071  45.648  49.887  0.00  0.00     0.057 A 
ATOM      5  C   UNL d   1      61.738  45.311  50.562  0.00  0.00     0.011 A 
ATOM      6  C   UNL d   1      61.241  45.774  51.049  0.00  0.00     0.057 A 
ATOM      7  C   UNL d   1      61.896  44.535  50.745  0.00  0.00     0.016 A 
ATOM      8  C   UNL d   1      62.390  44.087  50.255  0.00  0.00     0.064 A 
ATOM      9  C   UNL d   1      62.558  45.205  49.404  0.00  0.00     0.006 A 
ATOM     10  C   UNL d   1      62.716  44.430  49.587  0.00  0.00     0.018 A 
ATOM     11  O   UNL d   1      60.561  47.002  51.395  0.00  0.00    -0.267 OA
ATOM     12  O   UNL d   1      62.229  46.812  49.026  0.00  0.00    -0.267 OA
ATOM     13  C   UNL d   1      60.898  45.444  51.736  0.00  0.00     0.005 A 
ATOM     14  C   UNL d   1      61.564  44.193  51.422  0.00  0.00     0.002 A 
ATOM     15  C   UNL d   1      61.061  44.643  51.925  0.00  0.00     0.000 A 
ENDROOT
BRANCH   1  16
ATOM     16  C   UNL d   1      61.250  47.698  50.000  0.00  0.00     0.113 C 
BRANCH  16  17
ATOM     17  C   UNL d   1      61.029  48.222  50.598  0.00  0.00     0.145 C 
BRANCH  17  18
ATOM     18  O   UNL d   1      60.817  48.983  50.408  0.00  0.00    -0.269 OA
BRANCH  18  19
ATOM     19  C   UNL d   1      60.278  49.378  50.871  0.00  0.00     0.300 C 
ATOM     20  O   UNL d   1      60.497  49.698  51.595  0.00  0.00    -0.259 OA
BRANCH  19  21
ATOM     21  C   UNL d   1      59.501  49.460  50.612  0.00  0.00     0.064 A 
ATOM     22  C   UNL d   1      59.355  49.622  49.819  0.00  0.00     0.006 A 
ATOM     23  C   UNL d   1      58.557  49.706  49.554  0.00  0.00     0.012 A 
ATOM     24  C   UNL d   1      57.938  49.625  50.091  0.00  0.00     0.058 A 
ATOM     25  C   UNL d   1      58.091  49.465  50.875  0.00  0.00     0.012 A 
ATOM     26 CL   UNL d   1      57.171  49.706  49.835  0.00  0.00    -0.082 Cl
ATOM     27  C   UNL d   1      58.864  49.383  51.133  0.00  0.00     0.006 A 
ENDBRANCH  19  21
ENDBRANCH  18  19
ENDBRANCH  17  18
ENDBRANCH  16  17
ENDBRANCH   1  16
BRANCH   8  28
ATOM     28  N   UNL d   1      62.553  43.292  50.442  0.00  0.00    -0.300 N 
ATOM     29  C   UNL d   1      62.342  42.992  51.171  0.00  0.00     0.107 A 
ATOM     30  C   UNL d   1      62.501  42.212  51.355  0.00  0.00     0.142 A 
ATOM     31  O   UNL d   1      62.872  41.731  50.810  0.00  0.00    -0.300 OA
ATOM     32  C   UNL d   1      63.088  42.030  50.071  0.00  0.00     0.142 A 
ATOM     33  C   UNL d   1      62.928  42.810  49.887  0.00  0.00     0.107 A 
ENDBRANCH   8  28
TORSDOF 6
ENDMDL
