MODEL 1
REMARK VINA RESULT:      40.8      0.000      0.000
REMARK  3 active torsions:
REMARK  status: ('A' for Active; 'I' for Inactive)
REMARK    1  A    between atoms: C_14  and  C_4 
REMARK    2  A    between atoms: C_10  and  O_11 
REMARK    3  A    between atoms: O_11  and  C_14 
ROOT
ATOM      1  C   UNL d   1      59.546  49.659  50.076  0.00  0.00     0.144 C 
ENDROOT
BRANCH   1   2
ATOM      2  O   UNL d   1      59.993  49.550  50.770  0.00  0.00    -0.303 OA
BRANCH   2   3
ATOM      3  C   UNL d   1      60.568  48.987  50.798  0.00  0.00     0.100 A 
ATOM      4  C   UNL d   1      61.155  49.013  51.383  0.00  0.00     0.024 A 
ATOM      5  C   UNL d   1      61.743  48.423  51.398  0.00  0.00     0.013 A 
ATOM      6  C   UNL d   1      61.173  49.603  51.948  0.00  0.00     0.002 C 
ATOM      7  C   UNL d   1      61.750  47.814  50.841  0.00  0.00     0.058 A 
ATOM      8  C   UNL d   1      61.163  47.788  50.256  0.00  0.00     0.013 A 
ATOM      9 CL   UNL d   1      62.346  47.209  50.849  0.00  0.00    -0.082 Cl
ATOM     10  C   UNL d   1      60.566  48.369  50.223  0.00  0.00     0.026 A 
ENDBRANCH   2   3
ENDBRANCH   1   2
BRANCH   1  11
ATOM     11  C   UNL d   1      58.738  49.665  50.107  0.00  0.00     0.142 A 
ATOM     12  N   UNL d   1      58.282  49.648  50.795  0.00  0.00    -0.057 NA
ATOM     13  C   UNL d   1      57.503  49.663  50.575  0.00  0.00     0.735 A 
ATOM     14  N   UNL d   1      57.470  49.689  49.763  0.00  0.00    -0.136 N 
ATOM     15  N   UNL d   1      56.802  49.655  51.019  0.00  0.00    -0.059 NA
ATOM     16  C   UNL d   1      58.232  49.690  49.494  0.00  0.00     0.120 A 
ATOM     17  C   UNL d   1      56.721  49.708  49.389  0.00  0.00     0.100 A 
ATOM     18  C   UNL d   1      56.041  49.700  49.821  0.00  0.00     0.041 A 
ATOM     19  C   UNL d   1      56.081  49.674  50.645  0.00  0.00     0.119 A 
ENDBRANCH   1  11
TORSDOF 3
ENDMDL
