MODEL 1
REMARK VINA RESULT:      -2.7      0.000      0.000
REMARK  2 active torsions:
REMARK  status: ('A' for Active; 'I' for Inactive)
REMARK    1  A    between atoms: C_13  and  N_8 
REMARK    2  A    between atoms: C_14  and  C_13 
ROOT
ATOM      1  C   UNL d   1      30.118  16.983 -24.335  0.00  0.00     0.093 A 
ATOM      2  N   UNL d   1      28.741  16.606 -24.336  0.00  0.00    -0.179 NA
ATOM      3  C   UNL d   1      29.344  17.119 -24.583  0.00  0.00     0.284 A 
ATOM      4  C   UNL d   1      30.288  16.339 -23.844  0.00  0.00     0.091 A 
ATOM      5  C   UNL d   1      28.911  15.963 -23.847  0.00  0.00     0.223 A 
ATOM      6  N   UNL d   1      29.684  15.832 -23.603  0.00  0.00    -0.217 NA
ATOM      7  C   UNL d   1      30.723  17.489 -24.576  0.00  0.00     0.087 A 
ATOM      8  N   UNL d   1      31.489  17.350 -24.328  0.00  0.00    -0.302 N 
ATOM      9  C   UNL d   1      31.063  16.202 -23.596  0.00  0.00     0.038 A 
ATOM     10  S   UNL d   1      28.307  15.453 -23.602  0.00  0.00    -0.037 SA
ATOM     11  O   UNL d   1      29.165  17.761 -25.074  0.00  0.00    -0.265 OA
ATOM     12  C   UNL d   1      31.659  16.706 -23.837  0.00  0.00     0.082 A 
ENDROOT
BRANCH   8  13
ATOM     13  C   UNL d   1      32.102  17.859 -24.569  0.00  0.00     0.080 C 
BRANCH  13  14
ATOM     14  C   UNL d   1      32.499  18.318 -24.007  0.00  0.00     0.019 C 
ATOM     15  C   UNL d   1      33.070  18.858 -24.256  0.00  0.00     0.002 C 
ENDBRANCH  13  14
ENDBRANCH   8  13
TORSDOF 2
ENDMDL
MODEL 2
REMARK VINA RESULT:      -2.6      1.892      3.512
REMARK  2 active torsions:
REMARK  status: ('A' for Active; 'I' for Inactive)
REMARK    1  A    between atoms: C_13  and  N_8 
REMARK    2  A    between atoms: C_14  and  C_13 
ROOT
ATOM      1  C   UNL d   1      31.255  16.750 -23.913  0.00  0.00     0.093 A 
ATOM      2  N   UNL d   1      32.602  17.130 -23.632  0.00  0.00    -0.179 NA
ATOM      3  C   UNL d   1      31.986  16.578 -23.573  0.00  0.00     0.284 A 
ATOM      4  C   UNL d   1      31.140  17.468 -24.307  0.00  0.00     0.091 A 
ATOM      5  C   UNL d   1      32.488  17.847 -24.025  0.00  0.00     0.223 A 
ATOM      6  N   UNL d   1      31.757  18.013 -24.361  0.00  0.00    -0.217 NA
ATOM      7  C   UNL d   1      30.638  16.205 -23.859  0.00  0.00     0.087 A 
ATOM      8  N   UNL d   1      29.915  16.380 -24.197  0.00  0.00    -0.302 N 
ATOM      9  C   UNL d   1      30.408  17.640 -24.647  0.00  0.00     0.038 A 
ATOM     10  S   UNL d   1      33.104  18.396 -24.082  0.00  0.00    -0.037 SA
ATOM     11  O   UNL d   1      32.109  15.862 -23.177  0.00  0.00    -0.265 OA
ATOM     12  C   UNL d   1      29.800  17.098 -24.592  0.00  0.00     0.082 A 
ENDROOT
BRANCH   8  13
ATOM     13  C   UNL d   1      29.289  15.833 -24.145  0.00  0.00     0.080 C 
BRANCH  13  14
ATOM     14  C   UNL d   1      28.614  16.022 -23.706  0.00  0.00     0.019 C 
ATOM     15  C   UNL d   1      28.015  15.462 -23.623  0.00  0.00     0.002 C 
ENDBRANCH  13  14
ENDBRANCH   8  13
TORSDOF 2
ENDMDL
MODEL 3
REMARK VINA RESULT:      -2.5      1.672      3.234
REMARK  2 active torsions:
REMARK  status: ('A' for Active; 'I' for Inactive)
REMARK    1  A    between atoms: C_13  and  N_8 
REMARK    2  A    between atoms: C_14  and  C_13 
ROOT
ATOM      1  C   UNL d   1      30.996  16.963 -24.137  0.00  0.00     0.093 A 
ATOM      2  N   UNL d   1      32.006  17.953 -24.329  0.00  0.00    -0.179 NA
ATOM      3  C   UNL d   1      31.255  17.651 -24.510  0.00  0.00     0.284 A 
ATOM      4  C   UNL d   1      31.482  16.580 -23.589  0.00  0.00     0.091 A 
ATOM      5  C   UNL d   1      32.492  17.571 -23.781  0.00  0.00     0.223 A 
ATOM      6  N   UNL d   1      32.228  16.886 -23.414  0.00  0.00    -0.217 NA
ATOM      7  C   UNL d   1      30.250  16.656 -24.312  0.00  0.00     0.087 A 
ATOM      8  N   UNL d   1      29.997  15.974 -23.941  0.00  0.00    -0.302 N 
ATOM      9  C   UNL d   1      31.223  15.891 -23.217  0.00  0.00     0.038 A 
ATOM     10  S   UNL d   1      33.241  17.874 -23.603  0.00  0.00    -0.037 SA
ATOM     11  O   UNL d   1      30.775  18.040 -25.059  0.00  0.00    -0.265 OA
ATOM     12  C   UNL d   1      30.483  15.591 -23.393  0.00  0.00     0.082 A 
ENDROOT
BRANCH   8  13
ATOM     13  C   UNL d   1      29.245  15.662 -24.115  0.00  0.00     0.080 C 
BRANCH  13  14
ATOM     14  C   UNL d   1      28.643  15.702 -23.549  0.00  0.00     0.019 C 
ATOM     15  C   UNL d   1      27.882  15.457 -23.749  0.00  0.00     0.002 C 
ENDBRANCH  13  14
ENDBRANCH   8  13
TORSDOF 2
ENDMDL
MODEL 4
REMARK VINA RESULT:      -2.2      1.508      2.007
REMARK  2 active torsions:
REMARK  status: ('A' for Active; 'I' for Inactive)
REMARK    1  A    between atoms: C_13  and  N_8 
REMARK    2  A    between atoms: C_14  and  C_13 
ROOT
ATOM      1  C   UNL d   1      31.802  17.585 -24.116  0.00  0.00     0.093 A 
ATOM      2  N   UNL d   1      30.833  16.980 -24.973  0.00  0.00    -0.179 NA
ATOM      3  C   UNL d   1      31.253  17.652 -24.728  0.00  0.00     0.284 A 
ATOM      4  C   UNL d   1      31.929  16.853 -23.753  0.00  0.00     0.091 A 
ATOM      5  C   UNL d   1      30.960  16.249 -24.610  0.00  0.00     0.223 A 
ATOM      6  N   UNL d   1      31.508  16.189 -24.002  0.00  0.00    -0.217 NA
ATOM      7  C   UNL d   1      32.223  18.249 -23.867  0.00  0.00     0.087 A 
ATOM      8  N   UNL d   1      32.766  18.178 -23.261  0.00  0.00    -0.302 N 
ATOM      9  C   UNL d   1      32.478  16.786 -23.141  0.00  0.00     0.038 A 
ATOM     10  S   UNL d   1      30.539  15.581 -24.857  0.00  0.00    -0.037 SA
ATOM     11  O   UNL d   1      31.119  18.380 -25.097  0.00  0.00    -0.265 OA
ATOM     12  C   UNL d   1      32.894  17.446 -22.897  0.00  0.00     0.082 A 
ENDROOT
BRANCH   8  13
ATOM     13  C   UNL d   1      33.194  18.845 -23.006  0.00  0.00     0.080 C 
BRANCH  13  14
ATOM     14  C   UNL d   1      32.878  19.336 -22.420  0.00  0.00     0.019 C 
ATOM     15  C   UNL d   1      33.241  20.057 -22.257  0.00  0.00     0.002 C 
ENDBRANCH  13  14
ENDBRANCH   8  13
TORSDOF 2
ENDMDL
MODEL 5
REMARK VINA RESULT:      -2.0      6.566      7.773
REMARK  2 active torsions:
REMARK  status: ('A' for Active; 'I' for Inactive)
REMARK    1  A    between atoms: C_13  and  N_8 
REMARK    2  A    between atoms: C_14  and  C_13 
ROOT
ATOM      1  C   UNL d   1      33.105  22.102 -20.025  0.00  0.00     0.093 A 
ATOM      2  N   UNL d   1      33.057  21.073 -21.014  0.00  0.00    -0.179 NA
ATOM      3  C   UNL d   1      33.135  21.301 -20.221  0.00  0.00     0.284 A 
ATOM      4  C   UNL d   1      32.998  22.669 -20.618  0.00  0.00     0.091 A 
ATOM      5  C   UNL d   1      32.950  21.639 -21.606  0.00  0.00     0.223 A 
ATOM      6  N   UNL d   1      32.921  22.435 -21.405  0.00  0.00    -0.217 NA
ATOM      7  C   UNL d   1      33.182  22.336 -19.238  0.00  0.00     0.087 A 
ATOM      8  N   UNL d   1      33.152  23.130 -19.049  0.00  0.00    -0.302 N 
ATOM      9  C   UNL d   1      32.969  23.470 -20.422  0.00  0.00     0.038 A 
ATOM     10  S   UNL d   1      32.873  21.408 -22.397  0.00  0.00    -0.037 SA
ATOM     11  O   UNL d   1      33.241  20.727 -19.635  0.00  0.00    -0.265 OA
ATOM     12  C   UNL d   1      33.045  23.697 -19.641  0.00  0.00     0.082 A 
ENDROOT
BRANCH   8  13
ATOM     13  C   UNL d   1      33.229  23.371 -18.255  0.00  0.00     0.080 C 
BRANCH  13  14
ATOM     14  C   UNL d   1      32.553  23.478 -17.792  0.00  0.00     0.019 C 
ATOM     15  C   UNL d   1      32.629  23.542 -16.973  0.00  0.00     0.002 C 
ENDBRANCH  13  14
ENDBRANCH   8  13
TORSDOF 2
ENDMDL
MODEL 6
REMARK VINA RESULT:      -2.0      2.829      3.757
REMARK  2 active torsions:
REMARK  status: ('A' for Active; 'I' for Inactive)
REMARK    1  A    between atoms: C_13  and  N_8 
REMARK    2  A    between atoms: C_14  and  C_13 
ROOT
ATOM      1  C   UNL d   1      32.904  18.881 -23.497  0.00  0.00     0.093 A 
ATOM      2  N   UNL d   1      32.661  17.799 -24.397  0.00  0.00    -0.179 NA
ATOM      3  C   UNL d   1      32.746  18.613 -24.261  0.00  0.00     0.284 A 
ATOM      4  C   UNL d   1      32.976  18.340 -22.875  0.00  0.00     0.091 A 
ATOM      5  C   UNL d   1      32.733  17.260 -23.776  0.00  0.00     0.223 A 
ATOM      6  N   UNL d   1      32.890  17.533 -23.018  0.00  0.00    -0.217 NA
ATOM      7  C   UNL d   1      32.989  19.689 -23.354  0.00  0.00     0.087 A 
ATOM      8  N   UNL d   1      33.146  19.950 -22.596  0.00  0.00    -0.302 N 
ATOM      9  C   UNL d   1      33.134  18.608 -22.111  0.00  0.00     0.038 A 
ATOM     10  S   UNL d   1      32.648  16.448 -23.916  0.00  0.00    -0.037 SA
ATOM     11  O   UNL d   1      32.672  19.147 -24.888  0.00  0.00    -0.265 OA
ATOM     12  C   UNL d   1      33.218  19.409 -21.974  0.00  0.00     0.082 A 
ENDROOT
BRANCH   8  13
ATOM     13  C   UNL d   1      33.233  20.765 -22.447  0.00  0.00     0.080 C 
BRANCH  13  14
ATOM     14  C   UNL d   1      32.935  21.088 -21.746  0.00  0.00     0.019 C 
ATOM     15  C   UNL d   1      32.939  21.906 -21.644  0.00  0.00     0.002 C 
ENDBRANCH  13  14
ENDBRANCH   8  13
TORSDOF 2
ENDMDL
MODEL 7
REMARK VINA RESULT:      -1.9      4.002      5.258
REMARK  2 active torsions:
REMARK  status: ('A' for Active; 'I' for Inactive)
REMARK    1  A    between atoms: C_13  and  N_8 
REMARK    2  A    between atoms: C_14  and  C_13 
ROOT
ATOM      1  C   UNL d   1      33.230  20.070 -22.555  0.00  0.00     0.093 A 
ATOM      2  N   UNL d   1      33.239  18.844 -23.287  0.00  0.00    -0.179 NA
ATOM      3  C   UNL d   1      33.236  19.246 -22.561  0.00  0.00     0.284 A 
ATOM      4  C   UNL d   1      33.227  20.490 -23.268  0.00  0.00     0.091 A 
ATOM      5  C   UNL d   1      33.235  19.263 -23.999  0.00  0.00     0.223 A 
ATOM      6  N   UNL d   1      33.230  20.084 -23.986  0.00  0.00    -0.217 NA
ATOM      7  C   UNL d   1      33.228  20.476 -21.837  0.00  0.00     0.087 A 
ATOM      8  N   UNL d   1      33.222  21.293 -21.835  0.00  0.00    -0.302 N 
ATOM      9  C   UNL d   1      33.221  21.315 -23.261  0.00  0.00     0.038 A 
ATOM     10  S   UNL d   1      33.238  18.860 -24.721  0.00  0.00    -0.037 SA
ATOM     11  O   UNL d   1      33.240  18.818 -21.853  0.00  0.00    -0.265 OA
ATOM     12  C   UNL d   1      33.219  21.713 -22.548  0.00  0.00     0.082 A 
ENDROOT
BRANCH   8  13
ATOM     13  C   UNL d   1      33.219  21.707 -21.112  0.00  0.00     0.080 C 
BRANCH  13  14
ATOM     14  C   UNL d   1      32.545  22.126 -20.882  0.00  0.00     0.019 C 
ATOM     15  C   UNL d   1      32.557  22.559 -20.181  0.00  0.00     0.002 C 
ENDBRANCH  13  14
ENDBRANCH   8  13
TORSDOF 2
ENDMDL
MODEL 8
REMARK VINA RESULT:      -1.7      1.173      1.567
REMARK  2 active torsions:
REMARK  status: ('A' for Active; 'I' for Inactive)
REMARK    1  A    between atoms: C_13  and  N_8 
REMARK    2  A    between atoms: C_14  and  C_13 
ROOT
ATOM      1  C   UNL d   1      29.995  16.469 -23.601  0.00  0.00     0.093 A 
ATOM      2  N   UNL d   1      28.870  15.846 -22.980  0.00  0.00    -0.179 NA
ATOM      3  C   UNL d   1      29.690  15.961 -23.028  0.00  0.00     0.284 A 
ATOM      4  C   UNL d   1      29.485  16.860 -24.121  0.00  0.00     0.091 A 
ATOM      5  C   UNL d   1      28.360  16.237 -23.500  0.00  0.00     0.223 A 
ATOM      6  N   UNL d   1      28.670  16.742 -24.068  0.00  0.00    -0.217 NA
ATOM      7  C   UNL d   1      30.810  16.588 -23.654  0.00  0.00     0.087 A 
ATOM      8  N   UNL d   1      31.108  17.092 -24.224  0.00  0.00    -0.302 N 
ATOM      9  C   UNL d   1      29.790  17.369 -24.695  0.00  0.00     0.038 A 
ATOM     10  S   UNL d   1      27.543  16.121 -23.449  0.00  0.00    -0.037 SA
ATOM     11  O   UNL d   1      30.193  15.566 -22.503  0.00  0.00    -0.265 OA
ATOM     12  C   UNL d   1      30.597  17.483 -24.744  0.00  0.00     0.082 A 
ENDROOT
BRANCH   8  13
ATOM     13  C   UNL d   1      31.929  17.214 -24.281  0.00  0.00     0.080 C 
BRANCH  13  14
ATOM     14  C   UNL d   1      32.234  17.665 -24.904  0.00  0.00     0.019 C 
ATOM     15  C   UNL d   1      33.041  17.635 -25.068  0.00  0.00     0.002 C 
ENDBRANCH  13  14
ENDBRANCH   8  13
TORSDOF 2
ENDMDL
MODEL 9
REMARK VINA RESULT:      -1.2      3.536      4.369
REMARK  2 active torsions:
REMARK  status: ('A' for Active; 'I' for Inactive)
REMARK    1  A    between atoms: C_13  and  N_8 
REMARK    2  A    between atoms: C_14  and  C_13 
ROOT
ATOM      1  C   UNL d   1      33.219  19.543 -23.395  0.00  0.00     0.093 A 
ATOM      2  N   UNL d   1      33.208  18.369 -22.582  0.00  0.00    -0.179 NA
ATOM      3  C   UNL d   1      33.217  19.196 -22.647  0.00  0.00     0.284 A 
ATOM      4  C   UNL d   1      33.212  19.068 -24.072  0.00  0.00     0.091 A 
ATOM      5  C   UNL d   1      33.200  17.895 -23.258  0.00  0.00     0.223 A 
ATOM      6  N   UNL d   1      33.203  18.247 -24.000  0.00  0.00    -0.217 NA
ATOM      7  C   UNL d   1      33.229  20.365 -23.467  0.00  0.00     0.087 A 
ATOM      8  N   UNL d   1      33.231  20.705 -24.210  0.00  0.00    -0.302 N 
ATOM      9  C   UNL d   1      33.214  19.416 -24.820  0.00  0.00     0.038 A 
ATOM     10  S   UNL d   1      33.191  17.070 -23.191  0.00  0.00    -0.037 SA
ATOM     11  O   UNL d   1      33.225  19.664 -21.965  0.00  0.00    -0.265 OA
ATOM     12  C   UNL d   1      33.224  20.230 -24.887  0.00  0.00     0.082 A 
ENDROOT
BRANCH   8  13
ATOM     13  C   UNL d   1      33.241  21.534 -24.287  0.00  0.00     0.080 C 
BRANCH  13  14
ATOM     14  C   UNL d   1      32.982  21.883 -24.990  0.00  0.00     0.019 C 
ATOM     15  C   UNL d   1      32.950  22.705 -25.046  0.00  0.00     0.002 C 
ENDBRANCH  13  14
ENDBRANCH   8  13
TORSDOF 2
ENDMDL
