MODEL 1
REMARK VINA RESULT:      -6.2      0.000      0.000
REMARK  4 active torsions:
REMARK  status: ('A' for Active; 'I' for Inactive)
REMARK    1  A    between atoms: S_16  and  C_7 
REMARK    2  A    between atoms: C_10  and  N_11 
REMARK       I    between atoms: N_11  and  C_14 
REMARK    3  A    between atoms: C_14  and  C_20 
REMARK    4  A    between atoms: C_20  and  S_16 
ROOT
ATOM      1  N   UNL d   1     -41.881-122.421 -53.725  0.00  0.00    -0.167 N 
ATOM      2  C   UNL d   1     -41.365-123.037 -53.888  0.00  0.00     0.220 A 
ATOM      3  C   UNL d   1     -42.221-121.979 -54.339  0.00  0.00     0.301 A 
ATOM      4  S   UNL d   1     -41.126-123.360 -53.165  0.00  0.00    -0.019 SA
ATOM      5  N   UNL d   1     -41.966-122.356 -52.914  0.00  0.00    -0.147 NA
ATOM      6  N   UNL d   1     -41.178-123.225 -54.667  0.00  0.00    -0.121 NA
ATOM      7  C   UNL d   1     -41.499-122.938 -52.567  0.00  0.00     0.164 A 
ATOM      8  N   UNL d   1     -41.508-122.796 -55.285  0.00  0.00    -0.141 NA
ATOM      9  C   UNL d   1     -42.027-122.176 -55.121  0.00  0.00     0.161 A 
ATOM     10  O   UNL d   1     -42.735-121.365 -54.177  0.00  0.00    -0.263 OA
ATOM     11  C   UNL d   1     -42.361-121.743 -55.737  0.00  0.00     0.028 C 
ENDROOT
BRANCH   7  12
ATOM     12  S   UNL d   1     -41.417-123.076 -51.758  0.00  0.00    -0.054 SA
BRANCH  12  13
ATOM     13  C   UNL d   1     -41.826-122.617 -51.214  0.00  0.00     0.100 C 
BRANCH  13  14
ATOM     14  C   UNL d   1     -41.869-122.859 -50.424  0.00  0.00     0.288 C 
ATOM     15  N   UNL d   1     -42.592-122.826 -50.021  0.00  0.00    -0.182 NA
ATOM     16  O   UNL d   1     -41.191-123.131 -50.040  0.00  0.00    -0.265 OA
BRANCH  15  17
ATOM     17  C   UNL d   1     -42.633-123.067 -49.233  0.00  0.00     0.197 A 
ATOM     18  N   UNL d   1     -42.372-122.635 -48.574  0.00  0.00    -0.219 NA
ATOM     19  C   UNL d   1     -42.520-123.083 -47.902  0.00  0.00     0.108 A 
ATOM     20  C   UNL d   1     -42.875-123.796 -48.142  0.00  0.00     0.059 A 
ATOM     21  S   UNL d   1     -42.940-123.779 -48.959  0.00  0.00    -0.046 SA
ENDBRANCH  15  17
ENDBRANCH  13  14
ENDBRANCH  12  13
ENDBRANCH   7  12
TORSDOF 4
ENDMDL
MODEL 2
REMARK VINA RESULT:      -6.1      1.147      5.188
REMARK  4 active torsions:
REMARK  status: ('A' for Active; 'I' for Inactive)
REMARK    1  A    between atoms: S_16  and  C_7 
REMARK    2  A    between atoms: C_10  and  N_11 
REMARK       I    between atoms: N_11  and  C_14 
REMARK    3  A    between atoms: C_14  and  C_20 
REMARK    4  A    between atoms: C_20  and  S_16 
ROOT
ATOM      1  N   UNL d   1     -42.175-122.875 -49.672  0.00  0.00    -0.167 N 
ATOM      2  C   UNL d   1     -41.432-123.215 -49.738  0.00  0.00     0.220 A 
ATOM      3  C   UNL d   1     -42.635-122.987 -48.991  0.00  0.00     0.301 A 
ATOM      4  S   UNL d   1     -41.123-123.000 -50.474  0.00  0.00    -0.019 SA
ATOM      5  N   UNL d   1     -42.332-122.453 -50.355  0.00  0.00    -0.147 NA
ATOM      6  N   UNL d   1     -41.132-123.674 -49.124  0.00  0.00    -0.121 NA
ATOM      7  C   UNL d   1     -41.680-122.530 -50.852  0.00  0.00     0.164 A 
ATOM      8  N   UNL d   1     -41.576-123.793 -48.443  0.00  0.00    -0.141 NA
ATOM      9  C   UNL d   1     -42.324-123.451 -48.377  0.00  0.00     0.161 A 
ATOM     10  O   UNL d   1     -43.375-122.648 -48.926  0.00  0.00    -0.263 OA
ATOM     11  C   UNL d   1     -42.773-123.568 -47.697  0.00  0.00     0.028 C 
ENDROOT
BRANCH   7  12
ATOM     12  S   UNL d   1     -41.598-122.195 -51.601  0.00  0.00    -0.054 SA
BRANCH  12  13
ATOM     13  C   UNL d   1     -41.473-122.670 -52.258  0.00  0.00     0.100 C 
BRANCH  13  14
ATOM     14  C   UNL d   1     -41.510-122.340 -53.016  0.00  0.00     0.288 C 
ATOM     15  N   UNL d   1     -41.822-122.781 -53.644  0.00  0.00    -0.182 NA
ATOM     16  O   UNL d   1     -41.236-121.572 -53.143  0.00  0.00    -0.265 OA
BRANCH  15  17
ATOM     17  C   UNL d   1     -41.858-122.450 -54.398  0.00  0.00     0.197 A 
ATOM     18  N   UNL d   1     -41.215-122.320 -54.908  0.00  0.00    -0.219 NA
ATOM     19  C   UNL d   1     -41.503-121.982 -55.599  0.00  0.00     0.108 A 
ATOM     20  C   UNL d   1     -42.328-121.901 -55.520  0.00  0.00     0.059 A 
ATOM     21  S   UNL d   1     -42.537-122.191 -54.782  0.00  0.00    -0.046 SA
ENDBRANCH  15  17
ENDBRANCH  13  14
ENDBRANCH  12  13
ENDBRANCH   7  12
TORSDOF 4
ENDMDL
