MODEL 1
REMARK VINA RESULT:       0.9      0.000      0.000
REMARK  5 active torsions:
REMARK  status: ('A' for Active; 'I' for Inactive)
REMARK    1  A    between atoms: N_9  and  C_2 
REMARK    2  A    between atoms: N_8  and  C_3 
REMARK    3  A    between atoms: N_10  and  C_6 
REMARK    4  A    between atoms: C_7  and  C_11 
REMARK    5  A    between atoms: C_13  and  N_10 
ROOT
ATOM      1  N   UNL d   1     -41.339-121.788 -52.636  0.00  0.00     0.133 NA
ATOM      2  C   UNL d   1     -41.405-122.592 -52.828  0.00  0.00     0.765 A 
ATOM      3  C   UNL d   1     -41.290-121.556 -51.845  0.00  0.00     0.765 A 
ATOM      4  N   UNL d   1     -41.421-123.161 -52.228  0.00  0.00     0.134 NA
ATOM      5  N   UNL d   1     -41.306-122.124 -51.245  0.00  0.00     0.134 NA
ATOM      6  C   UNL d   1     -41.372-122.925 -51.434  0.00  0.00     0.780 A 
ENDROOT
BRANCH   6   7
ATOM      7  N   UNL d   1     -41.388-123.494 -50.839  0.00  0.00    -0.058 NA
BRANCH   7   8
ATOM      8  C   UNL d   1     -41.926-123.429 -50.219  0.00  0.00     0.100 A 
ATOM      9  C   UNL d   1     -41.643-123.347 -49.441  0.00  0.00     0.024 A 
ATOM     10  C   UNL d   1     -42.182-123.281 -48.817  0.00  0.00     0.073 A 
ATOM     11  C   UNL d   1     -42.995-123.297 -48.971  0.00  0.00     0.004 A 
ATOM     12  C   UNL d   1     -43.265-123.379 -49.747  0.00  0.00     0.002 A 
ATOM     13  C   UNL d   1     -42.736-123.444 -50.369  0.00  0.00     0.020 A 
BRANCH  10  14
ATOM     14  C   UNL d   1     -41.910-123.200 -48.050  0.00  0.00     0.419 C 
ATOM     15  F   UNL d   1     -42.433-122.985 -47.452  0.00  0.00    -0.166 F 
ATOM     16  F   UNL d   1     -41.123-123.332 -47.878  0.00  0.00    -0.166 F 
ATOM     17  F   UNL d   1     -42.715-123.026 -48.008  0.00  0.00    -0.166 F 
ENDBRANCH  10  14
ENDBRANCH   7   8
ENDBRANCH   6   7
BRANCH   3  18
ATOM     18  N   UNL d   1     -41.225-120.752 -51.653  0.00  0.00    -0.137 N 
ATOM     19  C   UNL d   1     -41.188-120.527 -50.857  0.00  0.00     0.098 A 
ATOM     20  C   UNL d   1     -41.123-119.725 -50.673  0.00  0.00     0.021 A 
ATOM     21  C   UNL d   1     -41.133-119.398 -52.055  0.00  0.00     0.021 A 
ATOM     22  C   UNL d   1     -41.198-120.190 -52.255  0.00  0.00     0.098 A 
ENDBRANCH   3  18
BRANCH   2  23
ATOM     23  N   UNL d   1     -41.454-122.828 -53.622  0.00  0.00    -0.137 N 
ATOM     24  C   UNL d   1     -41.204-123.578 -53.836  0.00  0.00     0.098 A 
ATOM     25  C   UNL d   1     -41.253-123.807 -54.618  0.00  0.00     0.021 A 
ATOM     26  C   UNL d   1     -41.801-122.543 -54.969  0.00  0.00     0.021 A 
ATOM     27  C   UNL d   1     -41.755-122.302 -54.181  0.00  0.00     0.098 A 
ENDBRANCH   2  23
TORSDOF 5
ENDMDL
MODEL 2
REMARK VINA RESULT:       1.7      2.740      4.662
REMARK  5 active torsions:
REMARK  status: ('A' for Active; 'I' for Inactive)
REMARK    1  A    between atoms: N_9  and  C_2 
REMARK    2  A    between atoms: N_8  and  C_3 
REMARK    3  A    between atoms: N_10  and  C_6 
REMARK    4  A    between atoms: C_7  and  C_11 
REMARK    5  A    between atoms: C_13  and  N_10 
ROOT
ATOM      1  N   UNL d   1     -41.892-121.688 -51.151  0.00  0.00     0.133 NA
ATOM      2  C   UNL d   1     -41.490-121.349 -51.793  0.00  0.00     0.765 A 
ATOM      3  C   UNL d   1     -42.036-122.500 -51.137  0.00  0.00     0.765 A 
ATOM      4  N   UNL d   1     -41.234-121.827 -52.418  0.00  0.00     0.134 NA
ATOM      5  N   UNL d   1     -41.780-122.978 -51.762  0.00  0.00     0.134 NA
ATOM      6  C   UNL d   1     -41.380-122.643 -52.402  0.00  0.00     0.780 A 
ENDROOT
BRANCH   6   7
ATOM      7  N   UNL d   1     -41.123-123.114 -53.026  0.00  0.00    -0.058 NA
BRANCH   7   8
ATOM      8  C   UNL d   1     -41.561-123.152 -53.723  0.00  0.00     0.100 A 
ATOM      9  C   UNL d   1     -41.471-122.554 -54.294  0.00  0.00     0.024 A 
ATOM     10  C   UNL d   1     -41.910-122.590 -54.994  0.00  0.00     0.073 A 
ATOM     11  C   UNL d   1     -42.433-123.219 -55.120  0.00  0.00     0.004 A 
ATOM     12  C   UNL d   1     -42.516-123.807 -54.547  0.00  0.00     0.002 A 
ATOM     13  C   UNL d   1     -42.083-123.776 -53.851  0.00  0.00     0.020 A 
BRANCH  10  14
ATOM     14  C   UNL d   1     -41.825-122.006 -55.560  0.00  0.00     0.419 C 
ATOM     15  F   UNL d   1     -41.255-122.087 -56.148  0.00  0.00    -0.166 F 
ATOM     16  F   UNL d   1     -42.304-121.345 -55.541  0.00  0.00    -0.166 F 
ATOM     17  F   UNL d   1     -41.258-122.573 -55.755  0.00  0.00    -0.166 F 
ENDBRANCH  10  14
ENDBRANCH   7   8
ENDBRANCH   6   7
BRANCH   3  18
ATOM     18  N   UNL d   1     -42.438-122.839 -50.495  0.00  0.00    -0.137 N 
ATOM     19  C   UNL d   1     -42.046-123.386 -50.014  0.00  0.00     0.098 A 
ATOM     20  C   UNL d   1     -42.452-123.719 -49.378  0.00  0.00     0.021 A 
ATOM     21  C   UNL d   1     -43.609-122.965 -49.711  0.00  0.00     0.021 A 
ATOM     22  C   UNL d   1     -43.220-122.625 -50.347  0.00  0.00     0.098 A 
ENDBRANCH   3  18
BRANCH   2  23
ATOM     23  N   UNL d   1     -41.344-120.533 -51.809  0.00  0.00    -0.137 N 
ATOM     24  C   UNL d   1     -41.269-120.123 -51.103  0.00  0.00     0.098 A 
ATOM     25  C   UNL d   1     -41.125-119.320 -51.122  0.00  0.00     0.021 A 
ATOM     26  C   UNL d   1     -41.131-119.337 -52.544  0.00  0.00     0.021 A 
ATOM     27  C   UNL d   1     -41.276-120.149 -52.535  0.00  0.00     0.098 A 
ENDBRANCH   2  23
TORSDOF 5
ENDMDL
MODEL 3
REMARK VINA RESULT:       1.8      0.879      2.849
REMARK  5 active torsions:
REMARK  status: ('A' for Active; 'I' for Inactive)
REMARK    1  A    between atoms: N_9  and  C_2 
REMARK    2  A    between atoms: N_8  and  C_3 
REMARK    3  A    between atoms: N_10  and  C_6 
REMARK    4  A    between atoms: C_7  and  C_11 
REMARK    5  A    between atoms: C_13  and  N_10 
ROOT
ATOM      1  N   UNL d   1     -41.563-121.667 -52.946  0.00  0.00     0.133 NA
ATOM      2  C   UNL d   1     -41.384-121.570 -52.142  0.00  0.00     0.765 A 
ATOM      3  C   UNL d   1     -41.667-122.424 -53.257  0.00  0.00     0.765 A 
ATOM      4  N   UNL d   1     -41.309-122.232 -51.653  0.00  0.00     0.134 NA
ATOM      5  N   UNL d   1     -41.592-123.087 -52.768  0.00  0.00     0.134 NA
ATOM      6  C   UNL d   1     -41.414-122.993 -51.968  0.00  0.00     0.780 A 
ENDROOT
BRANCH   6   7
ATOM      7  N   UNL d   1     -41.338-123.649 -51.477  0.00  0.00    -0.058 NA
BRANCH   7   8
ATOM      8  C   UNL d   1     -41.627-123.625 -50.706  0.00  0.00     0.100 A 
ATOM      9  C   UNL d   1     -42.430-123.451 -50.577  0.00  0.00     0.024 A 
ATOM     10  C   UNL d   1     -42.722-123.425 -49.803  0.00  0.00     0.073 A 
ATOM     11  C   UNL d   1     -42.214-123.573 -49.166  0.00  0.00     0.004 A 
ATOM     12  C   UNL d   1     -41.419-123.745 -49.306  0.00  0.00     0.002 A 
ATOM     13  C   UNL d   1     -41.124-123.772 -50.070  0.00  0.00     0.020 A 
BRANCH  10  14
ATOM     14  C   UNL d   1     -43.510-123.255 -49.670  0.00  0.00     0.419 C 
ATOM     15  F   UNL d   1     -43.717-122.558 -49.283  0.00  0.00    -0.166 F 
ATOM     16  F   UNL d   1     -44.090-123.773 -49.919  0.00  0.00    -0.166 F 
ATOM     17  F   UNL d   1     -43.098-122.617 -49.347  0.00  0.00    -0.166 F 
ENDBRANCH  10  14
ENDBRANCH   7   8
ENDBRANCH   6   7
BRANCH   3  18
ATOM     18  N   UNL d   1     -41.846-122.521 -54.061  0.00  0.00    -0.137 N 
ATOM     19  C   UNL d   1     -41.444-123.098 -54.499  0.00  0.00     0.098 A 
ATOM     20  C   UNL d   1     -41.628-123.189 -55.299  0.00  0.00     0.021 A 
ATOM     21  C   UNL d   1     -42.589-122.148 -55.206  0.00  0.00     0.021 A 
ATOM     22  C   UNL d   1     -42.419-122.044 -54.411  0.00  0.00     0.098 A 
ENDBRANCH   3  18
BRANCH   2  23
ATOM     23  N   UNL d   1     -41.279-120.809 -51.828  0.00  0.00    -0.137 N 
ATOM     24  C   UNL d   1     -41.225-120.713 -51.015  0.00  0.00     0.098 A 
ATOM     25  C   UNL d   1     -41.123-119.964 -50.709  0.00  0.00     0.021 A 
ATOM     26  C   UNL d   1     -41.128-119.411 -52.018  0.00  0.00     0.021 A 
ATOM     27  C   UNL d   1     -41.232-120.164 -52.339  0.00  0.00     0.098 A 
ENDBRANCH   2  23
TORSDOF 5
ENDMDL
MODEL 4
REMARK VINA RESULT:       2.3      2.646      4.381
REMARK  5 active torsions:
REMARK  status: ('A' for Active; 'I' for Inactive)
REMARK    1  A    between atoms: N_9  and  C_2 
REMARK    2  A    between atoms: N_8  and  C_3 
REMARK    3  A    between atoms: N_10  and  C_6 
REMARK    4  A    between atoms: C_7  and  C_11 
REMARK    5  A    between atoms: C_13  and  N_10 
ROOT
ATOM      1  N   UNL d   1     -41.674-121.615 -51.161  0.00  0.00     0.133 NA
ATOM      2  C   UNL d   1     -41.743-122.442 -51.135  0.00  0.00     0.765 A 
ATOM      3  C   UNL d   1     -41.423-121.244 -51.854  0.00  0.00     0.765 A 
ATOM      4  N   UNL d   1     -41.560-122.892 -51.804  0.00  0.00     0.134 NA
ATOM      5  N   UNL d   1     -41.239-121.695 -52.523  0.00  0.00     0.134 NA
ATOM      6  C   UNL d   1     -41.307-122.517 -52.499  0.00  0.00     0.780 A 
ENDROOT
BRANCH   6   7
ATOM      7  N   UNL d   1     -41.125-122.970 -53.162  0.00  0.00    -0.058 NA
BRANCH   7   8
ATOM      8  C   UNL d   1     -41.669-123.041 -53.776  0.00  0.00     0.100 A 
ATOM      9  C   UNL d   1     -41.734-122.430 -54.337  0.00  0.00     0.024 A 
ATOM     10  C   UNL d   1     -42.280-122.499 -54.954  0.00  0.00     0.073 A 
ATOM     11  C   UNL d   1     -42.756-123.174 -55.009  0.00  0.00     0.004 A 
ATOM     12  C   UNL d   1     -42.684-123.775 -54.447  0.00  0.00     0.002 A 
ATOM     13  C   UNL d   1     -42.145-123.711 -53.834  0.00  0.00     0.020 A 
BRANCH  10  14
ATOM     14  C   UNL d   1     -42.348-121.902 -55.508  0.00  0.00     0.419 C 
ATOM     15  F   UNL d   1     -43.007-121.410 -55.499  0.00  0.00    -0.166 F 
ATOM     16  F   UNL d   1     -41.764-121.794 -56.069  0.00  0.00    -0.166 F 
ATOM     17  F   UNL d   1     -43.028-121.840 -55.046  0.00  0.00    -0.166 F 
ENDBRANCH  10  14
ENDBRANCH   7   8
ENDBRANCH   6   7
BRANCH   3  18
ATOM     18  N   UNL d   1     -41.354-120.418 -51.880  0.00  0.00    -0.137 N 
ATOM     19  C   UNL d   1     -41.193-120.002 -51.182  0.00  0.00     0.098 A 
ATOM     20  C   UNL d   1     -41.126-119.181 -51.216  0.00  0.00     0.021 A 
ATOM     21  C   UNL d   1     -41.376-119.208 -52.613  0.00  0.00     0.021 A 
ATOM     22  C   UNL d   1     -41.446-120.024 -52.598  0.00  0.00     0.098 A 
ENDBRANCH   3  18
BRANCH   2  23
ATOM     23  N   UNL d   1     -41.996-122.817 -50.440  0.00  0.00    -0.137 N 
ATOM     24  C   UNL d   1     -42.745-122.658 -50.146  0.00  0.00     0.098 A 
ATOM     25  C   UNL d   1     -42.991-123.029 -49.462  0.00  0.00     0.021 A 
ATOM     26  C   UNL d   1     -41.747-123.712 -49.366  0.00  0.00     0.021 A 
ATOM     27  C   UNL d   1     -41.489-123.342 -50.057  0.00  0.00     0.098 A 
ENDBRANCH   2  23
TORSDOF 5
ENDMDL
