MODEL 1
REMARK VINA RESULT:      44.1      0.000      0.000
REMARK  5 active torsions:
REMARK  status: ('A' for Active; 'I' for Inactive)
REMARK    1  A    between atoms: N_6  and  S_1 
REMARK    2  A    between atoms: C_11  and  S_1 
REMARK    3  A    between atoms: C_2  and  N_5 
REMARK    4  A    between atoms: C_9  and  C_4 
REMARK       I    between atoms: N_5  and  C_7 
REMARK    5  A    between atoms: C_7  and  C_15 
ROOT
ATOM      1  C   UNL d   1      46.034 -18.662  41.826  0.00  0.00     0.104 A 
ATOM      2  C   UNL d   1      45.677 -18.127  40.304  0.00  0.00     0.058 A 
ATOM      3  C   UNL d   1      46.638 -18.555  41.271  0.00  0.00     0.013 A 
ATOM      4  C   UNL d   1      45.229 -18.495  41.610  0.00  0.00     0.013 A 
ATOM      5  C   UNL d   1      46.485 -18.296  40.523  0.00  0.00     0.005 A 
ATOM      6  C   UNL d   1      45.074 -18.232  40.853  0.00  0.00     0.005 A 
ENDROOT
BRANCH   2   7
ATOM      7  C   UNL d   1      45.492 -17.852  39.522  0.00  0.00     0.281 C 
ATOM      8  N   UNL d   1      45.367 -17.047  39.387  0.00  0.00    -0.183 NA
ATOM      9  O   UNL d   1      45.432 -18.380  38.883  0.00  0.00    -0.265 OA
BRANCH   8  10
ATOM     10  C   UNL d   1      45.187 -16.788  38.621  0.00  0.00     0.197 A 
ATOM     11  N   UNL d   1      44.436 -16.426  38.455  0.00  0.00    -0.220 NA
ATOM     12  C   UNL d   1      44.422 -16.232  37.665  0.00  0.00     0.096 A 
ATOM     13  C   UNL d   1      45.132 -16.458  37.333  0.00  0.00     0.058 A 
ATOM     14  S   UNL d   1      45.610 -16.802  37.917  0.00  0.00    -0.046 SA
BRANCH  12  15
ATOM     15  C   UNL d   1      43.836 -15.881  37.240  0.00  0.00     0.048 A 
ATOM     16  S   UNL d   1      43.742 -15.728  36.433  0.00  0.00    -0.085 SA
ATOM     17  C   UNL d   1      43.024 -15.351  36.334  0.00  0.00     0.035 A 
ATOM     18  C   UNL d   1      42.669 -15.263  37.042  0.00  0.00     0.007 A 
ATOM     19  C   UNL d   1      43.170 -15.593  37.620  0.00  0.00     0.009 A 
ENDBRANCH  12  15
ENDBRANCH   8  10
ENDBRANCH   2   7
BRANCH   1  20
ATOM     20  S   UNL d   1      46.188 -18.931  42.604  0.00  0.00     0.271 S 
ATOM     21  O   UNL d   1      46.130 -19.744  42.328  0.00  0.00    -0.200 OA
ATOM     22  O   UNL d   1      46.247 -18.150  42.881  0.00  0.00    -0.200 OA
BRANCH  20  23
ATOM     23  N   UNL d   1      46.344 -19.224  43.387  0.00  0.00    -0.229 N 
ATOM     24  C   UNL d   1      46.341 -18.705  44.032  0.00  0.00     0.092 A 
ATOM     25  C   UNL d   1      46.493 -18.994  44.796  0.00  0.00     0.020 A 
ATOM     26  C   UNL d   1      46.645 -19.799  44.896  0.00  0.00     0.003 A 
ATOM     27  C   UNL d   1      46.647 -20.309  44.254  0.00  0.00     0.020 A 
ATOM     28  C   UNL d   1      46.501 -20.040  43.513  0.00  0.00     0.092 A 
ENDBRANCH  20  23
ENDBRANCH   1  20
TORSDOF 5
ENDMDL
