MODEL 1
REMARK VINA RESULT:      -5.2      0.000      0.000
REMARK  2 active torsions:
REMARK  status: ('A' for Active; 'I' for Inactive)
REMARK    1  A    between atoms: C_7  and  N_2 
REMARK    2  A    between atoms: C_9  and  C_5 
ROOT
ATOM      1  C   UNL d   1      57.896  -0.554  30.577  0.00  0.00     0.208 A 
ATOM      2  N   UNL d   1      58.362   0.129  30.624  0.00  0.00    -0.266 N 
ATOM      3  N   UNL d   1      57.289  -0.670  31.117  0.00  0.00    -0.199 NA
ATOM      4  N   UNL d   1      57.601   0.570  31.753  0.00  0.00    -0.206 NA
ATOM      5  C   UNL d   1      57.136  -0.113  31.707  0.00  0.00     0.167 A 
ATOM      6  C   UNL d   1      58.210   0.682  31.210  0.00  0.00     0.186 A 
ATOM      7  S   UNL d   1      58.031  -1.124  29.996  0.00  0.00    -0.038 SA
ENDROOT
BRANCH   2   8
ATOM      8  C   UNL d   1      58.964   0.245  30.090  0.00  0.00     0.068 A 
ATOM      9  C   UNL d   1      59.718   0.048  30.285  0.00  0.00     0.018 A 
ATOM     10  C   UNL d   1      60.358   0.161  29.741  0.00  0.00     0.002 A 
ATOM     11  C   UNL d   1      60.192   0.479  29.005  0.00  0.00     0.000 A 
ATOM     12  C   UNL d   1      59.419   0.682  28.803  0.00  0.00     0.002 A 
ATOM     13  C   UNL d   1      60.811   0.599  28.455  0.00  0.00     0.000 C 
ATOM     14  C   UNL d   1      58.799   0.563  29.353  0.00  0.00     0.018 A 
ENDBRANCH   2   8
BRANCH   5  15
ATOM     15  C   UNL d   1      56.539  -0.235  32.231  0.00  0.00     0.036 A 
ATOM     16  C   UNL d   1      56.339  -1.003  32.467  0.00  0.00     0.003 A 
ATOM     17  C   UNL d   1      55.731  -1.136  33.001  0.00  0.00     0.000 A 
ATOM     18  C   UNL d   1      55.304  -0.484  33.316  0.00  0.00     0.000 A 
ATOM     19  C   UNL d   1      55.497   0.281  33.087  0.00  0.00     0.000 A 
ATOM     20  C   UNL d   1      56.112   0.417  32.546  0.00  0.00     0.003 A 
ENDBRANCH   5  15
TORSDOF 2
ENDMDL
MODEL 2
REMARK VINA RESULT:      -4.5      0.944      4.455
REMARK  2 active torsions:
REMARK  status: ('A' for Active; 'I' for Inactive)
REMARK    1  A    between atoms: C_7  and  N_2 
REMARK    2  A    between atoms: C_9  and  C_5 
ROOT
ATOM      1  C   UNL d   1      58.242   0.213  31.365  0.00  0.00     0.208 A 
ATOM      2  N   UNL d   1      57.541  -0.212  31.252  0.00  0.00    -0.266 N 
ATOM      3  N   UNL d   1      58.839   0.170  30.804  0.00  0.00    -0.199 NA
ATOM      4  N   UNL d   1      58.049  -0.718  30.013  0.00  0.00    -0.206 NA
ATOM      5  C   UNL d   1      58.750  -0.293  30.127  0.00  0.00     0.167 A 
ATOM      6  C   UNL d   1      57.452  -0.672  30.579  0.00  0.00     0.186 A 
ATOM      7  S   UNL d   1      58.353   0.682  32.035  0.00  0.00    -0.038 SA
ENDROOT
BRANCH   2   8
ATOM      8  C   UNL d   1      56.948  -0.170  31.807  0.00  0.00     0.068 A 
ATOM      9  C   UNL d   1      56.714  -0.833  32.197  0.00  0.00     0.018 A 
ATOM     10  C   UNL d   1      56.099  -0.808  32.779  0.00  0.00     0.002 A 
ATOM     11  C   UNL d   1      55.742  -0.089  32.939  0.00  0.00     0.000 A 
ATOM     12  C   UNL d   1      55.981   0.592  32.539  0.00  0.00     0.002 A 
ATOM     13  C   UNL d   1      55.133  -0.044  33.510  0.00  0.00     0.000 C 
ATOM     14  C   UNL d   1      56.591   0.549  31.967  0.00  0.00     0.018 A 
ENDBRANCH   2   8
BRANCH   5  15
ATOM     15  C   UNL d   1      59.340  -0.330  29.582  0.00  0.00     0.036 A 
ATOM     16  C   UNL d   1      59.789  -1.021  29.497  0.00  0.00     0.003 A 
ATOM     17  C   UNL d   1      60.392  -1.067  28.945  0.00  0.00     0.000 A 
ATOM     18  C   UNL d   1      60.559  -0.405  28.455  0.00  0.00     0.000 A 
ATOM     19  C   UNL d   1      60.119   0.285  28.533  0.00  0.00     0.000 A 
ATOM     20  C   UNL d   1      59.507   0.333  29.093  0.00  0.00     0.003 A 
ENDBRANCH   5  15
TORSDOF 2
ENDMDL
MODEL 3
REMARK VINA RESULT:      -3.8      1.286      1.781
REMARK  2 active torsions:
REMARK  status: ('A' for Active; 'I' for Inactive)
REMARK    1  A    between atoms: C_7  and  N_2 
REMARK    2  A    between atoms: C_9  and  C_5 
ROOT
ATOM      1  C   UNL d   1      57.734   0.378  31.927  0.00  0.00     0.208 A 
ATOM      2  N   UNL d   1      57.388  -0.068  31.320  0.00  0.00    -0.266 N 
ATOM      3  N   UNL d   1      57.311   0.523  32.615  0.00  0.00    -0.199 NA
ATOM      4  N   UNL d   1      56.201  -0.215  32.105  0.00  0.00    -0.206 NA
ATOM      5  C   UNL d   1      56.546   0.230  32.712  0.00  0.00     0.167 A 
ATOM      6  C   UNL d   1      56.628  -0.359  31.416  0.00  0.00     0.186 A 
ATOM      7  S   UNL d   1      58.498   0.680  31.852  0.00  0.00    -0.038 SA
ENDROOT
BRANCH   2   8
ATOM      8  C   UNL d   1      57.806  -0.213  30.637  0.00  0.00     0.068 A 
ATOM      9  C   UNL d   1      58.125  -0.939  30.507  0.00  0.00     0.018 A 
ATOM     10  C   UNL d   1      58.562  -1.107  29.802  0.00  0.00     0.002 A 
ATOM     11  C   UNL d   1      58.656  -0.511  29.248  0.00  0.00     0.000 A 
ATOM     12  C   UNL d   1      58.329   0.235  29.381  0.00  0.00     0.002 A 
ATOM     13  C   UNL d   1      59.084  -0.659  28.546  0.00  0.00     0.000 C 
ATOM     14  C   UNL d   1      57.899   0.384  30.084  0.00  0.00     0.018 A 
ENDBRANCH   2   8
BRANCH   5  15
ATOM     15  C   UNL d   1      56.140   0.377  33.390  0.00  0.00     0.036 A 
ATOM     16  C   UNL d   1      56.543   0.464  34.108  0.00  0.00     0.003 A 
ATOM     17  C   UNL d   1      56.136   0.614  34.804  0.00  0.00     0.000 A 
ATOM     18  C   UNL d   1      55.299   0.681  34.790  0.00  0.00     0.000 A 
ATOM     19  C   UNL d   1      54.892   0.597  34.082  0.00  0.00     0.000 A 
ATOM     20  C   UNL d   1      55.303   0.445  33.376  0.00  0.00     0.003 A 
ENDBRANCH   5  15
TORSDOF 2
ENDMDL
