MODEL 1
REMARK VINA RESULT:      12.2      0.000      0.000
REMARK  6 active torsions:
REMARK  status: ('A' for Active; 'I' for Inactive)
REMARK    1  A    between atoms: N_3  and  S_1 
REMARK    2  A    between atoms: C_9  and  S_1 
REMARK    3  A    between atoms: C_2  and  N_3 
REMARK    4  A    between atoms: N_5  and  C_10 
REMARK    5  A    between atoms: C_19  and  C_8 
REMARK    6  A    between atoms: O_20  and  C_19 
ROOT
ATOM      1  S   UNL d   1      45.508 -15.864  44.783  0.00  0.00     0.287 S 
ATOM      2  O   UNL d   1      44.684 -15.862  44.613  0.00  0.00    -0.198 OA
ATOM      3  O   UNL d   1      46.333 -15.874  44.955  0.00  0.00    -0.198 OA
ENDROOT
BRANCH   1   4
ATOM      4  N   UNL d   1      45.456 -16.696  44.953  0.00  0.00    -0.130 NA
BRANCH   4   5
ATOM      5  C   UNL d   1      45.829 -17.237  44.459  0.00  0.00     0.227 A 
ATOM      6  S   UNL d   1      45.781 -17.366  43.636  0.00  0.00    -0.023 SA
ATOM      7  C   UNL d   1      46.298 -18.004  43.454  0.00  0.00     0.159 A 
ATOM      8  N   UNL d   1      46.646 -18.250  44.147  0.00  0.00    -0.137 NA
ATOM      9  N   UNL d   1      46.353 -17.773  44.768  0.00  0.00    -0.120 NA
BRANCH   7  10
ATOM     10  C   UNL d   1      46.425 -18.321  42.694  0.00  0.00     0.144 C 
BRANCH  10  11
ATOM     11  O   UNL d   1      46.497 -19.167  42.609  0.00  0.00    -0.324 OA
ATOM     12  C   UNL d   1      46.304 -19.545  41.876  0.00  0.00     0.182 C 
ENDBRANCH  10  11
ENDBRANCH   7  10
ENDBRANCH   4   5
ENDBRANCH   1   4
BRANCH   1  13
ATOM     13  C   UNL d   1      45.562 -15.038  44.614  0.00  0.00     0.105 A 
ATOM     14  C   UNL d   1      44.953 -14.670  44.258  0.00  0.00     0.015 A 
ATOM     15  C   UNL d   1      44.986 -13.864  44.084  0.00  0.00     0.024 A 
ATOM     16  C   UNL d   1      45.664 -13.440  44.286  0.00  0.00     0.127 A 
ATOM     17  C   UNL d   1      46.305 -13.816  44.658  0.00  0.00     0.024 A 
ATOM     18  C   UNL d   1      46.240 -14.611  44.815  0.00  0.00     0.015 A 
BRANCH  16  19
ATOM     19  N   UNL d   1      45.717 -12.612  44.116  0.00  0.00    -0.114 N 
ATOM     20  O   UNL d   1      45.420 -12.318  43.415  0.00  0.00    -0.532 OA
ATOM     21  O   UNL d   1      46.069 -12.093  44.654  0.00  0.00    -0.532 OA
ENDBRANCH  16  19
ENDBRANCH   1  13
TORSDOF 6
ENDMDL
MODEL 2
REMARK VINA RESULT:      13.9      1.118      4.740
REMARK  6 active torsions:
REMARK  status: ('A' for Active; 'I' for Inactive)
REMARK    1  A    between atoms: N_3  and  S_1 
REMARK    2  A    between atoms: C_9  and  S_1 
REMARK    3  A    between atoms: C_2  and  N_3 
REMARK    4  A    between atoms: N_5  and  C_10 
REMARK    5  A    between atoms: C_19  and  C_8 
REMARK    6  A    between atoms: O_20  and  C_19 
ROOT
ATOM      1  S   UNL d   1      45.865 -16.884  44.403  0.00  0.00     0.287 S 
ATOM      2  O   UNL d   1      46.554 -17.031  44.866  0.00  0.00    -0.198 OA
ATOM      3  O   UNL d   1      45.175 -16.731  43.945  0.00  0.00    -0.198 OA
ENDROOT
BRANCH   1   4
ATOM      4  N   UNL d   1      45.687 -16.221  44.906  0.00  0.00    -0.130 NA
BRANCH   4   5
ATOM      5  C   UNL d   1      45.723 -15.459  44.602  0.00  0.00     0.227 A 
ATOM      6  S   UNL d   1      45.176 -14.828  44.614  0.00  0.00    -0.023 SA
ATOM      7  C   UNL d   1      45.533 -14.183  44.207  0.00  0.00     0.159 A 
ATOM      8  N   UNL d   1      46.270 -14.420  43.959  0.00  0.00    -0.137 NA
ATOM      9  N   UNL d   1      46.385 -15.211  44.205  0.00  0.00    -0.120 NA
BRANCH   7  10
ATOM     10  C   UNL d   1      45.183 -13.436  44.085  0.00  0.00     0.144 C 
BRANCH  10  11
ATOM     11  O   UNL d   1      45.498 -12.932  43.472  0.00  0.00    -0.324 OA
ATOM     12  C   UNL d   1      45.004 -12.359  43.089  0.00  0.00     0.182 C 
ENDBRANCH  10  11
ENDBRANCH   7  10
ENDBRANCH   4   5
ENDBRANCH   1   4
BRANCH   1  13
ATOM     13  C   UNL d   1      46.041 -17.542  43.903  0.00  0.00     0.105 A 
ATOM     14  C   UNL d   1      46.166 -18.258  44.227  0.00  0.00     0.015 A 
ATOM     15  C   UNL d   1      46.339 -18.913  43.755  0.00  0.00     0.024 A 
ATOM     16  C   UNL d   1      46.380 -18.816  42.938  0.00  0.00     0.127 A 
ATOM     17  C   UNL d   1      46.251 -18.072  42.591  0.00  0.00     0.024 A 
ATOM     18  C   UNL d   1      46.083 -17.448  43.083  0.00  0.00     0.015 A 
BRANCH  16  19
ATOM     19  N   UNL d   1      46.556 -19.476  42.436  0.00  0.00    -0.114 N 
ATOM     20  O   UNL d   1      46.638 -20.222  42.756  0.00  0.00    -0.532 OA
ATOM     21  O   UNL d   1      46.647 -19.374  41.622  0.00  0.00    -0.532 OA
ENDBRANCH  16  19
ENDBRANCH   1  13
TORSDOF 6
ENDMDL
