MODEL 1
REMARK VINA RESULT:      -3.5      0.000      0.000
REMARK  4 active torsions:
REMARK  status: ('A' for Active; 'I' for Inactive)
REMARK    1  A    between atoms: N_7  and  C_1 
REMARK    2  A    between atoms: N_8  and  C_4 
REMARK    3  A    between atoms: N_11  and  C_5 
REMARK    4  A    between atoms: C_13  and  N_8 
ROOT
ATOM      1  C   UNL d   1     -41.758-122.549 -54.040  0.00  0.00     0.201 A 
ATOM      2  N   UNL d   1     -41.762-121.630 -52.922  0.00  0.00    -0.038 NA
ATOM      3  N   UNL d   1     -41.125-122.906 -52.822  0.00  0.00    -0.036 NA
ATOM      4  C   UNL d   1     -41.330-122.194 -52.482  0.00  0.00     0.753 A 
ATOM      5  C   UNL d   1     -41.969-121.820 -53.698  0.00  0.00     0.206 A 
ATOM      6  C   UNL d   1     -41.338-123.089 -53.603  0.00  0.00     0.227 A 
ATOM      7  N   UNL d   1     -41.123-123.817 -53.936  0.00  0.00    -0.125 N 
ENDROOT
BRANCH   4   8
ATOM      8  N   UNL d   1     -41.123-122.003 -51.705  0.00  0.00    -0.059 NA
BRANCH   8   9
ATOM      9  C   UNL d   1     -41.555-122.337 -51.083  0.00  0.00     0.100 A 
ATOM     10  C   UNL d   1     -41.329-123.062 -50.748  0.00  0.00     0.020 A 
ATOM     11  C   UNL d   1     -41.747-123.399 -50.137  0.00  0.00     0.008 A 
ATOM     12  C   UNL d   1     -42.414-123.021 -49.832  0.00  0.00     0.035 A 
ATOM     13  C   UNL d   1     -42.653-122.300 -50.152  0.00  0.00     0.008 A 
ATOM     14 BR   UNL d   1     -42.850-123.357 -49.205  0.00  0.00    -0.049 Br
ATOM     15  C   UNL d   1     -42.221-121.967 -50.774  0.00  0.00     0.020 A 
ENDBRANCH   8   9
ENDBRANCH   4   8
BRANCH   5  16
ATOM     16  N   UNL d   1     -42.409-121.259 -54.159  0.00  0.00    -0.222 NA
ATOM     17  C   UNL d   1     -42.269-120.444 -54.049  0.00  0.00     0.121 C 
ENDBRANCH   5  16
BRANCH   1  18
ATOM     18  N   UNL d   1     -41.985-122.717 -54.841  0.00  0.00    -0.107 N 
ATOM     19  O   UNL d   1     -42.770-122.894 -54.997  0.00  0.00    -0.531 OA
ATOM     20  O   UNL d   1     -41.432-122.702 -55.428  0.00  0.00    -0.531 OA
ENDBRANCH   1  18
TORSDOF 4
ENDMDL
MODEL 2
REMARK VINA RESULT:      -3.4      2.679      4.198
REMARK  4 active torsions:
REMARK  status: ('A' for Active; 'I' for Inactive)
REMARK    1  A    between atoms: N_7  and  C_1 
REMARK    2  A    between atoms: N_8  and  C_4 
REMARK    3  A    between atoms: N_11  and  C_5 
REMARK    4  A    between atoms: C_13  and  N_8 
ROOT
ATOM      1  C   UNL d   1     -42.788-122.831 -49.982  0.00  0.00     0.201 A 
ATOM      2  N   UNL d   1     -41.471-122.984 -50.564  0.00  0.00    -0.038 NA
ATOM      3  N   UNL d   1     -42.426-122.086 -51.133  0.00  0.00    -0.036 NA
ATOM      4  C   UNL d   1     -41.683-122.423 -51.145  0.00  0.00     0.753 A 
ATOM      5  C   UNL d   1     -42.031-123.179 -49.989  0.00  0.00     0.206 A 
ATOM      6  C   UNL d   1     -42.983-122.288 -50.552  0.00  0.00     0.227 A 
ATOM      7  N   UNL d   1     -43.734-121.937 -50.552  0.00  0.00    -0.125 N 
ENDROOT
BRANCH   4   8
ATOM      8  N   UNL d   1     -41.123-122.229 -51.720  0.00  0.00    -0.059 NA
BRANCH   8   9
ATOM      9  C   UNL d   1     -41.251-122.471 -52.501  0.00  0.00     0.100 A 
ATOM     10  C   UNL d   1     -41.133-123.260 -52.728  0.00  0.00     0.020 A 
ATOM     11  C   UNL d   1     -41.256-123.508 -53.493  0.00  0.00     0.008 A 
ATOM     12  C   UNL d   1     -41.506-122.972 -54.068  0.00  0.00     0.035 A 
ATOM     13  C   UNL d   1     -41.629-122.184 -53.861  0.00  0.00     0.008 A 
ATOM     14 BR   UNL d   1     -41.635-123.215 -54.856  0.00  0.00    -0.049 Br
ATOM     15  C   UNL d   1     -41.500-121.942 -53.080  0.00  0.00     0.020 A 
ENDBRANCH   8   9
ENDBRANCH   4   8
BRANCH   5  16
ATOM     16  N   UNL d   1     -41.831-123.747 -49.390  0.00  0.00    -0.222 NA
ATOM     17  C   UNL d   1     -41.128-123.646 -48.953  0.00  0.00     0.121 C 
ENDBRANCH   5  16
BRANCH   1  18
ATOM     18  N   UNL d   1     -43.343-123.051 -49.379  0.00  0.00    -0.107 N 
ATOM     19  O   UNL d   1     -43.872-123.658 -49.534  0.00  0.00    -0.531 OA
ATOM     20  O   UNL d   1     -43.343-122.664 -48.672  0.00  0.00    -0.531 OA
ENDBRANCH   1  18
TORSDOF 4
ENDMDL
MODEL 3
REMARK VINA RESULT:      -3.4      0.754      1.563
REMARK  4 active torsions:
REMARK  status: ('A' for Active; 'I' for Inactive)
REMARK    1  A    between atoms: N_7  and  C_1 
REMARK    2  A    between atoms: N_8  and  C_4 
REMARK    3  A    between atoms: N_11  and  C_5 
REMARK    4  A    between atoms: C_13  and  N_8 
ROOT
ATOM      1  C   UNL d   1     -42.092-122.098 -54.066  0.00  0.00     0.201 A 
ATOM      2  N   UNL d   1     -41.498-123.174 -53.301  0.00  0.00    -0.038 NA
ATOM      3  N   UNL d   1     -41.713-121.888 -52.716  0.00  0.00    -0.036 NA
ATOM      4  C   UNL d   1     -41.447-122.656 -52.648  0.00  0.00     0.753 A 
ATOM      5  C   UNL d   1     -41.822-122.883 -54.002  0.00  0.00     0.206 A 
ATOM      6  C   UNL d   1     -42.037-121.604 -53.425  0.00  0.00     0.227 A 
ATOM      7  N   UNL d   1     -42.304-120.821 -53.480  0.00  0.00    -0.125 N 
ENDROOT
BRANCH   4   8
ATOM      8  N   UNL d   1     -41.123-122.947 -51.946  0.00  0.00    -0.059 NA
BRANCH   8   9
ATOM      9  C   UNL d   1     -41.598-122.977 -51.269  0.00  0.00     0.100 A 
ATOM     10  C   UNL d   1     -41.945-123.690 -51.024  0.00  0.00     0.020 A 
ATOM     11  C   UNL d   1     -42.414-123.730 -50.360  0.00  0.00     0.008 A 
ATOM     12  C   UNL d   1     -42.555-123.053 -49.910  0.00  0.00     0.035 A 
ATOM     13  C   UNL d   1     -42.219-122.337 -50.138  0.00  0.00     0.008 A 
ATOM     14 BR   UNL d   1     -43.034-123.084 -49.227  0.00  0.00    -0.049 Br
ATOM     15  C   UNL d   1     -41.744-122.307 -50.815  0.00  0.00     0.020 A 
ENDBRANCH   8   9
ENDBRANCH   4   8
BRANCH   5  16
ATOM     16  N   UNL d   1     -41.881-123.397 -54.677  0.00  0.00    -0.222 NA
ATOM     17  C   UNL d   1     -41.205-123.816 -54.929  0.00  0.00     0.121 C 
ENDBRANCH   5  16
BRANCH   1  18
ATOM     18  N   UNL d   1     -42.421-121.827 -54.800  0.00  0.00    -0.107 N 
ATOM     19  O   UNL d   1     -41.920-121.486 -55.352  0.00  0.00    -0.531 OA
ATOM     20  O   UNL d   1     -43.210-121.908 -54.942  0.00  0.00    -0.531 OA
ENDBRANCH   1  18
TORSDOF 4
ENDMDL
MODEL 4
REMARK VINA RESULT:      -2.6      2.577      3.919
REMARK  4 active torsions:
REMARK  status: ('A' for Active; 'I' for Inactive)
REMARK    1  A    between atoms: N_7  and  C_1 
REMARK    2  A    between atoms: N_8  and  C_4 
REMARK    3  A    between atoms: N_11  and  C_5 
REMARK    4  A    between atoms: C_13  and  N_8 
ROOT
ATOM      1  C   UNL d   1     -42.219-122.921 -50.297  0.00  0.00     0.201 A 
ATOM      2  N   UNL d   1     -42.263-121.937 -51.359  0.00  0.00    -0.038 NA
ATOM      3  N   UNL d   1     -41.162-122.841 -51.237  0.00  0.00    -0.036 NA
ATOM      4  C   UNL d   1     -41.527-122.225 -51.629  0.00  0.00     0.753 A 
ATOM      5  C   UNL d   1     -42.597-122.293 -50.693  0.00  0.00     0.206 A 
ATOM      6  C   UNL d   1     -41.505-123.192 -50.570  0.00  0.00     0.227 A 
ATOM      7  N   UNL d   1     -41.123-123.817 -50.181  0.00  0.00    -0.125 N 
ENDROOT
BRANCH   4   8
ATOM      8  N   UNL d   1     -41.192-121.869 -52.295  0.00  0.00    -0.059 NA
BRANCH   8   9
ATOM      9  C   UNL d   1     -41.387-122.161 -53.045  0.00  0.00     0.100 A 
ATOM     10  C   UNL d   1     -41.860-121.719 -53.564  0.00  0.00     0.020 A 
ATOM     11  C   UNL d   1     -42.058-121.996 -54.303  0.00  0.00     0.008 A 
ATOM     12  C   UNL d   1     -41.788-122.734 -54.556  0.00  0.00     0.035 A 
ATOM     13  C   UNL d   1     -41.318-123.187 -54.053  0.00  0.00     0.008 A 
ATOM     14 BR   UNL d   1     -41.985-123.028 -55.311  0.00  0.00    -0.049 Br
ATOM     15  C   UNL d   1     -41.123-122.895 -53.304  0.00  0.00     0.020 A 
ENDBRANCH   8   9
ENDBRANCH   4   8
BRANCH   5  16
ATOM     16  N   UNL d   1     -43.345-122.012 -50.404  0.00  0.00    -0.222 NA
ATOM     17  C   UNL d   1     -43.960-121.864 -50.947  0.00  0.00     0.121 C 
ENDBRANCH   5  16
BRANCH   1  18
ATOM     18  N   UNL d   1     -42.588-123.267 -49.615  0.00  0.00    -0.107 N 
ATOM     19  O   UNL d   1     -42.258-123.128 -48.878  0.00  0.00    -0.531 OA
ATOM     20  O   UNL d   1     -43.248-123.722 -49.701  0.00  0.00    -0.531 OA
ENDBRANCH   1  18
TORSDOF 4
ENDMDL
MODEL 5
REMARK VINA RESULT:      -1.8      2.520      4.063
REMARK  4 active torsions:
REMARK  status: ('A' for Active; 'I' for Inactive)
REMARK    1  A    between atoms: N_7  and  C_1 
REMARK    2  A    between atoms: N_8  and  C_4 
REMARK    3  A    between atoms: N_11  and  C_5 
REMARK    4  A    between atoms: C_13  and  N_8 
ROOT
ATOM      1  C   UNL d   1     -41.612-122.281 -51.233  0.00  0.00     0.201 A 
ATOM      2  N   UNL d   1     -41.616-123.406 -52.145  0.00  0.00    -0.038 NA
ATOM      3  N   UNL d   1     -41.125-122.127 -52.555  0.00  0.00    -0.036 NA
ATOM      4  C   UNL d   1     -41.283-122.908 -52.728  0.00  0.00     0.753 A 
ATOM      5  C   UNL d   1     -41.775-123.080 -51.403  0.00  0.00     0.206 A 
ATOM      6  C   UNL d   1     -41.289-121.808 -51.807  0.00  0.00     0.227 A 
ATOM      7  N   UNL d   1     -41.123-121.012 -51.645  0.00  0.00    -0.125 N 
ENDROOT
BRANCH   4   8
ATOM      8  N   UNL d   1     -41.123-123.234 -53.470  0.00  0.00    -0.059 NA
BRANCH   8   9
ATOM      9  C   UNL d   1     -41.495-122.912 -54.136  0.00  0.00     0.100 A 
ATOM     10  C   UNL d   1     -41.126-122.319 -54.585  0.00  0.00     0.020 A 
ATOM     11  C   UNL d   1     -41.483-121.996 -55.241  0.00  0.00     0.008 A 
ATOM     12  C   UNL d   1     -42.230-122.255 -55.478  0.00  0.00     0.035 A 
ATOM     13  C   UNL d   1     -42.611-122.843 -55.044  0.00  0.00     0.008 A 
ATOM     14 BR   UNL d   1     -42.605-121.931 -56.149  0.00  0.00    -0.049 Br
ATOM     15  C   UNL d   1     -42.239-123.165 -54.378  0.00  0.00     0.020 A 
ENDBRANCH   8   9
ENDBRANCH   4   8
BRANCH   5  16
ATOM     16  N   UNL d   1     -42.114-123.572 -50.798  0.00  0.00    -0.222 NA
ATOM     17  C   UNL d   1     -42.907-123.817 -50.872  0.00  0.00     0.121 C 
ENDBRANCH   5  16
BRANCH   1  18
ATOM     18  N   UNL d   1     -41.787-121.974 -50.461  0.00  0.00    -0.107 N 
ATOM     19  O   UNL d   1     -42.529-121.654 -50.324  0.00  0.00    -0.531 OA
ATOM     20  O   UNL d   1     -41.228-122.002 -49.880  0.00  0.00    -0.531 OA
ENDBRANCH   1  18
TORSDOF 4
ENDMDL
