MODEL 1
REMARK VINA RESULT:       2.2      0.000      0.000
REMARK  4 active torsions:
REMARK  status: ('A' for Active; 'I' for Inactive)
REMARK       I    between atoms: C_2  and  N_1 
REMARK    1  A    between atoms: C_3  and  N_1 
REMARK       I    between atoms: N_6  and  C_2 
REMARK    2  A    between atoms: C_9  and  N_6 
REMARK    3  A    between atoms: C_10  and  C_9 
REMARK    4  A    between atoms: C_11  and  C_10 
ROOT
ATOM      1  N   UNL d   1      14.284  11.787  -2.494  0.00  0.00    -0.172 NA
ATOM      2  C   UNL d   1      13.554  11.788  -2.878  0.00  0.00     0.370 C 
ATOM      3  O   UNL d   1      12.858  11.796  -2.442  0.00  0.00    -0.242 OA
ATOM      4  N   UNL d   1      13.525  11.780  -3.707  0.00  0.00    -0.189 NA
ENDROOT
BRANCH   1   5
ATOM      5  C   UNL d   1      14.312  11.795  -1.666  0.00  0.00     0.167 A 
ATOM      6  N   UNL d   1      15.036  11.818  -1.279  0.00  0.00    -0.225 NA
ATOM      7  C   UNL d   1      15.062  11.826  -0.457  0.00  0.00     0.101 A 
ATOM      8  C   UNL d   1      14.363  11.811  -0.017  0.00  0.00     0.021 A 
ATOM      9  C   UNL d   1      13.639  11.788  -0.413  0.00  0.00     0.005 A 
ATOM     10  C   UNL d   1      13.611  11.780  -1.232  0.00  0.00     0.039 A 
ENDBRANCH   1   5
BRANCH   4  11
ATOM     11  C   UNL d   1      12.795  11.780  -4.091  0.00  0.00     0.104 C 
BRANCH  11  12
ATOM     12  C   UNL d   1      12.769  11.832  -4.910  0.00  0.00     0.021 C 
BRANCH  12  13
ATOM     13  C   UNL d   1      13.476  11.838  -5.342  0.00  0.00     0.002 C 
ATOM     14  C   UNL d   1      13.454  11.828  -6.161  0.00  0.00     0.000 C 
ENDBRANCH  12  13
ENDBRANCH  11  12
ENDBRANCH   4  11
TORSDOF 4
ENDMDL
