MODEL 1
REMARK VINA RESULT:      -5.9      0.000      0.000
REMARK  4 active torsions:
REMARK  status: ('A' for Active; 'I' for Inactive)
REMARK    1  A    between atoms: C_8  and  N_1 
REMARK    2  A    between atoms: C_6  and  C_5 
REMARK    3  A    between atoms: C_7  and  C_6 
REMARK       I    between atoms: N_10  and  C_7 
REMARK    4  A    between atoms: C_13  and  N_10 
ROOT
ATOM      1  N   UNL d   1     -41.592-122.426 -53.582  0.00  0.00    -0.236 N 
ATOM      2  C   UNL d   1     -41.296-123.167 -53.373  0.00  0.00     0.298 A 
ATOM      3  C   UNL d   1     -41.602-121.954 -52.914  0.00  0.00     0.274 A 
ATOM      4  S   UNL d   1     -41.123-123.147 -52.565  0.00  0.00    -0.022 SA
ATOM      5  C   UNL d   1     -41.313-122.395 -52.280  0.00  0.00     0.095 A 
ATOM      6  O   UNL d   1     -41.189-123.815 -53.874  0.00  0.00    -0.259 OA
ATOM      7  O   UNL d   1     -41.857-121.172 -52.874  0.00  0.00    -0.266 OA
ENDROOT
BRANCH   5   8
ATOM      8  C   UNL d   1     -41.227-122.136 -51.501  0.00  0.00     0.074 C 
BRANCH   8   9
ATOM      9  C   UNL d   1     -41.477-122.612 -50.884  0.00  0.00     0.280 C 
ATOM     10  N   UNL d   1     -41.978-122.308 -50.303  0.00  0.00    -0.208 NA
ATOM     11  O   UNL d   1     -41.228-123.399 -50.842  0.00  0.00    -0.265 OA
BRANCH  10  12
ATOM     12  C   UNL d   1     -42.232-122.786 -49.681  0.00  0.00     0.085 A 
ATOM     13  C   UNL d   1     -41.733-122.929 -49.039  0.00  0.00     0.019 A 
ATOM     14  C   UNL d   1     -41.987-123.408 -48.416  0.00  0.00     0.002 A 
ATOM     15  C   UNL d   1     -42.739-123.746 -48.428  0.00  0.00     0.000 A 
ATOM     16  C   UNL d   1     -43.237-123.594 -49.083  0.00  0.00     0.002 A 
ATOM     17  C   UNL d   1     -42.981-123.121 -49.695  0.00  0.00     0.019 A 
ENDBRANCH  10  12
ENDBRANCH   8   9
ENDBRANCH   5   8
BRANCH   1  18
ATOM     18  C   UNL d   1     -41.836-122.198 -54.336  0.00  0.00     0.070 A 
ATOM     19  C   UNL d   1     -42.642-122.172 -54.521  0.00  0.00     0.018 A 
ATOM     20  C   UNL d   1     -42.880-121.944 -55.276  0.00  0.00     0.002 A 
ATOM     21  C   UNL d   1     -42.325-121.743 -55.844  0.00  0.00     0.000 A 
ATOM     22  C   UNL d   1     -41.516-121.769 -55.659  0.00  0.00     0.002 A 
ATOM     23  C   UNL d   1     -41.275-121.997 -54.906  0.00  0.00     0.018 A 
ENDBRANCH   1  18
TORSDOF 4
ENDMDL
MODEL 2
REMARK VINA RESULT:      -5.2      0.819      1.486
REMARK  4 active torsions:
REMARK  status: ('A' for Active; 'I' for Inactive)
REMARK    1  A    between atoms: C_8  and  N_1 
REMARK    2  A    between atoms: C_6  and  C_5 
REMARK    3  A    between atoms: C_7  and  C_6 
REMARK       I    between atoms: N_10  and  C_7 
REMARK    4  A    between atoms: C_13  and  N_10 
ROOT
ATOM      1  N   UNL d   1     -41.497-122.353 -52.975  0.00  0.00    -0.236 N 
ATOM      2  C   UNL d   1     -41.332-121.781 -52.406  0.00  0.00     0.298 A 
ATOM      3  C   UNL d   1     -41.449-123.090 -52.623  0.00  0.00     0.274 A 
ATOM      4  S   UNL d   1     -41.181-122.173 -51.694  0.00  0.00    -0.022 SA
ATOM      5  C   UNL d   1     -41.253-122.984 -51.829  0.00  0.00     0.095 A 
ATOM      6  O   UNL d   1     -41.319-120.962 -52.519  0.00  0.00    -0.259 OA
ATOM      7  O   UNL d   1     -41.573-123.816 -52.991  0.00  0.00    -0.266 OA
ENDROOT
BRANCH   5   8
ATOM      8  C   UNL d   1     -41.148-123.580 -51.266  0.00  0.00     0.074 C 
BRANCH   8   9
ATOM      9  C   UNL d   1     -41.587-123.570 -50.576  0.00  0.00     0.280 C 
ATOM     10  N   UNL d   1     -41.239-123.328 -49.868  0.00  0.00    -0.208 NA
ATOM     11  O   UNL d   1     -42.380-123.802 -50.588  0.00  0.00    -0.265 OA
BRANCH  10  12
ATOM     12  C   UNL d   1     -41.680-123.317 -49.171  0.00  0.00     0.085 A 
ATOM     13  C   UNL d   1     -42.359-122.851 -49.118  0.00  0.00     0.019 A 
ATOM     14  C   UNL d   1     -42.800-122.840 -48.419  0.00  0.00     0.002 A 
ATOM     15  C   UNL d   1     -42.567-123.292 -47.771  0.00  0.00     0.000 A 
ATOM     16  C   UNL d   1     -41.877-123.761 -47.835  0.00  0.00     0.002 A 
ATOM     17  C   UNL d   1     -41.446-123.768 -48.526  0.00  0.00     0.019 A 
ENDBRANCH  10  12
ENDBRANCH   8   9
ENDBRANCH   5   8
BRANCH   1  18
ATOM     18  C   UNL d   1     -41.680-122.210 -53.767  0.00  0.00     0.070 A 
ATOM     19  C   UNL d   1     -41.122-122.367 -54.357  0.00  0.00     0.018 A 
ATOM     20  C   UNL d   1     -41.311-122.222 -55.146  0.00  0.00     0.002 A 
ATOM     21  C   UNL d   1     -42.046-121.924 -55.349  0.00  0.00     0.000 A 
ATOM     22  C   UNL d   1     -42.607-121.766 -54.758  0.00  0.00     0.002 A 
ATOM     23  C   UNL d   1     -42.422-121.910 -53.969  0.00  0.00     0.018 A 
ENDBRANCH   1  18
TORSDOF 4
ENDMDL
