MODEL 1
REMARK VINA RESULT:      -2.8      0.000      0.000
REMARK  6 active torsions:
REMARK  status: ('A' for Active; 'I' for Inactive)
REMARK    1  A    between atoms: N_3  and  S_1 
REMARK    2  A    between atoms: C_7  and  S_1 
REMARK    3  A    between atoms: C_2  and  N_3 
REMARK    4  A    between atoms: N_9  and  C_5 
REMARK    5  A    between atoms: C_22  and  N_9 
REMARK    6  A    between atoms: C_21  and  C_22 
ROOT
ATOM      1  C   UNL d   1      33.157  21.439 -22.534  0.00  0.00     0.211 A 
ATOM      2  N   UNL d   1      33.135  22.251 -22.645  0.00  0.00    -0.222 NA
ATOM      3  C   UNL d   1      33.207  20.931 -23.183  0.00  0.00     0.200 A 
ATOM      4  N   UNL d   1      33.235  21.251 -23.952  0.00  0.00    -0.223 NA
ATOM      5  C   UNL d   1      33.163  22.562 -23.400  0.00  0.00     0.101 A 
ATOM      6  C   UNL d   1      33.213  22.070 -24.057  0.00  0.00     0.101 A 
ATOM      7  C   UNL d   1      33.240  22.389 -24.817  0.00  0.00     0.021 A 
ATOM      8  C   UNL d   1      33.141  23.384 -23.503  0.00  0.00     0.021 A 
ATOM      9  C   UNL d   1      33.218  23.204 -24.916  0.00  0.00     0.002 A 
ATOM     10  C   UNL d   1      33.168  23.700 -24.265  0.00  0.00     0.002 A 
ENDROOT
BRANCH   1  11
ATOM     11  N   UNL d   1      33.129  21.125 -21.775  0.00  0.00    -0.136 NA
BRANCH  11  12
ATOM     12  S   UNL d   1      32.478  21.404 -21.231  0.00  0.00     0.287 S 
ATOM     13  O   UNL d   1      31.713  20.945 -21.238  0.00  0.00    -0.198 OA
ATOM     14  O   UNL d   1      32.167  20.735 -21.630  0.00  0.00    -0.198 OA
BRANCH  12  15
ATOM     15  C   UNL d   1      32.418  22.026 -20.693  0.00  0.00     0.105 A 
ATOM     16  C   UNL d   1      32.861  22.016 -19.991  0.00  0.00     0.013 A 
ATOM     17  C   UNL d   1      32.802  22.644 -19.445  0.00  0.00     0.001 A 
ATOM     18  C   UNL d   1      33.241  22.629 -18.753  0.00  0.00     0.000 C 
ATOM     19  C   UNL d   1      32.295  23.283 -19.610  0.00  0.00     0.000 A 
ATOM     20  C   UNL d   1      31.855  23.289 -20.312  0.00  0.00     0.001 A 
ATOM     21  C   UNL d   1      31.914  22.667 -20.850  0.00  0.00     0.013 A 
ENDBRANCH  12  15
ENDBRANCH  11  12
ENDBRANCH   1  11
BRANCH   3  22
ATOM     22  N   UNL d   1      33.230  20.108 -23.079  0.00  0.00    -0.223 NA
BRANCH  22  23
ATOM     23  C   UNL d   1      33.240  19.600 -23.738  0.00  0.00     0.101 C 
BRANCH  23  24
ATOM     24  C   UNL d   1      33.111  18.791 -23.637  0.00  0.00     0.021 A 
ATOM     25  C   UNL d   1      33.112  18.304 -22.965  0.00  0.00     0.028 A 
ATOM     26  C   UNL d   1      32.959  17.492 -23.047  0.00  0.00     0.119 A 
ATOM     27  O   UNL d   1      32.923  16.882 -22.492  0.00  0.00    -0.300 OA
ATOM     28  C   UNL d   1      32.808  17.177 -23.792  0.00  0.00     0.119 A 
ATOM     29  C   UNL d   1      32.749  16.184 -22.895  0.00  0.00     0.304 A 
ATOM     30  O   UNL d   1      32.677  16.361 -23.695  0.00  0.00    -0.300 OA
ATOM     31  C   UNL d   1      32.807  17.662 -24.457  0.00  0.00     0.026 A 
ATOM     32  C   UNL d   1      32.958  18.467 -24.383  0.00  0.00     0.004 A 
ENDBRANCH  23  24
ENDBRANCH  22  23
ENDBRANCH   3  22
TORSDOF 6
ENDMDL
