MODEL 1
REMARK VINA RESULT:       1.2      0.000      0.000
REMARK  9 active torsions:
REMARK  status: ('A' for Active; 'I' for Inactive)
REMARK    1  A    between atoms: C_19  and  N_1 
REMARK    2  A    between atoms: S_15  and  C_2 
REMARK    3  A    between atoms: C_7  and  C_10 
REMARK       I    between atoms: N_12  and  C_7 
REMARK    4  A    between atoms: C_20  and  N_12 
REMARK    5  A    between atoms: C_22  and  S_15 
REMARK    6  A    between atoms: C_24  and  C_19 
REMARK    7  A    between atoms: C_21  and  C_20 
REMARK    8  A    between atoms: C_27  and  C_24 
REMARK    9  A    between atoms: C_26  and  C_27 
ROOT
ATOM      1  N   UNL d   1      58.181   0.586  35.775  0.00  0.00    -0.195 NA
ATOM      2  C   UNL d   1      58.087   0.625  34.954  0.00  0.00     0.086 C 
ATOM      3  C   UNL d   1      57.995   0.666  34.137  0.00  0.00     0.170 C 
ENDROOT
BRANCH   3   4
ATOM      4  S   UNL d   1      57.591   0.073  33.739  0.00  0.00    -0.060 SA
BRANCH   4   5
ATOM      5  C   UNL d   1      57.468   0.132  32.905  0.00  0.00     0.178 A 
ATOM      6  N   UNL d   1      56.739   0.379  32.607  0.00  0.00    -0.253 N 
ATOM      7  C   UNL d   1      56.623   0.435  31.794  0.00  0.00     0.268 A 
ATOM      8  C   UNL d   1      57.247   0.241  31.276  0.00  0.00     0.074 A 
ATOM      9  O   UNL d   1      55.897   0.681  31.490  0.00  0.00    -0.267 OA
ATOM     10  C   UNL d   1      57.969  -0.003  31.571  0.00  0.00     0.088 A 
ATOM     11  C   UNL d   1      57.131   0.298  30.459  0.00  0.00     0.006 A 
ATOM     12  C   UNL d   1      58.583  -0.194  31.054  0.00  0.00     0.024 A 
ATOM     13  N   UNL d   1      58.083  -0.059  32.385  0.00  0.00    -0.222 NA
ATOM     14  C   UNL d   1      58.467  -0.137  30.242  0.00  0.00     0.059 A 
ATOM     15  C   UNL d   1      57.746   0.107  29.947  0.00  0.00     0.005 A 
BRANCH   6  16
ATOM     16  C   UNL d   1      56.119   0.571  33.137  0.00  0.00     0.085 C 
BRANCH  16  17
ATOM     17  C   UNL d   1      55.393   0.190  33.049  0.00  0.00     0.019 C 
BRANCH  17  18
ATOM     18  C   UNL d   1      54.929   0.049  33.729  0.00  0.00     0.002 C 
BRANCH  18  19
ATOM     19  C   UNL d   1      54.164   0.385  33.777  0.00  0.00     0.000 C 
ATOM     20  C   UNL d   1      53.850   0.556  34.515  0.00  0.00     0.000 C 
ENDBRANCH  18  19
ENDBRANCH  17  18
ENDBRANCH  16  17
ENDBRANCH   6  16
BRANCH  14  21
ATOM     21  C   UNL d   1      59.080  -0.328  29.726  0.00  0.00     0.279 C 
ATOM     22  N   UNL d   1      59.287  -1.114  29.594  0.00  0.00    -0.204 NA
ATOM     23  O   UNL d   1      59.494   0.272  29.337  0.00  0.00    -0.265 OA
BRANCH  22  24
ATOM     24  C   UNL d   1      59.903  -1.304  29.076  0.00  0.00     0.127 C 
BRANCH  24  25
ATOM     25  C   UNL d   1      60.254  -2.057  29.107  0.00  0.00     0.119 A 
ATOM     26  O   UNL d   1      60.482  -2.454  29.789  0.00  0.00    -0.304 OA
ATOM     27  C   UNL d   1      60.805  -3.182  29.566  0.00  0.00     0.123 A 
ATOM     28  C   UNL d   1      60.773  -3.229  28.740  0.00  0.00     0.029 A 
ATOM     29  C   UNL d   1      60.434  -2.536  28.461  0.00  0.00     0.028 A 
ENDBRANCH  24  25
ENDBRANCH  22  24
ENDBRANCH  14  21
ENDBRANCH   4   5
ENDBRANCH   3   4
TORSDOF 9
ENDMDL
MODEL 2
REMARK VINA RESULT:       2.5      1.895      5.960
REMARK  9 active torsions:
REMARK  status: ('A' for Active; 'I' for Inactive)
REMARK    1  A    between atoms: C_19  and  N_1 
REMARK    2  A    between atoms: S_15  and  C_2 
REMARK    3  A    between atoms: C_7  and  C_10 
REMARK       I    between atoms: N_12  and  C_7 
REMARK    4  A    between atoms: C_20  and  N_12 
REMARK    5  A    between atoms: C_22  and  S_15 
REMARK    6  A    between atoms: C_24  and  C_19 
REMARK    7  A    between atoms: C_21  and  C_20 
REMARK    8  A    between atoms: C_27  and  C_24 
REMARK    9  A    between atoms: C_26  and  C_27 
ROOT
ATOM      1  N   UNL d   1      57.728  -5.362  28.459  0.00  0.00    -0.195 NA
ATOM      2  C   UNL d   1      57.870  -4.550  28.525  0.00  0.00     0.086 C 
ATOM      3  C   UNL d   1      58.010  -3.741  28.590  0.00  0.00     0.170 C 
ENDROOT
BRANCH   3   4
ATOM      4  S   UNL d   1      58.648  -3.468  29.029  0.00  0.00    -0.060 SA
BRANCH   4   5
ATOM      5  C   UNL d   1      58.731  -2.641  29.182  0.00  0.00     0.178 A 
ATOM      6  N   UNL d   1      59.392  -2.230  28.906  0.00  0.00    -0.253 N 
ATOM      7  C   UNL d   1      59.471  -1.426  29.057  0.00  0.00     0.268 A 
ATOM      8  C   UNL d   1      58.878  -1.029  29.491  0.00  0.00     0.074 A 
ATOM      9  O   UNL d   1      60.128  -1.009  28.784  0.00  0.00    -0.267 OA
ATOM     10  C   UNL d   1      58.224  -1.436  29.764  0.00  0.00     0.088 A 
ATOM     11  C   UNL d   1      58.957  -0.221  29.643  0.00  0.00     0.006 A 
ATOM     12  C   UNL d   1      57.641  -1.039  30.193  0.00  0.00     0.024 A 
ATOM     13  N   UNL d   1      58.147  -2.242  29.612  0.00  0.00    -0.222 NA
ATOM     14  C   UNL d   1      57.719  -0.235  30.344  0.00  0.00     0.059 A 
ATOM     15  C   UNL d   1      58.373   0.172  30.071  0.00  0.00     0.005 A 
BRANCH   6  16
ATOM     16  C   UNL d   1      59.981  -2.639  28.472  0.00  0.00     0.085 C 
BRANCH  16  17
ATOM     17  C   UNL d   1      60.731  -2.720  28.805  0.00  0.00     0.019 C 
BRANCH  17  18
ATOM     18  C   UNL d   1      61.132  -3.446  28.715  0.00  0.00     0.002 C 
BRANCH  18  19
ATOM     19  C   UNL d   1      60.819  -4.133  29.076  0.00  0.00     0.000 C 
ATOM     20  C   UNL d   1      61.091  -4.868  28.836  0.00  0.00     0.000 C 
ENDBRANCH  18  19
ENDBRANCH  17  18
ENDBRANCH  16  17
ENDBRANCH   6  16
BRANCH  14  21
ATOM     21  C   UNL d   1      57.137   0.160  30.772  0.00  0.00     0.279 C 
ATOM     22  N   UNL d   1      57.060   0.041  31.583  0.00  0.00    -0.204 NA
ATOM     23  O   UNL d   1      56.624   0.681  30.387  0.00  0.00    -0.265 OA
BRANCH  22  24
ATOM     24  C   UNL d   1      56.475   0.439  32.011  0.00  0.00     0.127 C 
BRANCH  24  25
ATOM     25  C   UNL d   1      56.272   0.180  32.775  0.00  0.00     0.119 A 
ATOM     26  O   UNL d   1      56.451   0.566  33.478  0.00  0.00    -0.304 OA
ATOM     27  C   UNL d   1      56.146   0.118  34.102  0.00  0.00     0.123 A 
ATOM     28  C   UNL d   1      55.777  -0.548  33.776  0.00  0.00     0.029 A 
ATOM     29  C   UNL d   1      55.856  -0.507  32.961  0.00  0.00     0.028 A 
ENDBRANCH  24  25
ENDBRANCH  22  24
ENDBRANCH  14  21
ENDBRANCH   4   5
ENDBRANCH   3   4
TORSDOF 9
ENDMDL
MODEL 3
REMARK VINA RESULT:       3.1      1.543      2.044
REMARK  9 active torsions:
REMARK  status: ('A' for Active; 'I' for Inactive)
REMARK    1  A    between atoms: C_19  and  N_1 
REMARK    2  A    between atoms: S_15  and  C_2 
REMARK    3  A    between atoms: C_7  and  C_10 
REMARK       I    between atoms: N_12  and  C_7 
REMARK    4  A    between atoms: C_20  and  N_12 
REMARK    5  A    between atoms: C_22  and  S_15 
REMARK    6  A    between atoms: C_24  and  C_19 
REMARK    7  A    between atoms: C_21  and  C_20 
REMARK    8  A    between atoms: C_27  and  C_24 
REMARK    9  A    between atoms: C_26  and  C_27 
ROOT
ATOM      1  N   UNL d   1      54.413  -3.226  33.309  0.00  0.00    -0.195 NA
ATOM      2  C   UNL d   1      54.923  -2.705  32.919  0.00  0.00     0.086 C 
ATOM      3  C   UNL d   1      55.430  -2.188  32.528  0.00  0.00     0.170 C 
ENDROOT
BRANCH   3   4
ATOM      4  S   UNL d   1      55.681  -1.500  32.898  0.00  0.00    -0.060 SA
BRANCH   4   5
ATOM      5  C   UNL d   1      56.307  -1.043  32.561  0.00  0.00     0.178 A 
ATOM      6  N   UNL d   1      56.628  -0.405  32.976  0.00  0.00    -0.253 N 
ATOM      7  C   UNL d   1      57.237   0.038  32.645  0.00  0.00     0.268 A 
ATOM      8  C   UNL d   1      57.526  -0.162  31.888  0.00  0.00     0.074 A 
ATOM      9  O   UNL d   1      57.562   0.676  33.054  0.00  0.00    -0.267 OA
ATOM     10  C   UNL d   1      57.208  -0.793  31.478  0.00  0.00     0.088 A 
ATOM     11  C   UNL d   1      58.137   0.284  31.555  0.00  0.00     0.006 A 
ATOM     12  C   UNL d   1      57.497  -0.986  30.730  0.00  0.00     0.024 A 
ATOM     13  N   UNL d   1      56.598  -1.235  31.811  0.00  0.00    -0.222 NA
ATOM     14  C   UNL d   1      58.105  -0.543  30.398  0.00  0.00     0.059 A 
ATOM     15  C   UNL d   1      58.423   0.088  30.809  0.00  0.00     0.005 A 
BRANCH   6  16
ATOM     16  C   UNL d   1      56.330  -0.214  33.735  0.00  0.00     0.085 C 
BRANCH  16  17
ATOM     17  C   UNL d   1      55.906   0.488  33.827  0.00  0.00     0.019 C 
BRANCH  17  18
ATOM     18  C   UNL d   1      55.231   0.487  34.318  0.00  0.00     0.002 C 
BRANCH  18  19
ATOM     19  C   UNL d   1      55.330   0.517  35.149  0.00  0.00     0.000 C 
ATOM     20  C   UNL d   1      54.681   0.680  35.621  0.00  0.00     0.000 C 
ENDBRANCH  18  19
ENDBRANCH  17  18
ENDBRANCH  16  17
ENDBRANCH   6  16
BRANCH  14  21
ATOM     21  C   UNL d   1      58.394  -0.736  29.652  0.00  0.00     0.279 C 
ATOM     22  N   UNL d   1      59.051  -1.226  29.571  0.00  0.00    -0.204 NA
ATOM     23  O   UNL d   1      58.023  -0.439  28.976  0.00  0.00    -0.265 OA
BRANCH  22  24
ATOM     24  C   UNL d   1      59.340  -1.419  28.820  0.00  0.00     0.127 C 
BRANCH  24  25
ATOM     25  C   UNL d   1      59.917  -2.012  28.738  0.00  0.00     0.119 A 
ATOM     26  O   UNL d   1      59.783  -2.823  28.775  0.00  0.00    -0.304 OA
ATOM     27  C   UNL d   1      60.507  -3.207  28.665  0.00  0.00     0.123 A 
ATOM     28  C   UNL d   1      61.087  -2.626  28.560  0.00  0.00     0.029 A 
ATOM     29  C   UNL d   1      60.721  -1.893  28.605  0.00  0.00     0.028 A 
ENDBRANCH  24  25
ENDBRANCH  22  24
ENDBRANCH  14  21
ENDBRANCH   4   5
ENDBRANCH   3   4
TORSDOF 9
ENDMDL
MODEL 4
REMARK VINA RESULT:       3.4      1.648      2.306
REMARK  9 active torsions:
REMARK  status: ('A' for Active; 'I' for Inactive)
REMARK    1  A    between atoms: C_19  and  N_1 
REMARK    2  A    between atoms: S_15  and  C_2 
REMARK    3  A    between atoms: C_7  and  C_10 
REMARK       I    between atoms: N_12  and  C_7 
REMARK    4  A    between atoms: C_20  and  N_12 
REMARK    5  A    between atoms: C_22  and  S_15 
REMARK    6  A    between atoms: C_24  and  C_19 
REMARK    7  A    between atoms: C_21  and  C_20 
REMARK    8  A    between atoms: C_27  and  C_24 
REMARK    9  A    between atoms: C_26  and  C_27 
ROOT
ATOM      1  N   UNL d   1      54.373  -2.413  33.328  0.00  0.00    -0.195 NA
ATOM      2  C   UNL d   1      54.991  -2.166  32.838  0.00  0.00     0.086 C 
ATOM      3  C   UNL d   1      55.607  -1.922  32.348  0.00  0.00     0.170 C 
ENDROOT
BRANCH   3   4
ATOM      4  S   UNL d   1      56.037  -1.248  32.534  0.00  0.00    -0.060 SA
BRANCH   4   5
ATOM      5  C   UNL d   1      56.666  -0.997  32.029  0.00  0.00     0.178 A 
ATOM      6  N   UNL d   1      57.049  -0.278  32.165  0.00  0.00    -0.253 N 
ATOM      7  C   UNL d   1      57.661  -0.036  31.672  0.00  0.00     0.268 A 
ATOM      8  C   UNL d   1      57.892  -0.522  31.035  0.00  0.00     0.074 A 
ATOM      9  O   UNL d   1      58.047   0.682  31.803  0.00  0.00    -0.267 OA
ATOM     10  C   UNL d   1      57.514  -1.234  30.901  0.00  0.00     0.088 A 
ATOM     11  C   UNL d   1      58.508  -0.280  30.540  0.00  0.00     0.006 A 
ATOM     12  C   UNL d   1      57.746  -1.711  30.269  0.00  0.00     0.024 A 
ATOM     13  N   UNL d   1      56.901  -1.475  31.395  0.00  0.00    -0.222 NA
ATOM     14  C   UNL d   1      58.358  -1.470  29.776  0.00  0.00     0.059 A 
ATOM     15  C   UNL d   1      58.736  -0.759  29.911  0.00  0.00     0.005 A 
BRANCH   6  16
ATOM     16  C   UNL d   1      56.808   0.203  32.808  0.00  0.00     0.085 C 
BRANCH  16  17
ATOM     17  C   UNL d   1      57.223   0.147  33.519  0.00  0.00     0.019 C 
BRANCH  17  18
ATOM     18  C   UNL d   1      57.036   0.677  34.135  0.00  0.00     0.002 C 
BRANCH  18  19
ATOM     19  C   UNL d   1      57.035   0.402  34.925  0.00  0.00     0.000 C 
ATOM     20  C   UNL d   1      56.401   0.586  35.411  0.00  0.00     0.000 C 
ENDBRANCH  18  19
ENDBRANCH  17  18
ENDBRANCH  16  17
ENDBRANCH   6  16
BRANCH  14  21
ATOM     21  C   UNL d   1      58.590  -1.947  29.146  0.00  0.00     0.279 C 
ATOM     22  N   UNL d   1      59.272  -2.405  29.197  0.00  0.00    -0.204 NA
ATOM     23  O   UNL d   1      58.136  -1.969  28.456  0.00  0.00    -0.265 OA
BRANCH  22  24
ATOM     24  C   UNL d   1      59.504  -2.884  28.563  0.00  0.00     0.127 C 
BRANCH  24  25
ATOM     25  C   UNL d   1      59.947  -3.573  28.704  0.00  0.00     0.119 A 
ATOM     26  O   UNL d   1      59.657  -4.277  29.013  0.00  0.00    -0.304 OA
ATOM     27  C   UNL d   1      60.285  -4.814  29.060  0.00  0.00     0.123 A 
ATOM     28  C   UNL d   1      60.963  -4.433  28.777  0.00  0.00     0.029 A 
ATOM     29  C   UNL d   1      60.752  -3.671  28.559  0.00  0.00     0.028 A 
ENDBRANCH  24  25
ENDBRANCH  22  24
ENDBRANCH  14  21
ENDBRANCH   4   5
ENDBRANCH   3   4
TORSDOF 9
ENDMDL
