MODEL 1
REMARK VINA RESULT:      -4.9      0.000      0.000
REMARK  5 active torsions:
REMARK  status: ('A' for Active; 'I' for Inactive)
REMARK    1  A    between atoms: N_5  and  C_1 
REMARK    2  A    between atoms: C_8  and  C_2 
REMARK       I    between atoms: C_6  and  N_5 
REMARK    3  A    between atoms: C_9  and  C_6 
REMARK    4  A    between atoms: O_12  and  C_8 
REMARK    5  A    between atoms: C_17  and  O_12 
ROOT
ATOM      1  C   UNL d   1     -41.297-122.421 -52.656  0.00  0.00     0.114 A 
ATOM      2  C   UNL d   1     -41.494-122.775 -51.394  0.00  0.00     0.094 A 
ATOM      3  S   UNL d   1     -41.523-123.032 -52.155  0.00  0.00    -0.062 SA
ATOM      4  C   UNL d   1     -41.240-121.976 -51.435  0.00  0.00     0.013 A 
ATOM      5  C   UNL d   1     -41.128-121.780 -52.182  0.00  0.00     0.026 A 
ATOM      6  C   UNL d   1     -41.126-121.473 -50.790  0.00  0.00     0.001 C 
ENDROOT
BRANCH   1   7
ATOM      7  N   UNL d   1     -41.246-122.441 -53.510  0.00  0.00    -0.205 NA
ATOM      8  C   UNL d   1     -41.915-122.295 -53.958  0.00  0.00     0.255 C 
ATOM      9  O   UNL d   1     -42.630-122.130 -53.605  0.00  0.00    -0.270 OA
BRANCH   8  10
ATOM     10  C   UNL d   1     -41.870-122.313 -54.770  0.00  0.00     0.073 C 
ATOM     11  C   UNL d   1     -41.891-121.594 -55.291  0.00  0.00     0.009 C 
ATOM     12  C   UNL d   1     -41.796-123.051 -55.208  0.00  0.00     0.009 C 
ATOM     13  C   UNL d   1     -41.830-122.345 -55.480  0.00  0.00     0.009 C 
ENDBRANCH   8  10
ENDBRANCH   1   7
BRANCH   2  14
ATOM     14  C   UNL d   1     -41.676-123.207 -50.707  0.00  0.00     0.306 C 
ATOM     15  O   UNL d   1     -41.129-123.746 -50.435  0.00  0.00    -0.258 OA
BRANCH  14  16
ATOM     16  O   UNL d   1     -42.379-123.103 -50.308  0.00  0.00    -0.271 OA
BRANCH  16  17
ATOM     17  C   UNL d   1     -42.599-123.619 -49.711  0.00  0.00     0.126 C 
ATOM     18  C   UNL d   1     -43.336-123.522 -49.354  0.00  0.00     0.029 C 
ENDBRANCH  16  17
ENDBRANCH  14  16
ENDBRANCH   2  14
TORSDOF 5
ENDMDL
MODEL 2
REMARK VINA RESULT:      -4.0      0.826      1.141
REMARK  5 active torsions:
REMARK  status: ('A' for Active; 'I' for Inactive)
REMARK    1  A    between atoms: N_5  and  C_1 
REMARK    2  A    between atoms: C_8  and  C_2 
REMARK       I    between atoms: C_6  and  N_5 
REMARK    3  A    between atoms: C_9  and  C_6 
REMARK    4  A    between atoms: O_12  and  C_8 
REMARK    5  A    between atoms: C_17  and  O_12 
ROOT
ATOM      1  C   UNL d   1     -41.441-122.796 -52.096  0.00  0.00     0.114 A 
ATOM      2  C   UNL d   1     -41.868-122.666 -50.848  0.00  0.00     0.094 A 
ATOM      3  S   UNL d   1     -41.896-123.134 -51.501  0.00  0.00    -0.062 SA
ATOM      4  C   UNL d   1     -41.375-122.019 -51.055  0.00  0.00     0.013 A 
ATOM      5  C   UNL d   1     -41.131-122.107 -51.791  0.00  0.00     0.026 A 
ATOM      6  C   UNL d   1     -41.178-121.386 -50.562  0.00  0.00     0.001 C 
ENDROOT
BRANCH   1   7
ATOM      7  N   UNL d   1     -41.309-123.100 -52.885  0.00  0.00    -0.205 NA
ATOM      8  C   UNL d   1     -41.598-122.687 -53.529  0.00  0.00     0.255 C 
ATOM      9  O   UNL d   1     -42.010-121.991 -53.432  0.00  0.00    -0.270 OA
BRANCH   8  10
ATOM     10  C   UNL d   1     -41.476-122.972 -54.281  0.00  0.00     0.073 C 
ATOM     11  C   UNL d   1     -41.614-123.814 -54.528  0.00  0.00     0.009 C 
ATOM     12  C   UNL d   1     -41.193-122.470 -54.920  0.00  0.00     0.009 C 
ATOM     13  C   UNL d   1     -41.364-123.207 -54.943  0.00  0.00     0.009 C 
ENDBRANCH   8  10
ENDBRANCH   1   7
BRANCH   2  14
ATOM     14  C   UNL d   1     -42.246-122.793 -50.118  0.00  0.00     0.306 C 
ATOM     15  O   UNL d   1     -43.021-122.554 -50.039  0.00  0.00    -0.258 OA
BRANCH  14  16
ATOM     16  O   UNL d   1     -41.863-123.147 -49.492  0.00  0.00    -0.271 OA
BRANCH  16  17
ATOM     17  C   UNL d   1     -42.284-123.411 -48.841  0.00  0.00     0.126 C 
ATOM     18  C   UNL d   1     -41.880-123.801 -48.237  0.00  0.00     0.029 C 
ENDBRANCH  16  17
ENDBRANCH  14  16
ENDBRANCH   2  14
TORSDOF 5
ENDMDL
MODEL 3
REMARK VINA RESULT:      -3.8      1.165      4.154
REMARK  5 active torsions:
REMARK  status: ('A' for Active; 'I' for Inactive)
REMARK    1  A    between atoms: N_5  and  C_1 
REMARK    2  A    between atoms: C_8  and  C_2 
REMARK       I    between atoms: C_6  and  N_5 
REMARK    3  A    between atoms: C_9  and  C_6 
REMARK    4  A    between atoms: O_12  and  C_8 
REMARK    5  A    between atoms: C_17  and  O_12 
ROOT
ATOM      1  C   UNL d   1     -41.324-122.825 -51.860  0.00  0.00     0.114 A 
ATOM      2  C   UNL d   1     -41.538-122.485 -53.124  0.00  0.00     0.094 A 
ATOM      3  S   UNL d   1     -41.566-122.223 -52.364  0.00  0.00    -0.062 SA
ATOM      4  C   UNL d   1     -41.267-123.278 -53.079  0.00  0.00     0.013 A 
ATOM      5  C   UNL d   1     -41.145-123.466 -52.331  0.00  0.00     0.026 A 
ATOM      6  C   UNL d   1     -41.147-123.784 -53.720  0.00  0.00     0.001 C 
ENDROOT
BRANCH   1   7
ATOM      7  N   UNL d   1     -41.266-122.797 -51.007  0.00  0.00    -0.205 NA
ATOM      8  C   UNL d   1     -41.896-123.049 -50.552  0.00  0.00     0.255 C 
ATOM      9  O   UNL d   1     -42.579-123.328 -50.896  0.00  0.00    -0.270 OA
BRANCH   8  10
ATOM     10  C   UNL d   1     -41.845-123.024 -49.740  0.00  0.00     0.073 C 
ATOM     11  C   UNL d   1     -42.266-122.433 -49.228  0.00  0.00     0.009 C 
ATOM     12  C   UNL d   1     -41.365-123.583 -49.294  0.00  0.00     0.009 C 
ATOM     13  C   UNL d   1     -41.791-123.014 -49.031  0.00  0.00     0.009 C 
ENDBRANCH   8  10
ENDBRANCH   1   7
BRANCH   2  14
ATOM     14  C   UNL d   1     -41.734-122.062 -53.812  0.00  0.00     0.306 C 
ATOM     15  O   UNL d   1     -41.282-121.414 -54.009  0.00  0.00    -0.258 OA
BRANCH  14  16
ATOM     16  O   UNL d   1     -42.361-122.281 -54.286  0.00  0.00    -0.271 OA
BRANCH  16  17
ATOM     17  C   UNL d   1     -42.570-121.827 -54.935  0.00  0.00     0.126 C 
ATOM     18  C   UNL d   1     -42.979-122.185 -55.555  0.00  0.00     0.029 C 
ENDBRANCH  16  17
ENDBRANCH  14  16
ENDBRANCH   2  14
TORSDOF 5
ENDMDL
