MODEL 1
REMARK VINA RESULT:      12.9      0.000      0.000
REMARK  2 active torsions:
REMARK  status: ('A' for Active; 'I' for Inactive)
REMARK    1  A    between atoms: S_2  and  C_1 
REMARK    2  A    between atoms: N_3  and  S_2 
ROOT
ATOM      1  C   UNL d   1      45.015 -15.098  36.929  0.00  0.00     0.125 A 
ATOM      2  C   UNL d   1      45.204 -14.419  37.412  0.00  0.00    -0.009 A 
ATOM      3  C   UNL d   1      45.325 -15.577  36.457  0.00  0.00     0.031 A 
ATOM      4  C   UNL d   1      45.472 -14.595  37.194  0.00  0.00    -0.009 A 
ATOM      5  C   UNL d   1      46.345 -14.399  37.092  0.00  0.00    -0.007 A 
ATOM      6  C   UNL d   1      46.135 -15.401  36.359  0.00  0.00     0.045 A 
ATOM      7  C   UNL d   1      45.888 -14.258  37.339  0.00  0.00    -0.007 A 
ATOM      8  C   UNL d   1      46.646 -14.864  36.635  0.00  0.00    -0.022 A 
ATOM      9  C   UNL d   1      46.310 -14.870  36.729  0.00  0.00    -0.022 A 
ATOM     10  C   UNL d   1      46.554 -13.710  37.578  0.00  0.00    -0.001 A 
ENDROOT
BRANCH   1  11
ATOM     11  S   UNL d   1      44.276 -15.770  36.612  0.00  0.00     0.142 S 
ATOM     12  O   UNL d   1      44.702 -16.455  36.402  0.00  0.00    -0.233 OA
BRANCH  11  13
ATOM     13  N   UNL d   1      43.479 -15.751  36.544  0.00  0.00    -0.251 N 
ATOM     14  C   UNL d   1      43.085 -15.041  36.614  0.00  0.00     0.108 A 
ATOM     15  C   UNL d   1      42.233 -15.036  36.539  0.00  0.00     0.100 A 
ATOM     16  N   UNL d   1      41.839 -15.718  36.401  0.00  0.00    -0.299 N 
ATOM     17  C   UNL d   1      42.269 -16.428  36.334  0.00  0.00     0.100 A 
ATOM     18  C   UNL d   1      41.019 -15.494  36.361  0.00  0.00     0.100 C 
ATOM     19  C   UNL d   1      43.083 -16.439  36.405  0.00  0.00     0.108 A 
ENDBRANCH  11  13
ENDBRANCH   1  11
TORSDOF 2
ENDMDL
MODEL 2
REMARK VINA RESULT:      13.1      7.622      8.149
REMARK  2 active torsions:
REMARK  status: ('A' for Active; 'I' for Inactive)
REMARK    1  A    between atoms: S_2  and  C_1 
REMARK    2  A    between atoms: N_3  and  S_2 
ROOT
ATOM      1  C   UNL d   1      46.254 -18.290  43.472  0.00  0.00     0.125 A 
ATOM      2  C   UNL d   1      46.276 -18.359  42.621  0.00  0.00    -0.009 A 
ATOM      3  C   UNL d   1      46.347 -18.690  44.088  0.00  0.00     0.031 A 
ATOM      4  C   UNL d   1      46.347 -18.661  42.851  0.00  0.00    -0.009 A 
ATOM      5  C   UNL d   1      46.554 -19.511  42.634  0.00  0.00    -0.007 A 
ATOM      6  C   UNL d   1      46.539 -19.478  43.893  0.00  0.00     0.045 A 
ATOM      7  C   UNL d   1      46.437 -19.023  42.440  0.00  0.00    -0.007 A 
ATOM      8  C   UNL d   1      46.644 -19.899  43.231  0.00  0.00    -0.022 A 
ATOM      9  C   UNL d   1      46.563 -19.560  43.228  0.00  0.00    -0.022 A 
ATOM     10  C   UNL d   1      46.580 -19.598  41.770  0.00  0.00    -0.001 A 
ENDROOT
BRANCH   1  11
ATOM     11  S   UNL d   1      46.098 -17.662  44.296  0.00  0.00     0.142 S 
ATOM     12  O   UNL d   1      46.257 -18.148  44.955  0.00  0.00    -0.233 OA
BRANCH  11  13
ATOM     13  N   UNL d   1      45.882 -16.899  44.400  0.00  0.00    -0.251 N 
ATOM     14  C   UNL d   1      46.322 -16.305  44.056  0.00  0.00     0.108 A 
ATOM     15  C   UNL d   1      46.079 -15.493  44.175  0.00  0.00     0.100 A 
ATOM     16  N   UNL d   1      45.432 -15.330  44.616  0.00  0.00    -0.299 N 
ATOM     17  C   UNL d   1      45.002 -15.958  44.955  0.00  0.00     0.100 A 
ATOM     18  C   UNL d   1      45.370 -14.481  44.607  0.00  0.00     0.100 C 
ATOM     19  C   UNL d   1      45.230 -16.735  44.845  0.00  0.00     0.108 A 
ENDBRANCH  11  13
ENDBRANCH   1  11
TORSDOF 2
ENDMDL
MODEL 3
REMARK VINA RESULT:      14.0      7.525      8.133
REMARK  2 active torsions:
REMARK  status: ('A' for Active; 'I' for Inactive)
REMARK    1  A    between atoms: S_2  and  C_1 
REMARK    2  A    between atoms: N_3  and  S_2 
ROOT
ATOM      1  C   UNL d   1      45.643 -14.646  44.671  0.00  0.00     0.125 A 
ATOM      2  C   UNL d   1      46.277 -14.127  44.911  0.00  0.00    -0.009 A 
ATOM      3  C   UNL d   1      44.979 -14.637  44.345  0.00  0.00     0.031 A 
ATOM      4  C   UNL d   1      45.959 -13.992  44.737  0.00  0.00    -0.009 A 
ATOM      5  C   UNL d   1      45.741 -13.146  44.517  0.00  0.00    -0.007 A 
ATOM      6  C   UNL d   1      44.771 -13.856  44.138  0.00  0.00     0.045 A 
ATOM      7  C   UNL d   1      46.116 -13.460  44.742  0.00  0.00    -0.007 A 
ATOM      8  C   UNL d   1      45.096 -13.137  44.200  0.00  0.00    -0.022 A 
ATOM      9  C   UNL d   1      45.254 -13.425  44.316  0.00  0.00    -0.022 A 
ATOM     10  C   UNL d   1      46.376 -12.604  44.754  0.00  0.00    -0.001 A 
ENDROOT
BRANCH   1  11
ATOM     11  S   UNL d   1      45.285 -15.631  44.629  0.00  0.00     0.142 S 
ATOM     12  O   UNL d   1      44.506 -15.576  44.924  0.00  0.00    -0.233 OA
BRANCH  11  13
ATOM     13  N   UNL d   1      45.580 -16.336  44.396  0.00  0.00    -0.251 N 
ATOM     14  C   UNL d   1      45.600 -16.523  43.602  0.00  0.00     0.108 A 
ATOM     15  C   UNL d   1      45.919 -17.281  43.367  0.00  0.00     0.100 A 
ATOM     16  N   UNL d   1      46.190 -17.790  43.921  0.00  0.00    -0.299 N 
ATOM     17  C   UNL d   1      46.157 -17.571  44.724  0.00  0.00     0.100 A 
ATOM     18  C   UNL d   1      46.458 -18.469  43.482  0.00  0.00     0.100 C 
ATOM     19  C   UNL d   1      45.854 -16.849  44.954  0.00  0.00     0.108 A 
ENDBRANCH  11  13
ENDBRANCH   1  11
TORSDOF 2
ENDMDL
