MODEL 1
REMARK VINA RESULT:      36.1      0.000      0.000
REMARK  5 active torsions:
REMARK  status: ('A' for Active; 'I' for Inactive)
REMARK    1  A    between atoms: C_11  and  C_3 
REMARK    2  A    between atoms: C_14  and  C_7 
REMARK    3  A    between atoms: O_18  and  C_11 
REMARK    4  A    between atoms: C_16  and  C_20 
REMARK    5  A    between atoms: C_20  and  O_18 
ROOT
ATOM      1  C   UNL d   1      14.757  15.088  -1.828  0.00  0.00     0.172 A 
ATOM      2  C   UNL d   1      14.759  14.444  -1.318  0.00  0.00     0.094 A 
ATOM      3  C   UNL d   1      14.248  13.608  -2.348  0.00  0.00     0.081 A 
ATOM      4  C   UNL d   1      15.020  14.544  -0.537  0.00  0.00     0.286 A 
ATOM      5  N   UNL d   1      15.009  15.824  -1.572  0.00  0.00    -0.172 NA
ATOM      6  N   UNL d   1      15.272  15.284  -0.285  0.00  0.00    -0.152 NA
ATOM      7  C   UNL d   1      14.505  13.705  -1.576  0.00  0.00     0.014 A 
ATOM      8  C   UNL d   1      14.242  14.252  -2.869  0.00  0.00     0.088 A 
ATOM      9  N   UNL d   1      14.499  14.996  -2.604  0.00  0.00    -0.226 NA
ATOM     10  C   UNL d   1      15.266  15.923  -0.801  0.00  0.00     0.373 A 
ATOM     11  O   UNL d   1      15.025  13.900  -0.016  0.00  0.00    -0.265 OA
ATOM     12  O   UNL d   1      15.520  16.667  -0.547  0.00  0.00    -0.242 OA
ATOM     13  C   UNL d   1      13.984  14.158  -3.643  0.00  0.00     0.021 C 
ENDROOT
BRANCH   3  14
ATOM     14  C   UNL d   1      13.992  12.872  -2.614  0.00  0.00     0.302 C 
ATOM     15  O   UNL d   1      14.463  12.203  -2.482  0.00  0.00    -0.259 OA
BRANCH  14  16
ATOM     16  O   UNL d   1      13.273  12.797  -3.010  0.00  0.00    -0.271 OA
BRANCH  16  17
ATOM     17  C   UNL d   1      13.037  12.062  -3.305  0.00  0.00     0.126 C 
BRANCH  17  18
ATOM     18  C   UNL d   1      13.304  11.810  -4.046  0.00  0.00     0.027 C 
ATOM     19  C   UNL d   1      12.788  11.779  -4.685  0.00  0.00     0.002 C 
ENDBRANCH  17  18
ENDBRANCH  16  17
ENDBRANCH  14  16
ENDBRANCH   3  14
BRANCH   7  20
ATOM     20  C   UNL d   1      14.511  13.064  -1.057  0.00  0.00     0.001 A 
ATOM     21  C   UNL d   1      15.223  12.686  -0.880  0.00  0.00     0.000 A 
ATOM     22  C   UNL d   1      15.233  12.040  -0.359  0.00  0.00     0.000 A 
ATOM     23  C   UNL d   1      14.529  11.780  -0.021  0.00  0.00     0.000 A 
ATOM     24  C   UNL d   1      13.817  12.158  -0.198  0.00  0.00     0.000 A 
ATOM     25  C   UNL d   1      13.811  12.803  -0.720  0.00  0.00     0.000 A 
ENDBRANCH   7  20
TORSDOF 5
ENDMDL
