MODEL 1
REMARK VINA RESULT:      20.8      0.000      0.000
REMARK  6 active torsions:
REMARK  status: ('A' for Active; 'I' for Inactive)
REMARK    1  A    between atoms: N_2  and  S_1 
REMARK    2  A    between atoms: C_3  and  S_1 
REMARK    3  A    between atoms: C_7  and  N_2 
REMARK    4  A    between atoms: C_10  and  C_7 
REMARK    5  A    between atoms: O_14  and  C_11 
REMARK    6  A    between atoms: C_17  and  O_14 
ROOT
ATOM      1  S   UNL d   1      13.676  12.037  -2.729  0.00  0.00     0.285 S 
ATOM      2  O   UNL d   1      12.956  12.091  -2.330  0.00  0.00    -0.198 OA
ATOM      3  O   UNL d   1      14.397  11.983  -3.127  0.00  0.00    -0.198 OA
ENDROOT
BRANCH   1   4
ATOM      4  N   UNL d   1      13.282  11.782  -3.407  0.00  0.00    -0.155 NA
BRANCH   4   5
ATOM      5  C   UNL d   1      12.818  12.310  -3.838  0.00  0.00     0.131 C 
BRANCH   5   6
ATOM      6  C   UNL d   1      12.967  12.431  -4.640  0.00  0.00     0.101 A 
ATOM      7  N   UNL d   1      12.874  11.811  -5.174  0.00  0.00    -0.242 NA
ATOM      8  C   UNL d   1      13.023  11.932  -5.977  0.00  0.00     0.099 A 
ATOM      9  C   UNL d   1      13.264  12.673  -6.245  0.00  0.00     0.021 A 
ATOM     10  C   UNL d   1      13.358  13.299  -5.709  0.00  0.00     0.003 A 
ATOM     11  C   UNL d   1      13.209  13.179  -4.907  0.00  0.00     0.021 A 
ENDBRANCH   5   6
ENDBRANCH   4   5
ENDBRANCH   1   4
BRANCH   1  12
ATOM     12  C   UNL d   1      14.070  12.291  -2.050  0.00  0.00     0.105 A 
ATOM     13  C   UNL d   1      14.881  12.430  -2.072  0.00  0.00     0.015 A 
ATOM     14  C   UNL d   1      15.275  12.685  -1.394  0.00  0.00     0.025 A 
ATOM     15  C   UNL d   1      14.859  12.800  -0.693  0.00  0.00     0.100 A 
ATOM     16  C   UNL d   1      14.047  12.661  -0.671  0.00  0.00     0.025 A 
ATOM     17  C   UNL d   1      13.649  12.404  -1.356  0.00  0.00     0.015 A 
BRANCH  15  18
ATOM     18  O   UNL d   1      15.253  13.055  -0.014  0.00  0.00    -0.305 OA
BRANCH  18  19
ATOM     19  C   UNL d   1      15.804  13.664  -0.062  0.00  0.00     0.123 C 
ATOM     20  C   UNL d   1      15.554  14.450  -0.038  0.00  0.00     0.029 C 
ENDBRANCH  18  19
ENDBRANCH  15  18
ENDBRANCH   1  12
TORSDOF 6
ENDMDL
