MODEL 1
REMARK VINA RESULT:      48.6      0.000      0.000
REMARK  4 active torsions:
REMARK  status: ('A' for Active; 'I' for Inactive)
REMARK    1  A    between atoms: N_3  and  C_1 
REMARK    2  A    between atoms: C_2  and  S_10 
REMARK    3  A    between atoms: N_5  and  C_9 
REMARK    4  A    between atoms: S_10  and  C_8 
ROOT
ATOM      1  C   UNL d   1     -57.926 -99.127 -44.385  0.00  0.00     0.134 A 
ATOM      2  C   UNL d   1     -58.599 -99.071 -44.867  0.00  0.00     0.048 A 
ATOM      3  C   UNL d   1     -57.165 -98.997 -44.701  0.00  0.00     0.055 A 
ATOM      4  C   UNL d   1     -58.531 -98.883 -45.678  0.00  0.00     0.128 A 
ATOM      5  C   UNL d   1     -57.092 -98.813 -45.491  0.00  0.00     0.010 A 
ATOM      6  C   UNL d   1     -57.757 -98.755 -45.977  0.00  0.00     0.024 A 
ENDROOT
BRANCH   3   7
ATOM      7  S   UNL d   1     -56.502 -99.048 -44.245  0.00  0.00    -0.041 SA
BRANCH   7   8
ATOM      8  C   UNL d   1     -56.058 -99.875 -44.200  0.00  0.00     0.215 A 
ATOM      9  N   UNL d   1     -55.970-100.308 -43.537  0.00  0.00    -0.214 NA
ATOM     10  C   UNL d   1     -55.547-100.994 -43.747  0.00  0.00     0.107 A 
ATOM     11  C   UNL d   1     -55.281-101.657 -43.311  0.00  0.00     0.021 A 
ATOM     12  C   UNL d   1     -55.384-100.961 -44.549  0.00  0.00     0.120 A 
ATOM     13  C   UNL d   1     -54.869-102.251 -43.695  0.00  0.00     0.002 A 
ATOM     14  C   UNL d   1     -54.711-102.214 -44.489  0.00  0.00     0.002 A 
ATOM     15  C   UNL d   1     -54.969-101.563 -44.927  0.00  0.00     0.026 A 
ATOM     16  O   UNL d   1     -55.717-100.235 -44.840  0.00  0.00    -0.283 OA
ENDBRANCH   7   8
ENDBRANCH   3   7
BRANCH   1  17
ATOM     17  N   UNL d   1     -58.029 -99.314 -43.591  0.00  0.00    -0.113 N 
ATOM     18  O   UNL d   1     -58.252-100.037 -43.325  0.00  0.00    -0.532 OA
ATOM     19  O   UNL d   1     -57.910 -98.764 -42.981  0.00  0.00    -0.532 OA
ENDBRANCH   1  17
BRANCH   4  20
ATOM     20  N   UNL d   1     -59.182 -98.822 -46.174  0.00  0.00    -0.114 N 
ATOM     21  O   UNL d   1     -59.133 -98.770 -47.019  0.00  0.00    -0.532 OA
ATOM     22  O   UNL d   1     -59.951 -98.801 -45.938  0.00  0.00    -0.532 OA
ENDBRANCH   4  20
TORSDOF 4
ENDMDL
MODEL 2
REMARK VINA RESULT:      50.7      1.755      2.857
REMARK  4 active torsions:
REMARK  status: ('A' for Active; 'I' for Inactive)
REMARK    1  A    between atoms: N_3  and  C_1 
REMARK    2  A    between atoms: C_2  and  S_10 
REMARK    3  A    between atoms: N_5  and  C_9 
REMARK    4  A    between atoms: S_10  and  C_8 
ROOT
ATOM      1  C   UNL d   1     -55.729 -99.890 -44.529  0.00  0.00     0.134 A 
ATOM      2  C   UNL d   1     -56.457 -99.540 -44.722  0.00  0.00     0.048 A 
ATOM      3  C   UNL d   1     -55.517-100.016 -43.732  0.00  0.00     0.055 A 
ATOM      4  C   UNL d   1     -56.991 -99.306 -44.124  0.00  0.00     0.128 A 
ATOM      5  C   UNL d   1     -56.033 -99.790 -43.144  0.00  0.00     0.010 A 
ATOM      6  C   UNL d   1     -56.758 -99.441 -43.329  0.00  0.00     0.024 A 
ENDROOT
BRANCH   3   7
ATOM      7  S   UNL d   1     -54.813-100.356 -43.530  0.00  0.00    -0.041 SA
BRANCH   7   8
ATOM      8  C   UNL d   1     -54.789-100.900 -42.765  0.00  0.00     0.215 A 
ATOM      9  N   UNL d   1     -54.766-100.630 -42.016  0.00  0.00    -0.214 NA
ATOM     10  C   UNL d   1     -54.750-101.297 -41.515  0.00  0.00     0.107 A 
ATOM     11  C   UNL d   1     -54.724-101.386 -40.684  0.00  0.00     0.021 A 
ATOM     12  C   UNL d   1     -54.764-101.969 -41.983  0.00  0.00     0.120 A 
ATOM     13  C   UNL d   1     -54.714-102.138 -40.361  0.00  0.00     0.002 A 
ATOM     14  C   UNL d   1     -54.728-102.801 -40.828  0.00  0.00     0.002 A 
ATOM     15  C   UNL d   1     -54.753-102.722 -41.650  0.00  0.00     0.026 A 
ATOM     16  O   UNL d   1     -54.789-101.709 -42.791  0.00  0.00    -0.283 OA
ENDBRANCH   7   8
ENDBRANCH   3   7
BRANCH   1  17
ATOM     17  N   UNL d   1     -55.227-100.109 -45.142  0.00  0.00    -0.113 N 
ATOM     18  O   UNL d   1     -54.776 -99.593 -45.558  0.00  0.00    -0.532 OA
ATOM     19  O   UNL d   1     -55.139-100.895 -45.392  0.00  0.00    -0.532 OA
ENDBRANCH   1  17
BRANCH   4  20
ATOM     20  N   UNL d   1     -57.715 -98.957 -44.290  0.00  0.00    -0.114 N 
ATOM     21  O   UNL d   1     -57.978 -98.755 -45.071  0.00  0.00    -0.532 OA
ATOM     22  O   UNL d   1     -58.276 -98.758 -43.748  0.00  0.00    -0.532 OA
ENDBRANCH   4  20
TORSDOF 4
ENDMDL
