MODEL 1
REMARK VINA RESULT:      -6.6      0.000      0.000
REMARK  5 active torsions:
REMARK  status: ('A' for Active; 'I' for Inactive)
REMARK    1  A    between atoms: C_11  and  C_2 
REMARK    2  A    between atoms: N_3  and  C_5 
REMARK       I    between atoms: C_6  and  N_3 
REMARK    3  A    between atoms: C_5  and  N_12 
REMARK    4  A    between atoms: C_7  and  C_6 
REMARK    5  A    between atoms: N_12  and  C_20 
ROOT
ATOM      1  C   UNL d   1     -47.713  13.927  22.767  0.00  0.00     0.041 A 
ATOM      2  C   UNL d   1     -47.579  13.168  23.075  0.00  0.00     0.005 A 
ATOM      3  C   UNL d   1     -47.088  14.412  22.565  0.00  0.00     0.005 A 
ATOM      4  C   UNL d   1     -46.159  13.391  22.974  0.00  0.00     0.084 A 
ATOM      5  C   UNL d   1     -46.797  12.906  23.176  0.00  0.00     0.019 A 
ATOM      6  C   UNL d   1     -46.328  14.150  22.666  0.00  0.00     0.019 A 
ENDROOT
BRANCH   4   7
ATOM      7  N   UNL d   1     -45.381  13.130  23.074  0.00  0.00    -0.217 NA
BRANCH   7   8
ATOM      8  C   UNL d   1     -45.081  12.538  22.592  0.00  0.00     0.224 C 
ATOM      9  S   UNL d   1     -44.911  12.704  21.813  0.00  0.00    -0.037 SA
BRANCH   8  10
ATOM     10  N   UNL d   1     -44.958  11.800  22.899  0.00  0.00    -0.178 NA
ATOM     11  C   UNL d   1     -44.193  11.472  22.890  0.00  0.00     0.287 C 
ATOM     12  O   UNL d   1     -43.568  11.900  22.570  0.00  0.00    -0.265 OA
BRANCH  11  13
ATOM     13  C   UNL d   1     -44.035  10.732  23.190  0.00  0.00     0.087 A 
ATOM     14  S   UNL d   1     -43.265  10.434  23.315  0.00  0.00    -0.082 SA
ATOM     15  C   UNL d   1     -43.348   9.686  23.618  0.00  0.00     0.036 A 
ATOM     16  C   UNL d   1     -44.174   9.506  23.686  0.00  0.00     0.008 A 
ATOM     17  C   UNL d   1     -44.588  10.139  23.428  0.00  0.00     0.012 A 
ENDBRANCH  11  13
ENDBRANCH   8  10
ENDBRANCH   7   8
ENDBRANCH   4   7
BRANCH   1  18
ATOM     18  C   UNL d   1     -48.498  14.190  22.666  0.00  0.00     0.182 A 
ATOM     19  N   UNL d   1     -49.071  13.924  22.141  0.00  0.00    -0.220 NA
ATOM     20  C   UNL d   1     -49.755  14.381  22.277  0.00  0.00     0.106 A 
ATOM     21  C   UNL d   1     -49.581  14.913  22.882  0.00  0.00     0.119 A 
ATOM     22  C   UNL d   1     -50.486  14.374  21.936  0.00  0.00     0.021 A 
ATOM     23  C   UNL d   1     -50.139  15.441  23.146  0.00  0.00     0.026 A 
ATOM     24  O   UNL d   1     -48.790  14.780  23.114  0.00  0.00    -0.288 OA
ATOM     25  C   UNL d   1     -50.889  15.440  22.802  0.00  0.00     0.002 A 
ATOM     26  C   UNL d   1     -51.064  14.909  22.197  0.00  0.00     0.002 A 
ENDBRANCH   1  18
TORSDOF 5
ENDMDL
MODEL 2
REMARK VINA RESULT:      -5.8      2.090      5.816
REMARK  5 active torsions:
REMARK  status: ('A' for Active; 'I' for Inactive)
REMARK    1  A    between atoms: C_11  and  C_2 
REMARK    2  A    between atoms: N_3  and  C_5 
REMARK       I    between atoms: C_6  and  N_3 
REMARK    3  A    between atoms: C_5  and  N_12 
REMARK    4  A    between atoms: C_7  and  C_6 
REMARK    5  A    between atoms: N_12  and  C_20 
ROOT
ATOM      1  C   UNL d   1     -45.650  12.823  22.630  0.00  0.00     0.041 A 
ATOM      2  C   UNL d   1     -45.933  12.142  23.011  0.00  0.00     0.005 A 
ATOM      3  C   UNL d   1     -46.107  13.499  22.587  0.00  0.00     0.005 A 
ATOM      4  C   UNL d   1     -47.159  12.836  23.312  0.00  0.00     0.084 A 
ATOM      5  C   UNL d   1     -46.690  12.156  23.351  0.00  0.00     0.019 A 
ATOM      6  C   UNL d   1     -46.845  13.505  22.921  0.00  0.00     0.019 A 
ENDROOT
BRANCH   4   7
ATOM      7  N   UNL d   1     -47.913  12.850  23.650  0.00  0.00    -0.217 NA
BRANCH   7   8
ATOM      8  C   UNL d   1     -48.538  12.471  23.277  0.00  0.00     0.224 C 
ATOM      9  S   UNL d   1     -48.680  11.685  23.434  0.00  0.00    -0.037 SA
BRANCH   8  10
ATOM     10  N   UNL d   1     -49.002  12.886  22.760  0.00  0.00    -0.178 NA
ATOM     11  C   UNL d   1     -49.800  13.029  22.948  0.00  0.00     0.287 C 
ATOM     12  O   UNL d   1     -50.111  12.749  23.656  0.00  0.00    -0.265 OA
BRANCH  11  13
ATOM     13  C   UNL d   1     -50.295  13.442  22.451  0.00  0.00     0.087 A 
ATOM     14  S   UNL d   1     -50.601  14.200  22.621  0.00  0.00    -0.082 SA
ATOM     15  C   UNL d   1     -51.064  14.415  21.990  0.00  0.00     0.036 A 
ATOM     16  C   UNL d   1     -51.055  13.791  21.416  0.00  0.00     0.008 A 
ATOM     17  C   UNL d   1     -50.590  13.204  21.695  0.00  0.00     0.012 A 
ENDBRANCH  11  13
ENDBRANCH   8  10
ENDBRANCH   7   8
ENDBRANCH   4   7
BRANCH   1  18
ATOM     18  C   UNL d   1     -44.889  12.809  22.288  0.00  0.00     0.182 A 
ATOM     19  N   UNL d   1     -44.307  12.233  22.341  0.00  0.00    -0.220 NA
ATOM     20  C   UNL d   1     -43.656  12.502  21.894  0.00  0.00     0.106 A 
ATOM     21  C   UNL d   1     -43.860  13.237  21.579  0.00  0.00     0.119 A 
ATOM     22  C   UNL d   1     -42.933  12.178  21.742  0.00  0.00     0.021 A 
ATOM     23  C   UNL d   1     -43.339  13.648  21.112  0.00  0.00     0.026 A 
ATOM     24  O   UNL d   1     -44.634  13.414  21.836  0.00  0.00    -0.288 OA
ATOM     25  C   UNL d   1     -42.598  13.324  20.952  0.00  0.00     0.002 A 
ATOM     26  C   UNL d   1     -42.393  12.590  21.265  0.00  0.00     0.002 A 
ENDBRANCH   1  18
TORSDOF 5
ENDMDL
MODEL 3
REMARK VINA RESULT:      -5.3      1.220      1.701
REMARK  5 active torsions:
REMARK  status: ('A' for Active; 'I' for Inactive)
REMARK    1  A    between atoms: C_11  and  C_2 
REMARK    2  A    between atoms: N_3  and  C_5 
REMARK       I    between atoms: C_6  and  N_3 
REMARK    3  A    between atoms: C_5  and  N_12 
REMARK    4  A    between atoms: C_7  and  C_6 
REMARK    5  A    between atoms: N_12  and  C_20 
ROOT
ATOM      1  C   UNL d   1     -47.903  13.582  22.994  0.00  0.00     0.041 A 
ATOM      2  C   UNL d   1     -47.865  12.799  23.270  0.00  0.00     0.005 A 
ATOM      3  C   UNL d   1     -47.223  14.023  22.893  0.00  0.00     0.005 A 
ATOM      4  C   UNL d   1     -46.429  12.908  23.342  0.00  0.00     0.084 A 
ATOM      5  C   UNL d   1     -47.123  12.469  23.442  0.00  0.00     0.019 A 
ATOM      6  C   UNL d   1     -46.503  13.693  23.063  0.00  0.00     0.019 A 
ENDROOT
BRANCH   4   7
ATOM      7  N   UNL d   1     -45.691  12.579  23.514  0.00  0.00    -0.217 NA
BRANCH   7   8
ATOM      8  C   UNL d   1     -45.295  12.140  22.946  0.00  0.00     0.224 C 
ATOM      9  S   UNL d   1     -45.427  11.338  22.896  0.00  0.00    -0.037 SA
BRANCH   8  10
ATOM     10  N   UNL d   1     -44.780  12.512  22.445  0.00  0.00    -0.178 NA
ATOM     11  C   UNL d   1     -44.033  12.174  22.298  0.00  0.00     0.287 C 
ATOM     12  O   UNL d   1     -43.824  11.467  22.663  0.00  0.00    -0.265 OA
BRANCH  11  13
ATOM     13  C   UNL d   1     -43.490  12.521  21.800  0.00  0.00     0.087 A 
ATOM     14  S   UNL d   1     -42.669  12.541  21.946  0.00  0.00    -0.082 SA
ATOM     15  C   UNL d   1     -42.328  12.933  21.323  0.00  0.00     0.036 A 
ATOM     16  C   UNL d   1     -42.934  13.164  20.777  0.00  0.00     0.008 A 
ATOM     17  C   UNL d   1     -43.636  12.914  21.066  0.00  0.00     0.012 A 
ENDBRANCH  11  13
ENDBRANCH   8  10
ENDBRANCH   7   8
ENDBRANCH   4   7
BRANCH   1  18
ATOM     18  C   UNL d   1     -48.648  13.914  22.821  0.00  0.00     0.182 A 
ATOM     19  N   UNL d   1     -49.127  13.799  22.164  0.00  0.00    -0.220 NA
ATOM     20  C   UNL d   1     -49.809  14.266  22.276  0.00  0.00     0.106 A 
ATOM     21  C   UNL d   1     -49.727  14.654  23.000  0.00  0.00     0.119 A 
ATOM     22  C   UNL d   1     -50.468  14.379  21.824  0.00  0.00     0.021 A 
ATOM     23  C   UNL d   1     -50.305  15.155  23.271  0.00  0.00     0.026 A 
ATOM     24  O   UNL d   1     -48.995  14.422  23.327  0.00  0.00    -0.288 OA
ATOM     25  C   UNL d   1     -50.981  15.277  22.815  0.00  0.00     0.002 A 
ATOM     26  C   UNL d   1     -51.064  14.890  22.092  0.00  0.00     0.002 A 
ENDBRANCH   1  18
TORSDOF 5
ENDMDL
MODEL 4
REMARK VINA RESULT:      -5.1      8.282     10.114
REMARK  5 active torsions:
REMARK  status: ('A' for Active; 'I' for Inactive)
REMARK    1  A    between atoms: C_11  and  C_2 
REMARK    2  A    between atoms: N_3  and  C_5 
REMARK       I    between atoms: C_6  and  N_3 
REMARK    3  A    between atoms: C_5  and  N_12 
REMARK    4  A    between atoms: C_7  and  C_6 
REMARK    5  A    between atoms: N_12  and  C_20 
ROOT
ATOM      1  C   UNL d   1     -38.646  15.040  17.785  0.00  0.00     0.041 A 
ATOM      2  C   UNL d   1     -38.016  15.213  18.297  0.00  0.00     0.005 A 
ATOM      3  C   UNL d   1     -39.421  15.114  18.035  0.00  0.00     0.005 A 
ATOM      4  C   UNL d   1     -38.964  15.542  19.332  0.00  0.00     0.084 A 
ATOM      5  C   UNL d   1     -38.183  15.465  19.070  0.00  0.00     0.019 A 
ATOM      6  C   UNL d   1     -39.575  15.359  18.791  0.00  0.00     0.019 A 
ENDROOT
BRANCH   4   7
ATOM      7  N   UNL d   1     -39.130  15.792  20.101  0.00  0.00    -0.217 NA
BRANCH   7   8
ATOM      8  C   UNL d   1     -39.544  15.302  20.612  0.00  0.00     0.224 C 
ATOM      9  S   UNL d   1     -40.358  15.323  20.614  0.00  0.00    -0.037 SA
BRANCH   8  10
ATOM     10  N   UNL d   1     -39.137  14.807  21.106  0.00  0.00    -0.178 NA
ATOM     11  C   UNL d   1     -39.241  14.870  21.929  0.00  0.00     0.287 C 
ATOM     12  O   UNL d   1     -39.755  15.434  22.235  0.00  0.00    -0.265 OA
BRANCH  11  13
ATOM     13  C   UNL d   1     -38.847  14.388  22.454  0.00  0.00     0.087 A 
ATOM     14  S   UNL d   1     -38.256  14.655  22.980  0.00  0.00    -0.082 SA
ATOM     15  C   UNL d   1     -38.006  14.009  23.402  0.00  0.00     0.036 A 
ATOM     16  C   UNL d   1     -38.439  13.327  23.144  0.00  0.00     0.008 A 
ATOM     17  C   UNL d   1     -38.946  13.557  22.571  0.00  0.00     0.012 A 
ENDBRANCH  11  13
ENDBRANCH   8  10
ENDBRANCH   7   8
ENDBRANCH   4   7
BRANCH   1  18
ATOM     18  C   UNL d   1     -38.479  14.787  17.008  0.00  0.00     0.182 A 
ATOM     19  N   UNL d   1     -38.385  15.234  16.326  0.00  0.00    -0.220 NA
ATOM     20  C   UNL d   1     -38.225  14.700  15.705  0.00  0.00     0.106 A 
ATOM     21  C   UNL d   1     -38.225  13.941  16.027  0.00  0.00     0.119 A 
ATOM     22  C   UNL d   1     -38.084  14.812  14.919  0.00  0.00     0.021 A 
ATOM     23  C   UNL d   1     -38.085  13.292  15.560  0.00  0.00     0.026 A 
ATOM     24  O   UNL d   1     -38.386  14.013  16.843  0.00  0.00    -0.288 OA
ATOM     25  C   UNL d   1     -37.941  13.397  14.755  0.00  0.00     0.002 A 
ATOM     26  C   UNL d   1     -37.940  14.155  14.433  0.00  0.00     0.002 A 
ENDBRANCH   1  18
TORSDOF 5
ENDMDL
MODEL 5
REMARK VINA RESULT:      -4.1      4.036      5.339
REMARK  5 active torsions:
REMARK  status: ('A' for Active; 'I' for Inactive)
REMARK    1  A    between atoms: C_11  and  C_2 
REMARK    2  A    between atoms: N_3  and  C_5 
REMARK       I    between atoms: C_6  and  N_3 
REMARK    3  A    between atoms: C_5  and  N_12 
REMARK    4  A    between atoms: C_7  and  C_6 
REMARK    5  A    between atoms: N_12  and  C_20 
ROOT
ATOM      1  C   UNL d   1     -43.894  13.060  21.775  0.00  0.00     0.041 A 
ATOM      2  C   UNL d   1     -43.655  13.764  21.407  0.00  0.00     0.005 A 
ATOM      3  C   UNL d   1     -43.398  12.411  21.797  0.00  0.00     0.005 A 
ATOM      4  C   UNL d   1     -42.393  13.150  21.078  0.00  0.00     0.084 A 
ATOM      5  C   UNL d   1     -42.901  13.802  21.060  0.00  0.00     0.019 A 
ATOM      6  C   UNL d   1     -42.664  12.455  21.457  0.00  0.00     0.019 A 
ENDROOT
BRANCH   4   7
ATOM      7  N   UNL d   1     -41.643  13.188  20.734  0.00  0.00    -0.217 NA
BRANCH   7   8
ATOM      8  C   UNL d   1     -41.334  13.911  20.500  0.00  0.00     0.224 C 
ATOM      9  S   UNL d   1     -41.100  14.448  21.066  0.00  0.00    -0.037 SA
BRANCH   8  10
ATOM     10  N   UNL d   1     -41.267  14.079  19.711  0.00  0.00    -0.178 NA
ATOM     11  C   UNL d   1     -40.518  14.242  19.388  0.00  0.00     0.287 C 
ATOM     12  O   UNL d   1     -39.852  14.233  19.870  0.00  0.00    -0.265 OA
BRANCH  11  13
ATOM     13  C   UNL d   1     -40.415  14.415  18.598  0.00  0.00     0.087 A 
ATOM     14  S   UNL d   1     -39.831  14.064  18.117  0.00  0.00    -0.082 SA
ATOM     15  C   UNL d   1     -39.913  14.382  17.375  0.00  0.00     0.036 A 
ATOM     16  C   UNL d   1     -40.553  14.939  17.383  0.00  0.00     0.008 A 
ATOM     17  C   UNL d   1     -40.856  14.958  18.123  0.00  0.00     0.012 A 
ENDBRANCH  11  13
ENDBRANCH   8  10
ENDBRANCH   7   8
ENDBRANCH   4   7
BRANCH   1  18
ATOM     18  C   UNL d   1     -44.651  13.022  22.123  0.00  0.00     0.182 A 
ATOM     19  N   UNL d   1     -45.008  12.399  22.520  0.00  0.00    -0.220 NA
ATOM     20  C   UNL d   1     -45.765  12.661  22.753  0.00  0.00     0.106 A 
ATOM     21  C   UNL d   1     -45.848  13.439  22.490  0.00  0.00     0.119 A 
ATOM     22  C   UNL d   1     -46.363  12.299  23.156  0.00  0.00     0.021 A 
ATOM     23  C   UNL d   1     -46.531  13.854  22.631  0.00  0.00     0.026 A 
ATOM     24  O   UNL d   1     -45.142  13.648  22.098  0.00  0.00    -0.288 OA
ATOM     25  C   UNL d   1     -47.147  13.491  23.042  0.00  0.00     0.002 A 
ATOM     26  C   UNL d   1     -47.065  12.715  23.305  0.00  0.00     0.002 A 
ENDBRANCH   1  18
TORSDOF 5
ENDMDL
MODEL 6
REMARK VINA RESULT:      -3.9      8.445     10.663
REMARK  5 active torsions:
REMARK  status: ('A' for Active; 'I' for Inactive)
REMARK    1  A    between atoms: C_11  and  C_2 
REMARK    2  A    between atoms: N_3  and  C_5 
REMARK       I    between atoms: C_6  and  N_3 
REMARK    3  A    between atoms: C_5  and  N_12 
REMARK    4  A    between atoms: C_7  and  C_6 
REMARK    5  A    between atoms: N_12  and  C_20 
ROOT
ATOM      1  C   UNL d   1     -38.134  14.447  16.883  0.00  0.00     0.041 A 
ATOM      2  C   UNL d   1     -38.124  13.854  17.464  0.00  0.00     0.005 A 
ATOM      3  C   UNL d   1     -38.184  15.235  17.092  0.00  0.00     0.005 A 
ATOM      4  C   UNL d   1     -38.217  14.868  18.484  0.00  0.00     0.084 A 
ATOM      5  C   UNL d   1     -38.166  14.072  18.264  0.00  0.00     0.019 A 
ATOM      6  C   UNL d   1     -38.225  15.441  17.874  0.00  0.00     0.019 A 
ENDROOT
BRANCH   4   7
ATOM      7  N   UNL d   1     -38.259  15.085  19.280  0.00  0.00    -0.217 NA
BRANCH   7   8
ATOM      8  C   UNL d   1     -38.723  14.653  19.800  0.00  0.00     0.224 C 
ATOM      9  S   UNL d   1     -38.387  14.047  20.228  0.00  0.00    -0.037 SA
BRANCH   8  10
ATOM     10  N   UNL d   1     -39.508  14.835  19.878  0.00  0.00    -0.178 NA
ATOM     11  C   UNL d   1     -39.824  14.973  20.636  0.00  0.00     0.287 C 
ATOM     12  O   UNL d   1     -39.338  14.923  21.298  0.00  0.00    -0.265 OA
BRANCH  11  13
ATOM     13  C   UNL d   1     -40.608  15.159  20.751  0.00  0.00     0.087 A 
ATOM     14  S   UNL d   1     -40.881  15.920  20.958  0.00  0.00    -0.082 SA
ATOM     15  C   UNL d   1     -41.689  15.873  21.019  0.00  0.00     0.036 A 
ATOM     16  C   UNL d   1     -41.932  15.078  20.851  0.00  0.00     0.008 A 
ATOM     17  C   UNL d   1     -41.278  14.647  20.689  0.00  0.00     0.012 A 
ENDBRANCH  11  13
ENDBRANCH   8  10
ENDBRANCH   7   8
ENDBRANCH   4   7
BRANCH   1  18
ATOM     18  C   UNL d   1     -38.091  14.228  16.080  0.00  0.00     0.182 A 
ATOM     19  N   UNL d   1     -38.018  13.480  15.749  0.00  0.00    -0.220 NA
ATOM     20  C   UNL d   1     -38.002  13.580  14.921  0.00  0.00     0.106 A 
ATOM     21  C   UNL d   1     -38.066  14.389  14.770  0.00  0.00     0.119 A 
ATOM     22  C   UNL d   1     -37.940  13.054  14.314  0.00  0.00     0.021 A 
ATOM     23  C   UNL d   1     -38.067  14.670  14.008  0.00  0.00     0.026 A 
ATOM     24  O   UNL d   1     -38.121  14.779  15.505  0.00  0.00    -0.288 OA
ATOM     25  C   UNL d   1     -38.003  14.138  13.381  0.00  0.00     0.002 A 
ATOM     26  C   UNL d   1     -37.940  13.330  13.531  0.00  0.00     0.002 A 
ENDBRANCH   1  18
TORSDOF 5
ENDMDL
MODEL 7
REMARK VINA RESULT:      -3.6      3.691      4.872
REMARK  5 active torsions:
REMARK  status: ('A' for Active; 'I' for Inactive)
REMARK    1  A    between atoms: C_11  and  C_2 
REMARK    2  A    between atoms: N_3  and  C_5 
REMARK       I    between atoms: C_6  and  N_3 
REMARK    3  A    between atoms: C_5  and  N_12 
REMARK    4  A    between atoms: C_7  and  C_6 
REMARK    5  A    between atoms: N_12  and  C_20 
ROOT
ATOM      1  C   UNL d   1     -43.924  13.055  21.795  0.00  0.00     0.041 A 
ATOM      2  C   UNL d   1     -43.390  12.420  21.827  0.00  0.00     0.005 A 
ATOM      3  C   UNL d   1     -43.722  13.754  21.424  0.00  0.00     0.005 A 
ATOM      4  C   UNL d   1     -42.430  13.208  21.097  0.00  0.00     0.084 A 
ATOM      5  C   UNL d   1     -42.643  12.504  21.475  0.00  0.00     0.019 A 
ATOM      6  C   UNL d   1     -42.991  13.828  21.083  0.00  0.00     0.019 A 
ENDROOT
BRANCH   4   7
ATOM      7  N   UNL d   1     -41.686  13.292  20.747  0.00  0.00    -0.217 NA
BRANCH   7   8
ATOM      8  C   UNL d   1     -41.226  13.951  20.912  0.00  0.00     0.224 C 
ATOM      9  S   UNL d   1     -41.326  14.629  20.475  0.00  0.00    -0.037 SA
BRANCH   8  10
ATOM     10  N   UNL d   1     -40.679  13.914  21.508  0.00  0.00    -0.178 NA
ATOM     11  C   UNL d   1     -39.875  14.047  21.337  0.00  0.00     0.287 C 
ATOM     12  O   UNL d   1     -39.642  14.214  20.567  0.00  0.00    -0.265 OA
BRANCH  11  13
ATOM     13  C   UNL d   1     -39.300  14.017  21.912  0.00  0.00     0.087 A 
ATOM     14  S   UNL d   1     -38.994  14.690  22.301  0.00  0.00    -0.082 SA
ATOM     15  C   UNL d   1     -38.437  14.425  22.829  0.00  0.00     0.036 A 
ATOM     16  C   UNL d   1     -38.388  13.580  22.777  0.00  0.00     0.008 A 
ATOM     17  C   UNL d   1     -38.909  13.334  22.223  0.00  0.00     0.012 A 
ENDBRANCH  11  13
ENDBRANCH   8  10
ENDBRANCH   7   8
ENDBRANCH   4   7
BRANCH   1  18
ATOM     18  C   UNL d   1     -44.675  12.970  22.149  0.00  0.00     0.182 A 
ATOM     19  N   UNL d   1     -44.977  12.341  22.580  0.00  0.00    -0.220 NA
ATOM     20  C   UNL d   1     -45.754  12.549  22.803  0.00  0.00     0.106 A 
ATOM     21  C   UNL d   1     -45.904  13.302  22.500  0.00  0.00     0.119 A 
ATOM     22  C   UNL d   1     -46.318  12.158  23.227  0.00  0.00     0.021 A 
ATOM     23  C   UNL d   1     -46.620  13.664  22.623  0.00  0.00     0.026 A 
ATOM     24  O   UNL d   1     -45.218  13.550  22.094  0.00  0.00    -0.288 OA
ATOM     25  C   UNL d   1     -47.202  13.271  23.056  0.00  0.00     0.002 A 
ATOM     26  C   UNL d   1     -47.053  12.519  23.358  0.00  0.00     0.002 A 
ENDBRANCH   1  18
TORSDOF 5
ENDMDL
