MODEL 1
REMARK VINA RESULT:      31.0      0.000      0.000
REMARK  6 active torsions:
REMARK  status: ('A' for Active; 'I' for Inactive)
REMARK    1  A    between atoms: C_7  and  C_1 
REMARK    2  A    between atoms: N_5  and  C_3 
REMARK       I    between atoms: C_9  and  N_5 
REMARK    3  A    between atoms: C_8  and  S_11 
REMARK    4  A    between atoms: C_13  and  C_9 
REMARK    5  A    between atoms: S_11  and  C_13 
REMARK    6  A    between atoms: O_17  and  C_14 
ROOT
ATOM      1  C   UNL d   1      13.340  12.517  -3.432  0.00  0.00     0.137 A 
ATOM      2  S   UNL d   1      13.752  12.812  -2.773  0.00  0.00    -0.026 SA
ATOM      3  C   UNL d   1      13.543  12.361  -2.112  0.00  0.00     0.219 A 
ATOM      4  N   UNL d   1      12.875  11.878  -3.172  0.00  0.00    -0.139 NA
ATOM      5  N   UNL d   1      13.000  11.781  -2.358  0.00  0.00    -0.121 NA
ENDROOT
BRANCH   3   6
ATOM      6  N   UNL d   1      13.822  12.462  -1.342  0.00  0.00    -0.181 NA
ATOM      7  C   UNL d   1      14.599  12.719  -1.205  0.00  0.00     0.287 C 
ATOM      8  O   UNL d   1      15.096  12.873  -1.848  0.00  0.00    -0.265 OA
BRANCH   7   9
ATOM      9  C   UNL d   1      14.873  12.819  -0.429  0.00  0.00     0.089 C 
ATOM     10  C   UNL d   1      15.322  12.227  -0.072  0.00  0.00     0.012 C 
BRANCH   9  11
ATOM     11  S   UNL d   1      14.689  13.520  -0.018  0.00  0.00    -0.057 SA
BRANCH  11  12
ATOM     12  C   UNL d   1      15.194  14.170  -0.090  0.00  0.00     0.141 A 
ATOM     13  N   UNL d   1      16.025  14.170  -0.030  0.00  0.00    -0.230 NA
ATOM     14  C   UNL d   1      16.296  14.946  -0.140  0.00  0.00     0.107 A 
ATOM     15  C   UNL d   1      15.635  15.435  -0.270  0.00  0.00     0.058 A 
ATOM     16  S   UNL d   1      14.953  14.957  -0.240  0.00  0.00    -0.059 SA
ENDBRANCH  11  12
ENDBRANCH   9  11
ENDBRANCH   7   9
ENDBRANCH   3   6
BRANCH   1  17
ATOM     17  C   UNL d   1      13.381  12.802  -4.210  0.00  0.00     0.048 A 
ATOM     18  C   UNL d   1      13.203  13.577  -4.378  0.00  0.00     0.096 A 
ATOM     19  C   UNL d   1      13.245  13.852  -5.143  0.00  0.00     0.024 A 
ATOM     20  C   UNL d   1      13.469  13.330  -5.731  0.00  0.00     0.002 A 
ATOM     21  C   UNL d   1      13.647  12.568  -5.579  0.00  0.00     0.000 A 
ATOM     22  C   UNL d   1      13.605  12.290  -4.811  0.00  0.00     0.004 A 
BRANCH  18  23
ATOM     23  O   UNL d   1      12.981  14.086  -3.789  0.00  0.00    -0.328 OA
ATOM     24  C   UNL d   1      13.441  14.903  -3.796  0.00  0.00     0.181 C 
ENDBRANCH  18  23
ENDBRANCH   1  17
TORSDOF 6
ENDMDL
