MODEL 1
REMARK VINA RESULT:      46.4      0.000      0.000
REMARK  7 active torsions:
REMARK  status: ('A' for Active; 'I' for Inactive)
REMARK    1  A    between atoms: C_2  and  S_1 
REMARK    2  A    between atoms: N_6  and  S_1 
REMARK    3  A    between atoms: O_14  and  C_5 
REMARK    4  A    between atoms: C_15  and  N_6 
REMARK    5  A    between atoms: O_16  and  C_7 
REMARK    6  A    between atoms: C_11  and  C_19 
REMARK    7  A    between atoms: C_19  and  C_15 
ROOT
ATOM      1  C   UNL d   1      60.185  49.600  50.464  0.00  0.00     0.112 C 
ENDROOT
BRANCH   1   2
ATOM      2  N   UNL d   1      60.627  48.909  50.494  0.00  0.00    -0.157 NA
BRANCH   2   3
ATOM      3  S   UNL d   1      60.931  48.634  51.211  0.00  0.00     0.285 S 
ATOM      4  O   UNL d   1      60.672  49.329  51.573  0.00  0.00    -0.198 OA
ATOM      5  O   UNL d   1      61.228  48.372  51.926  0.00  0.00    -0.198 OA
BRANCH   3   6
ATOM      6  C   UNL d   1      61.188  47.942  50.841  0.00  0.00     0.105 A 
ATOM      7  C   UNL d   1      60.815  47.219  50.995  0.00  0.00     0.013 A 
ATOM      8  C   UNL d   1      61.077  46.532  50.621  0.00  0.00     0.001 A 
ATOM      9  C   UNL d   1      60.707  45.812  50.773  0.00  0.00     0.000 C 
ATOM     10  C   UNL d   1      61.713  46.567  50.092  0.00  0.00     0.000 A 
ATOM     11  C   UNL d   1      62.083  47.287  49.940  0.00  0.00     0.001 A 
ATOM     12  C   UNL d   1      61.821  47.974  50.314  0.00  0.00     0.013 A 
ENDBRANCH   3   6
ENDBRANCH   2   3
ENDBRANCH   1   2
BRANCH   1  13
ATOM     13  C   UNL d   1      59.477  49.639  50.873  0.00  0.00     0.022 C 
BRANCH  13  14
ATOM     14  C   UNL d   1      58.772  49.655  50.459  0.00  0.00     0.004 A 
ATOM     15  C   UNL d   1      58.051  49.657  50.861  0.00  0.00     0.026 A 
ATOM     16  C   UNL d   1      57.341  49.673  50.440  0.00  0.00     0.116 A 
ATOM     17  C   UNL d   1      57.360  49.687  49.604  0.00  0.00     0.116 A 
ATOM     18  C   UNL d   1      58.072  49.684  49.212  0.00  0.00     0.026 A 
ATOM     19  C   UNL d   1      58.780  49.668  49.629  0.00  0.00     0.002 A 
BRANCH  16  20
ATOM     20  O   UNL d   1      56.622  49.676  50.845  0.00  0.00    -0.326 OA
ATOM     21  C   UNL d   1      56.430  49.300  51.609  0.00  0.00     0.181 C 
ENDBRANCH  16  20
BRANCH  17  22
ATOM     22  O   UNL d   1      56.678  49.702  49.181  0.00  0.00    -0.326 OA
ATOM     23  C   UNL d   1      56.090  49.155  49.311  0.00  0.00     0.181 C 
ENDBRANCH  17  22
ENDBRANCH  13  14
ENDBRANCH   1  13
TORSDOF 7
ENDMDL
