MODEL 1
REMARK VINA RESULT:      -6.3      0.000      0.000
REMARK  5 active torsions:
REMARK  status: ('A' for Active; 'I' for Inactive)
REMARK    1  A    between atoms: C_7  and  C_2 
REMARK    2  A    between atoms: C_9  and  C_4 
REMARK    3  A    between atoms: C_16  and  C_7 
REMARK    4  A    between atoms: N_8  and  C_9 
REMARK    5  A    between atoms: C_23  and  C_14 
ROOT
ATOM      1  C   UNL d   1     -39.619  14.926  18.157  0.00  0.00     0.108 A 
ATOM      2  C   UNL d   1     -40.469  15.100  19.183  0.00  0.00     0.139 A 
ATOM      3  O   UNL d   1     -39.735  14.768  18.964  0.00  0.00    -0.304 OA
ATOM      4  C   UNL d   1     -39.008  14.739  17.649  0.00  0.00     0.079 A 
ATOM      5  C   UNL d   1     -40.273  15.350  17.880  0.00  0.00     0.064 A 
ATOM      6  C   UNL d   1     -40.795  15.456  18.515  0.00  0.00     0.220 A 
ATOM      7  C   UNL d   1     -40.309  15.585  17.090  0.00  0.00     0.009 A 
ATOM      8  C   UNL d   1     -39.047  14.974  16.863  0.00  0.00     0.199 A 
ATOM      9  O   UNL d   1     -41.521  15.853  18.480  0.00  0.00    -0.284 OA
ATOM     10  C   UNL d   1     -39.695  15.396  16.584  0.00  0.00     0.042 A 
ATOM     11  O   UNL d   1     -38.429  14.784  16.350  0.00  0.00    -0.286 OA
ENDROOT
BRANCH   2  12
ATOM     12  C   UNL d   1     -40.806  15.073  19.938  0.00  0.00     0.028 C 
BRANCH  12  13
ATOM     13  C   UNL d   1     -40.322  15.056  20.606  0.00  0.00     0.002 A 
ATOM     14  C   UNL d   1     -40.176  14.341  20.993  0.00  0.00     0.000 A 
ATOM     15  C   UNL d   1     -39.692  14.324  21.662  0.00  0.00     0.000 A 
ATOM     16  C   UNL d   1     -39.355  15.023  21.943  0.00  0.00     0.000 A 
ATOM     17  C   UNL d   1     -39.502  15.738  21.556  0.00  0.00     0.000 A 
ATOM     18  C   UNL d   1     -39.986  15.755  20.887  0.00  0.00     0.000 A 
BRANCH  16  19
ATOM     19  C   UNL d   1     -38.872  15.006  22.611  0.00  0.00     0.000 C 
ATOM     20  C   UNL d   1     -38.720  15.701  23.031  0.00  0.00     0.000 C 
ATOM     21  C   UNL d   1     -38.538  14.290  22.862  0.00  0.00     0.000 C 
ENDBRANCH  16  19
ENDBRANCH  12  13
ENDBRANCH   2  12
BRANCH   4  22
ATOM     22  C   UNL d   1     -38.358  14.319  17.916  0.00  0.00     0.086 C 
BRANCH  22  23
ATOM     23  N   UNL d   1     -38.262  13.503  17.905  0.00  0.00    -0.300 N 
ATOM     24  C   UNL d   1     -38.394  13.085  17.213  0.00  0.00     0.100 A 
ATOM     25  C   UNL d   1     -38.300  12.273  17.195  0.00  0.00     0.100 A 
ATOM     26  N   UNL d   1     -38.072  11.884  17.880  0.00  0.00    -0.299 N 
ATOM     27  C   UNL d   1     -37.940  12.302  18.571  0.00  0.00     0.100 A 
ATOM     28  C   UNL d   1     -37.975  11.070  17.873  0.00  0.00     0.100 C 
ATOM     29  C   UNL d   1     -38.038  13.113  18.575  0.00  0.00     0.100 A 
ENDBRANCH  22  23
ENDBRANCH   4  22
TORSDOF 5
ENDMDL
MODEL 2
REMARK VINA RESULT:      -5.1      8.459     10.035
REMARK  5 active torsions:
REMARK  status: ('A' for Active; 'I' for Inactive)
REMARK    1  A    between atoms: C_7  and  C_2 
REMARK    2  A    between atoms: C_9  and  C_4 
REMARK    3  A    between atoms: C_16  and  C_7 
REMARK    4  A    between atoms: N_8  and  C_9 
REMARK    5  A    between atoms: C_23  and  C_14 
ROOT
ATOM      1  C   UNL d   1     -46.604  13.133  23.065  0.00  0.00     0.108 A 
ATOM      2  C   UNL d   1     -46.898  14.421  22.820  0.00  0.00     0.139 A 
ATOM      3  O   UNL d   1     -47.196  13.710  23.140  0.00  0.00    -0.304 OA
ATOM      4  C   UNL d   1     -46.582  12.346  23.279  0.00  0.00     0.079 A 
ATOM      5  C   UNL d   1     -45.948  13.482  22.702  0.00  0.00     0.064 A 
ATOM      6  C   UNL d   1     -46.133  14.277  22.552  0.00  0.00     0.220 A 
ATOM      7  C   UNL d   1     -45.271  13.035  22.556  0.00  0.00     0.009 A 
ATOM      8  C   UNL d   1     -45.906  11.903  23.132  0.00  0.00     0.199 A 
ATOM      9  O   UNL d   1     -45.630  14.828  22.194  0.00  0.00    -0.284 OA
ATOM     10  C   UNL d   1     -45.252  12.246  22.771  0.00  0.00     0.042 A 
ATOM     11  O   UNL d   1     -45.885  11.107  23.348  0.00  0.00    -0.286 OA
ENDROOT
BRANCH   2  12
ATOM     12  C   UNL d   1     -47.304  15.140  22.780  0.00  0.00     0.028 C 
BRANCH  12  13
ATOM     13  C   UNL d   1     -48.127  15.149  22.718  0.00  0.00     0.002 A 
ATOM     14  C   UNL d   1     -48.490  14.962  22.000  0.00  0.00     0.000 A 
ATOM     15  C   UNL d   1     -49.313  14.971  21.938  0.00  0.00     0.000 A 
ATOM     16  C   UNL d   1     -49.772  15.167  22.596  0.00  0.00     0.000 A 
ATOM     17  C   UNL d   1     -49.408  15.354  23.314  0.00  0.00     0.000 A 
ATOM     18  C   UNL d   1     -48.585  15.346  23.375  0.00  0.00     0.000 A 
BRANCH  16  19
ATOM     19  C   UNL d   1     -50.595  15.176  22.534  0.00  0.00     0.000 C 
ATOM     20  C   UNL d   1     -51.061  14.968  23.184  0.00  0.00     0.000 C 
ATOM     21  C   UNL d   1     -50.954  15.393  21.819  0.00  0.00     0.000 C 
ENDBRANCH  16  19
ENDBRANCH  12  13
ENDBRANCH   2  12
BRANCH   4  22
ATOM     22  C   UNL d   1     -47.227  11.993  23.638  0.00  0.00     0.086 C 
BRANCH  22  23
ATOM     23  N   UNL d   1     -47.945  11.805  23.284  0.00  0.00    -0.300 N 
ATOM     24  C   UNL d   1     -48.644  11.907  23.697  0.00  0.00     0.100 A 
ATOM     25  C   UNL d   1     -49.361  11.721  23.351  0.00  0.00     0.100 A 
ATOM     26  N   UNL d   1     -49.369  11.431  22.584  0.00  0.00    -0.299 N 
ATOM     27  C   UNL d   1     -48.670  11.329  22.171  0.00  0.00     0.100 A 
ATOM     28  C   UNL d   1     -50.082  11.242  22.227  0.00  0.00     0.100 C 
ATOM     29  C   UNL d   1     -47.960  11.518  22.529  0.00  0.00     0.100 A 
ENDBRANCH  22  23
ENDBRANCH   4  22
TORSDOF 5
ENDMDL
MODEL 3
REMARK VINA RESULT:      -3.9      8.384      9.893
REMARK  5 active torsions:
REMARK  status: ('A' for Active; 'I' for Inactive)
REMARK    1  A    between atoms: C_7  and  C_2 
REMARK    2  A    between atoms: C_9  and  C_4 
REMARK    3  A    between atoms: C_16  and  C_7 
REMARK    4  A    between atoms: N_8  and  C_9 
REMARK    5  A    between atoms: C_23  and  C_14 
ROOT
ATOM      1  C   UNL d   1     -49.076  14.068  22.944  0.00  0.00     0.108 A 
ATOM      2  C   UNL d   1     -47.915  14.733  22.824  0.00  0.00     0.139 A 
ATOM      3  O   UNL d   1     -48.265  14.037  23.121  0.00  0.00    -0.304 OA
ATOM      4  C   UNL d   1     -49.686  13.548  23.097  0.00  0.00     0.079 A 
ATOM      5  C   UNL d   1     -49.225  14.776  22.542  0.00  0.00     0.064 A 
ATOM      6  C   UNL d   1     -48.507  15.184  22.469  0.00  0.00     0.220 A 
ATOM      7  C   UNL d   1     -49.991  14.957  22.295  0.00  0.00     0.009 A 
ATOM      8  C   UNL d   1     -50.448  13.731  22.850  0.00  0.00     0.199 A 
ATOM      9  O   UNL d   1     -48.406  15.919  22.102  0.00  0.00    -0.284 OA
ATOM     10  C   UNL d   1     -50.600  14.433  22.450  0.00  0.00     0.042 A 
ATOM     11  O   UNL d   1     -51.064  13.206  23.005  0.00  0.00    -0.286 OA
ENDROOT
BRANCH   2  12
ATOM     12  C   UNL d   1     -47.114  14.933  22.877  0.00  0.00     0.028 C 
BRANCH  12  13
ATOM     13  C   UNL d   1     -46.535  14.369  22.709  0.00  0.00     0.002 A 
ATOM     14  C   UNL d   1     -46.180  13.944  23.322  0.00  0.00     0.000 A 
ATOM     15  C   UNL d   1     -45.601  13.380  23.153  0.00  0.00     0.000 A 
ATOM     16  C   UNL d   1     -45.378  13.243  22.371  0.00  0.00     0.000 A 
ATOM     17  C   UNL d   1     -45.733  13.668  21.758  0.00  0.00     0.000 A 
ATOM     18  C   UNL d   1     -46.312  14.232  21.926  0.00  0.00     0.000 A 
BRANCH  16  19
ATOM     19  C   UNL d   1     -44.799  12.679  22.202  0.00  0.00     0.000 C 
ATOM     20  C   UNL d   1     -44.697  12.028  22.700  0.00  0.00     0.000 C 
ATOM     21  C   UNL d   1     -44.319  12.767  21.532  0.00  0.00     0.000 C 
ENDBRANCH  16  19
ENDBRANCH  12  13
ENDBRANCH   2  12
BRANCH   4  22
ATOM     22  C   UNL d   1     -49.546  12.847  23.494  0.00  0.00     0.086 C 
BRANCH  22  23
ATOM     23  N   UNL d   1     -49.136  12.194  23.208  0.00  0.00    -0.300 N 
ATOM     24  C   UNL d   1     -49.225  11.964  22.428  0.00  0.00     0.100 A 
ATOM     25  C   UNL d   1     -48.820  11.316  22.137  0.00  0.00     0.100 A 
ATOM     26  N   UNL d   1     -48.324  10.900  22.640  0.00  0.00    -0.299 N 
ATOM     27  C   UNL d   1     -48.235  11.129  23.421  0.00  0.00     0.100 A 
ATOM     28  C   UNL d   1     -47.913  10.248  22.359  0.00  0.00     0.100 C 
ATOM     29  C   UNL d   1     -48.645  11.779  23.698  0.00  0.00     0.100 A 
ENDBRANCH  22  23
ENDBRANCH   4  22
TORSDOF 5
ENDMDL
MODEL 4
REMARK VINA RESULT:      -3.7      8.735     10.475
REMARK  5 active torsions:
REMARK  status: ('A' for Active; 'I' for Inactive)
REMARK    1  A    between atoms: C_7  and  C_2 
REMARK    2  A    between atoms: C_9  and  C_4 
REMARK    3  A    between atoms: C_16  and  C_7 
REMARK    4  A    between atoms: N_8  and  C_9 
REMARK    5  A    between atoms: C_23  and  C_14 
ROOT
ATOM      1  C   UNL d   1     -49.090  12.441  23.661  0.00  0.00     0.108 A 
ATOM      2  C   UNL d   1     -47.946  11.737  23.674  0.00  0.00     0.139 A 
ATOM      3  O   UNL d   1     -48.263  12.508  23.692  0.00  0.00    -0.304 OA
ATOM      4  C   UNL d   1     -49.681  13.003  23.661  0.00  0.00     0.079 A 
ATOM      5  C   UNL d   1     -49.282  11.637  23.624  0.00  0.00     0.064 A 
ATOM      6  C   UNL d   1     -48.574  11.205  23.633  0.00  0.00     0.220 A 
ATOM      7  C   UNL d   1     -50.072  11.403  23.588  0.00  0.00     0.009 A 
ATOM      8  C   UNL d   1     -50.467  12.766  23.625  0.00  0.00     0.199 A 
ATOM      9  O   UNL d   1     -48.513  10.380  23.604  0.00  0.00    -0.284 OA
ATOM     10  C   UNL d   1     -50.662  11.969  23.589  0.00  0.00     0.042 A 
ATOM     11  O   UNL d   1     -51.064  13.335  23.626  0.00  0.00    -0.286 OA
ENDROOT
BRANCH   2  12
ATOM     12  C   UNL d   1     -47.142  11.543  23.695  0.00  0.00     0.028 C 
BRANCH  12  13
ATOM     13  C   UNL d   1     -46.597  11.990  23.264  0.00  0.00     0.002 A 
ATOM     14  C   UNL d   1     -46.706  12.107  22.454  0.00  0.00     0.000 A 
ATOM     15  C   UNL d   1     -46.162  12.554  22.024  0.00  0.00     0.000 A 
ATOM     16  C   UNL d   1     -45.509  12.884  22.405  0.00  0.00     0.000 A 
ATOM     17  C   UNL d   1     -45.400  12.767  23.216  0.00  0.00     0.000 A 
ATOM     18  C   UNL d   1     -45.944  12.320  23.646  0.00  0.00     0.000 A 
BRANCH  16  19
ATOM     19  C   UNL d   1     -44.964  13.330  21.975  0.00  0.00     0.000 C 
ATOM     20  C   UNL d   1     -45.050  14.150  21.924  0.00  0.00     0.000 C 
ATOM     21  C   UNL d   1     -44.331  12.955  21.593  0.00  0.00     0.000 C 
ENDBRANCH  16  19
ENDBRANCH  12  13
ENDBRANCH   2  12
BRANCH   4  22
ATOM     22  C   UNL d   1     -49.499  13.800  23.698  0.00  0.00     0.086 C 
BRANCH  22  23
ATOM     23  N   UNL d   1     -49.249  14.275  23.075  0.00  0.00    -0.300 N 
ATOM     24  C   UNL d   1     -49.592  14.196  22.336  0.00  0.00     0.100 A 
ATOM     25  C   UNL d   1     -49.348  14.666  21.713  0.00  0.00     0.100 A 
ATOM     26  N   UNL d   1     -48.754  15.217  21.840  0.00  0.00    -0.299 N 
ATOM     27  C   UNL d   1     -48.411  15.296  22.579  0.00  0.00     0.100 A 
ATOM     28  C   UNL d   1     -48.502  15.693  21.222  0.00  0.00     0.100 C 
ATOM     29  C   UNL d   1     -48.664  14.820  23.193  0.00  0.00     0.100 A 
ENDBRANCH  22  23
ENDBRANCH   4  22
TORSDOF 5
ENDMDL
