MODEL 1
REMARK VINA RESULT:      -3.1      0.000      0.000
REMARK  5 active torsions:
REMARK  status: ('A' for Active; 'I' for Inactive)
REMARK    1  A    between atoms: N_15  and  C_6 
REMARK    2  A    between atoms: N_14  and  C_18 
REMARK    3  A    between atoms: C_24  and  N_15 
REMARK    4  A    between atoms: C_18  and  C_19 
REMARK    5  A    between atoms: C_19  and  C_24 
ROOT
ATOM      1  N   UNL d   1      33.210  21.232 -21.509  0.00  0.00    -0.183 N 
ATOM      2  C   UNL d   1      33.200  22.053 -21.428  0.00  0.00     0.169 A 
ATOM      3  C   UNL d   1      33.180  22.397 -20.692  0.00  0.00     0.073 A 
ATOM      4  C   UNL d   1      33.170  21.915 -20.036  0.00  0.00     0.185 A 
ATOM      5  N   UNL d   1      33.180  21.094 -20.117  0.00  0.00    -0.142 NA
ATOM      6  C   UNL d   1      33.230  20.907 -22.254  0.00  0.00     0.218 A 
ATOM      7  N   UNL d   1      33.210  22.527 -22.093  0.00  0.00    -0.226 NA
ATOM      8  C   UNL d   1      33.170  23.209 -20.611  0.00  0.00     0.007 A 
ATOM      9  N   UNL d   1      33.149  22.248 -19.283  0.00  0.00    -0.225 NA
ATOM     10  C   UNL d   1      33.240  21.372 -22.915  0.00  0.00     0.071 A 
ATOM     11  C   UNL d   1      33.149  23.553 -19.874  0.00  0.00     0.019 A 
ATOM     12  C   UNL d   1      33.230  22.193 -22.834  0.00  0.00     0.087 A 
ATOM     13  C   UNL d   1      33.139  23.069 -19.201  0.00  0.00     0.083 A 
ATOM     14  C   UNL d   1      33.180  23.684 -21.280  0.00  0.00     0.000 C 
ATOM     15  C   UNL d   1      33.241  22.683 -23.527  0.00  0.00     0.021 C 
ATOM     16  C   UNL d   1      33.119  23.404 -18.465  0.00  0.00     0.021 C 
ENDROOT
BRANCH   6  17
ATOM     17  N   UNL d   1      33.241  20.059 -22.329  0.00  0.00    -0.380 NA
BRANCH  17  18
ATOM     18  C   UNL d   1      33.214  19.218 -22.301  0.00  0.00     0.164 C 
BRANCH  18  19
ATOM     19  C   UNL d   1      32.864  18.792 -22.935  0.00  0.00     0.054 C 
BRANCH  19  20
ATOM     20  C   UNL d   1      33.045  17.958 -23.035  0.00  0.00     0.083 C 
BRANCH  20  21
ATOM     21  N   UNL d   1      32.621  17.493 -23.601  0.00  0.00    -0.299 N 
ATOM     22  C   UNL d   1      31.924  17.064 -23.356  0.00  0.00     0.107 A 
ATOM     23  C   UNL d   1      31.492  16.595 -23.918  0.00  0.00     0.142 A 
ATOM     24  O   UNL d   1      31.758  16.554 -24.725  0.00  0.00    -0.300 OA
ATOM     25  C   UNL d   1      32.447  16.978 -24.966  0.00  0.00     0.142 A 
ATOM     26  C   UNL d   1      32.879  17.448 -24.404  0.00  0.00     0.107 A 
ENDBRANCH  20  21
ENDBRANCH  19  20
ENDBRANCH  18  19
ENDBRANCH  17  18
ENDBRANCH   6  17
TORSDOF 5
ENDMDL
MODEL 2
REMARK VINA RESULT:      -0.9      1.502      2.785
REMARK  5 active torsions:
REMARK  status: ('A' for Active; 'I' for Inactive)
REMARK    1  A    between atoms: N_15  and  C_6 
REMARK    2  A    between atoms: N_14  and  C_18 
REMARK    3  A    between atoms: C_24  and  N_15 
REMARK    4  A    between atoms: C_18  and  C_19 
REMARK    5  A    between atoms: C_19  and  C_24 
ROOT
ATOM      1  N   UNL d   1      33.237  19.891 -23.029  0.00  0.00    -0.183 N 
ATOM      2  C   UNL d   1      33.236  20.475 -22.447  0.00  0.00     0.169 A 
ATOM      3  C   UNL d   1      33.234  21.262 -22.649  0.00  0.00     0.073 A 
ATOM      4  C   UNL d   1      33.233  21.463 -23.438  0.00  0.00     0.185 A 
ATOM      5  N   UNL d   1      33.235  20.878 -24.020  0.00  0.00    -0.142 NA
ATOM      6  C   UNL d   1      33.239  19.109 -22.807  0.00  0.00     0.218 A 
ATOM      7  N   UNL d   1      33.237  20.262 -21.658  0.00  0.00    -0.226 NA
ATOM      8  C   UNL d   1      33.233  21.841 -22.073  0.00  0.00     0.007 A 
ATOM      9  N   UNL d   1      33.231  22.256 -23.659  0.00  0.00    -0.225 NA
ATOM     10  C   UNL d   1      33.240  18.893 -22.028  0.00  0.00     0.071 A 
ATOM     11  C   UNL d   1      33.231  22.629 -22.276  0.00  0.00     0.019 A 
ATOM     12  C   UNL d   1      33.239  19.478 -21.446  0.00  0.00     0.087 A 
ATOM     13  C   UNL d   1      33.230  22.841 -23.077  0.00  0.00     0.083 A 
ATOM     14  C   UNL d   1      33.233  21.626 -21.282  0.00  0.00     0.000 C 
ATOM     15  C   UNL d   1      33.240  19.254 -20.627  0.00  0.00     0.021 C 
ATOM     16  C   UNL d   1      33.228  23.622 -23.287  0.00  0.00     0.021 C 
ENDROOT
BRANCH   6  17
ATOM     17  N   UNL d   1      33.241  18.512 -23.415  0.00  0.00    -0.380 NA
BRANCH  17  18
ATOM     18  C   UNL d   1      33.134  17.931 -24.014  0.00  0.00     0.164 C 
BRANCH  18  19
ATOM     19  C   UNL d   1      32.510  17.372 -23.945  0.00  0.00     0.054 C 
BRANCH  19  20
ATOM     20  C   UNL d   1      31.994  17.228 -24.617  0.00  0.00     0.083 C 
BRANCH  20  21
ATOM     21  N   UNL d   1      31.182  17.024 -24.497  0.00  0.00    -0.299 N 
ATOM     22  C   UNL d   1      30.569  17.522 -24.824  0.00  0.00     0.107 A 
ATOM     23  C   UNL d   1      29.751  17.325 -24.708  0.00  0.00     0.142 A 
ATOM     24  O   UNL d   1      29.545  16.628 -24.265  0.00  0.00    -0.300 OA
ATOM     25  C   UNL d   1      30.151  16.136 -23.942  0.00  0.00     0.142 A 
ATOM     26  C   UNL d   1      30.969  16.334 -24.058  0.00  0.00     0.107 A 
ENDBRANCH  20  21
ENDBRANCH  19  20
ENDBRANCH  18  19
ENDBRANCH  17  18
ENDBRANCH   6  17
TORSDOF 5
ENDMDL
