MODEL 1
REMARK VINA RESULT:      19.5      0.000      0.000
REMARK  5 active torsions:
REMARK  status: ('A' for Active; 'I' for Inactive)
REMARK    1  A    between atoms: N_2  and  S_1 
REMARK    2  A    between atoms: C_6  and  S_1 
REMARK    3  A    between atoms: C_3  and  N_2 
REMARK    4  A    between atoms: N_7  and  C_3 
REMARK    5  A    between atoms: C_9  and  N_7 
ROOT
ATOM      1  N   UNL d   1     -56.282 -98.767 -44.294  0.00  0.00    -0.128 NA
ENDROOT
BRANCH   1   2
ATOM      2  S   UNL d   1     -57.112 -98.766 -44.327  0.00  0.00     0.287 S 
ATOM      3  O   UNL d   1     -57.155 -98.776 -43.493  0.00  0.00    -0.198 OA
ATOM      4  O   UNL d   1     -57.088 -98.755 -45.157  0.00  0.00    -0.198 OA
BRANCH   2   5
ATOM      5  C   UNL d   1     -57.946 -98.764 -44.361  0.00  0.00     0.105 A 
ATOM      6  C   UNL d   1     -58.392 -98.765 -43.656  0.00  0.00     0.013 A 
ATOM      7  C   UNL d   1     -59.214 -98.763 -43.689  0.00  0.00     0.001 A 
ATOM      8  C   UNL d   1     -59.597 -98.761 -44.417  0.00  0.00     0.000 A 
ATOM      9  C   UNL d   1     -59.158 -98.760 -45.121  0.00  0.00     0.001 A 
ATOM     10  C   UNL d   1     -58.334 -98.761 -45.088  0.00  0.00     0.013 A 
ENDBRANCH   2   5
ENDBRANCH   1   2
BRANCH   1  11
ATOM     11  C   UNL d   1     -55.549 -99.043 -44.585  0.00  0.00     0.232 C 
ATOM     12  S   UNL d   1     -55.337 -98.890 -45.368  0.00  0.00    -0.036 SA
BRANCH  11  13
ATOM     13  N   UNL d   1     -55.042 -99.465 -44.088  0.00  0.00    -0.217 NA
BRANCH  13  14
ATOM     14  C   UNL d   1     -54.974-100.285 -44.168  0.00  0.00     0.084 A 
ATOM     15  C   UNL d   1     -55.092-100.773 -43.516  0.00  0.00     0.019 A 
ATOM     16  C   UNL d   1     -55.025-101.586 -43.594  0.00  0.00     0.002 A 
ATOM     17  C   UNL d   1     -54.840-101.920 -44.322  0.00  0.00     0.000 A 
ATOM     18  C   UNL d   1     -54.721-101.432 -44.978  0.00  0.00     0.002 A 
ATOM     19  C   UNL d   1     -54.788-100.614 -44.904  0.00  0.00     0.019 A 
ENDBRANCH  13  14
ENDBRANCH  11  13
ENDBRANCH   1  11
TORSDOF 5
ENDMDL
