MODEL 1
REMARK VINA RESULT:      -3.2      0.000      0.000
REMARK  5 active torsions:
REMARK  status: ('A' for Active; 'I' for Inactive)
REMARK    1  A    between atoms: C_6  and  N_1 
REMARK    2  A    between atoms: C_7  and  C_2 
REMARK    3  A    between atoms: C_12  and  C_6 
REMARK    4  A    between atoms: C_11  and  C_7 
REMARK       I    between atoms: C_8  and  N_10 
REMARK    5  A    between atoms: N_10  and  C_11 
ROOT
ATOM      1  N   UNL d   1      58.276  -0.092  29.906  0.00  0.00    -0.289 N 
ATOM      2  C   UNL d   1      58.229  -0.886  29.661  0.00  0.00     0.149 A 
ATOM      3  N   UNL d   1      57.766  -1.296  30.211  0.00  0.00    -0.227 NA
ATOM      4  C   UNL d   1      57.841  -0.013  30.607  0.00  0.00     0.083 A 
ATOM      5  C   UNL d   1      57.525  -0.760  30.796  0.00  0.00     0.099 A 
ATOM      6  C   UNL d   1      57.689   0.635  31.100  0.00  0.00     0.019 A 
ATOM      7  C   UNL d   1      57.060  -0.852  31.477  0.00  0.00     0.021 A 
ATOM      8  C   UNL d   1      57.228   0.542  31.773  0.00  0.00     0.002 A 
ATOM      9  C   UNL d   1      56.915  -0.198  31.961  0.00  0.00     0.002 A 
ENDROOT
BRANCH   1  10
ATOM     10  C   UNL d   1      58.683   0.515  29.520  0.00  0.00     0.082 C 
BRANCH  10  11
ATOM     11  C   UNL d   1      59.503   0.566  29.579  0.00  0.00     0.018 A 
ATOM     12  C   UNL d   1      59.961   0.552  28.896  0.00  0.00     0.002 A 
ATOM     13  C   UNL d   1      60.789   0.603  28.949  0.00  0.00     0.000 A 
ATOM     14  C   UNL d   1      61.133   0.668  29.688  0.00  0.00     0.000 A 
ATOM     15  C   UNL d   1      60.672   0.682  30.374  0.00  0.00     0.000 A 
ATOM     16  C   UNL d   1      59.853   0.631  30.315  0.00  0.00     0.002 A 
ENDBRANCH  10  11
ENDBRANCH   1  10
BRANCH   2  17
ATOM     17  C   UNL d   1      58.378  -1.532  29.174  0.00  0.00     0.058 C 
BRANCH  17  18
ATOM     18  C   UNL d   1      58.886  -2.128  29.426  0.00  0.00     0.105 C 
BRANCH  18  19
ATOM     19  N   UNL d   1      59.101  -2.730  28.909  0.00  0.00    -0.206 NA
ATOM     20  C   UNL d   1      59.793  -3.151  29.031  0.00  0.00     0.280 C 
ATOM     21  O   UNL d   1      60.274  -2.970  29.676  0.00  0.00    -0.265 OA
ATOM     22  C   UNL d   1      60.011  -3.756  28.513  0.00  0.00     0.068 C 
ENDBRANCH  18  19
ENDBRANCH  17  18
ENDBRANCH   2  17
TORSDOF 5
ENDMDL
MODEL 2
REMARK VINA RESULT:      -3.0      1.394      3.823
REMARK  5 active torsions:
REMARK  status: ('A' for Active; 'I' for Inactive)
REMARK    1  A    between atoms: C_6  and  N_1 
REMARK    2  A    between atoms: C_7  and  C_2 
REMARK    3  A    between atoms: C_12  and  C_6 
REMARK    4  A    between atoms: C_11  and  C_7 
REMARK       I    between atoms: C_8  and  N_10 
REMARK    5  A    between atoms: N_10  and  C_11 
ROOT
ATOM      1  N   UNL d   1      59.200  -0.870  29.094  0.00  0.00    -0.289 N 
ATOM      2  C   UNL d   1      58.848  -0.760  29.841  0.00  0.00     0.149 A 
ATOM      3  N   UNL d   1      59.300  -0.205  30.257  0.00  0.00    -0.227 NA
ATOM      4  C   UNL d   1      59.869  -0.382  29.051  0.00  0.00     0.083 A 
ATOM      5  C   UNL d   1      59.931   0.030  29.772  0.00  0.00     0.099 A 
ATOM      6  C   UNL d   1      60.430  -0.257  28.455  0.00  0.00     0.019 A 
ATOM      7  C   UNL d   1      60.554   0.564  29.890  0.00  0.00     0.021 A 
ATOM      8  C   UNL d   1      61.047   0.273  28.575  0.00  0.00     0.002 A 
ATOM      9  C   UNL d   1      61.108   0.682  29.289  0.00  0.00     0.002 A 
ENDROOT
BRANCH   1  10
ATOM     10  C   UNL d   1      58.932  -1.376  28.498  0.00  0.00     0.082 C 
BRANCH  10  11
ATOM     11  C   UNL d   1      59.061  -2.187  28.555  0.00  0.00     0.018 A 
ATOM     12  C   UNL d   1      59.822  -2.485  28.455  0.00  0.00     0.002 A 
ATOM     13  C   UNL d   1      59.959  -3.303  28.511  0.00  0.00     0.000 A 
ATOM     14  C   UNL d   1      59.326  -3.799  28.666  0.00  0.00     0.000 A 
ATOM     15  C   UNL d   1      58.563  -3.498  28.766  0.00  0.00     0.000 A 
ATOM     16  C   UNL d   1      58.433  -2.688  28.709  0.00  0.00     0.002 A 
ENDBRANCH  10  11
ENDBRANCH   1  10
BRANCH   2  17
ATOM     17  C   UNL d   1      58.292  -0.882  30.435  0.00  0.00     0.058 C 
BRANCH  17  18
ATOM     18  C   UNL d   1      57.836  -0.253  30.705  0.00  0.00     0.105 C 
BRANCH  18  19
ATOM     19  N   UNL d   1      57.130  -0.400  31.102  0.00  0.00    -0.206 NA
ATOM     20  C   UNL d   1      56.941   0.024  31.778  0.00  0.00     0.280 C 
ATOM     21  O   UNL d   1      57.461   0.599  32.059  0.00  0.00    -0.265 OA
ATOM     22  C   UNL d   1      56.233  -0.122  32.177  0.00  0.00     0.068 C 
ENDBRANCH  18  19
ENDBRANCH  17  18
ENDBRANCH   2  17
TORSDOF 5
ENDMDL
MODEL 3
REMARK VINA RESULT:      -1.9      1.521      3.551
REMARK  5 active torsions:
REMARK  status: ('A' for Active; 'I' for Inactive)
REMARK    1  A    between atoms: C_6  and  N_1 
REMARK    2  A    between atoms: C_7  and  C_2 
REMARK    3  A    between atoms: C_12  and  C_6 
REMARK    4  A    between atoms: C_11  and  C_7 
REMARK       I    between atoms: C_8  and  N_10 
REMARK    5  A    between atoms: N_10  and  C_11 
ROOT
ATOM      1  N   UNL d   1      58.502  -0.067  30.155  0.00  0.00    -0.289 N 
ATOM      2  C   UNL d   1      57.940   0.071  30.754  0.00  0.00     0.149 A 
ATOM      3  N   UNL d   1      58.340   0.372  31.413  0.00  0.00    -0.227 NA
ATOM      4  C   UNL d   1      59.247   0.149  30.446  0.00  0.00     0.083 A 
ATOM      5  C   UNL d   1      59.146   0.422  31.227  0.00  0.00     0.099 A 
ATOM      6  C   UNL d   1      60.004   0.136  30.109  0.00  0.00     0.019 A 
ATOM      7  C   UNL d   1      59.803   0.678  31.663  0.00  0.00     0.021 A 
ATOM      8  C   UNL d   1      60.653   0.390  30.543  0.00  0.00     0.002 A 
ATOM      9  C   UNL d   1      60.553   0.660  31.316  0.00  0.00     0.002 A 
ENDROOT
BRANCH   1  10
ATOM     10  C   UNL d   1      58.347  -0.367  29.401  0.00  0.00     0.082 C 
BRANCH  10  11
ATOM     11  C   UNL d   1      58.559  -1.140  29.211  0.00  0.00     0.018 A 
ATOM     12  C   UNL d   1      58.191  -1.768  29.595  0.00  0.00     0.002 A 
ATOM     13  C   UNL d   1      58.400  -2.550  29.408  0.00  0.00     0.000 A 
ATOM     14  C   UNL d   1      58.975  -2.680  28.840  0.00  0.00     0.000 A 
ATOM     15  C   UNL d   1      59.344  -2.048  28.455  0.00  0.00     0.000 A 
ATOM     16  C   UNL d   1      59.133  -1.275  28.644  0.00  0.00     0.002 A 
ENDBRANCH  10  11
ENDBRANCH   1  10
BRANCH   2  17
ATOM     17  C   UNL d   1      57.191   0.086  31.092  0.00  0.00     0.058 C 
BRANCH  17  18
ATOM     18  C   UNL d   1      57.004  -0.436  31.700  0.00  0.00     0.105 C 
BRANCH  18  19
ATOM     19  N   UNL d   1      56.379  -0.269  32.207  0.00  0.00    -0.206 NA
ATOM     20  C   UNL d   1      56.036  -0.866  32.651  0.00  0.00     0.280 C 
ATOM     21  O   UNL d   1      56.321  -1.638  32.587  0.00  0.00    -0.265 OA
ATOM     22  C   UNL d   1      55.409  -0.700  33.161  0.00  0.00     0.068 C 
ENDBRANCH  18  19
ENDBRANCH  17  18
ENDBRANCH   2  17
TORSDOF 5
ENDMDL
MODEL 4
REMARK VINA RESULT:      -1.2      1.010      2.896
REMARK  5 active torsions:
REMARK  status: ('A' for Active; 'I' for Inactive)
REMARK    1  A    between atoms: C_6  and  N_1 
REMARK    2  A    between atoms: C_7  and  C_2 
REMARK    3  A    between atoms: C_12  and  C_6 
REMARK    4  A    between atoms: C_11  and  C_7 
REMARK       I    between atoms: C_8  and  N_10 
REMARK    5  A    between atoms: N_10  and  C_11 
ROOT
ATOM      1  N   UNL d   1      59.019  -0.853  29.916  0.00  0.00    -0.289 N 
ATOM      2  C   UNL d   1      58.783  -1.250  29.223  0.00  0.00     0.149 A 
ATOM      3  N   UNL d   1      59.239  -0.962  28.596  0.00  0.00    -0.227 NA
ATOM      4  C   UNL d   1      59.621  -0.320  29.714  0.00  0.00     0.083 A 
ATOM      5  C   UNL d   1      59.758  -0.388  28.895  0.00  0.00     0.099 A 
ATOM      6  C   UNL d   1      60.065   0.217  30.163  0.00  0.00     0.019 A 
ATOM      7  C   UNL d   1      60.337   0.082  28.533  0.00  0.00     0.021 A 
ATOM      8  C   UNL d   1      60.638   0.682  29.801  0.00  0.00     0.002 A 
ATOM      9  C   UNL d   1      60.773   0.615  28.990  0.00  0.00     0.002 A 
ENDROOT
BRANCH   1  10
ATOM     10  C   UNL d   1      58.710  -0.967  30.674  0.00  0.00     0.082 C 
BRANCH  10  11
ATOM     11  C   UNL d   1      58.029  -0.566  30.908  0.00  0.00     0.018 A 
ATOM     12  C   UNL d   1      57.375  -0.994  31.165  0.00  0.00     0.002 A 
ATOM     13  C   UNL d   1      56.685  -0.595  31.402  0.00  0.00     0.000 A 
ATOM     14  C   UNL d   1      56.672   0.223  31.375  0.00  0.00     0.000 A 
ATOM     15  C   UNL d   1      57.331   0.651  31.116  0.00  0.00     0.000 A 
ATOM     16  C   UNL d   1      58.011   0.251  30.882  0.00  0.00     0.002 A 
ENDBRANCH  10  11
ENDBRANCH   1  10
BRANCH   2  17
ATOM     17  C   UNL d   1      58.344  -1.782  28.775  0.00  0.00     0.058 C 
BRANCH  17  18
ATOM     18  C   UNL d   1      58.675  -2.502  28.554  0.00  0.00     0.105 C 
BRANCH  18  19
ATOM     19  N   UNL d   1      58.194  -3.162  28.456  0.00  0.00    -0.206 NA
ATOM     20  C   UNL d   1      58.501  -3.916  28.556  0.00  0.00     0.280 C 
ATOM     21  O   UNL d   1      59.296  -4.010  28.755  0.00  0.00    -0.265 OA
ATOM     22  C   UNL d   1      58.019  -4.578  28.458  0.00  0.00     0.068 C 
ENDBRANCH  18  19
ENDBRANCH  17  18
ENDBRANCH   2  17
TORSDOF 5
ENDMDL
MODEL 5
REMARK VINA RESULT:      -0.7      1.309      1.953
REMARK  5 active torsions:
REMARK  status: ('A' for Active; 'I' for Inactive)
REMARK    1  A    between atoms: C_6  and  N_1 
REMARK    2  A    between atoms: C_7  and  C_2 
REMARK    3  A    between atoms: C_12  and  C_6 
REMARK    4  A    between atoms: C_11  and  C_7 
REMARK       I    between atoms: C_8  and  N_10 
REMARK    5  A    between atoms: N_10  and  C_11 
ROOT
ATOM      1  N   UNL d   1      57.466  -0.073  31.507  0.00  0.00    -0.289 N 
ATOM      2  C   UNL d   1      57.535  -0.649  30.909  0.00  0.00     0.149 A 
ATOM      3  N   UNL d   1      57.026  -1.273  31.095  0.00  0.00    -0.227 NA
ATOM      4  C   UNL d   1      56.913  -0.345  32.062  0.00  0.00     0.083 A 
ATOM      5  C   UNL d   1      56.640  -1.089  31.806  0.00  0.00     0.099 A 
ATOM      6  C   UNL d   1      56.621  -0.018  32.765  0.00  0.00     0.019 A 
ATOM      7  C   UNL d   1      56.076  -1.499  32.256  0.00  0.00     0.021 A 
ATOM      8  C   UNL d   1      56.062  -0.426  33.208  0.00  0.00     0.002 A 
ATOM      9  C   UNL d   1      55.791  -1.163  32.955  0.00  0.00     0.002 A 
ENDROOT
BRANCH   1  10
ATOM     10  C   UNL d   1      57.876   0.643  31.545  0.00  0.00     0.082 C 
BRANCH  10  11
ATOM     11  C   UNL d   1      58.688   0.650  31.678  0.00  0.00     0.018 A 
ATOM     12  C   UNL d   1      58.974   0.650  32.450  0.00  0.00     0.002 A 
ATOM     13  C   UNL d   1      59.793   0.656  32.591  0.00  0.00     0.000 A 
ATOM     14  C   UNL d   1      60.303   0.662  31.951  0.00  0.00     0.000 A 
ATOM     15  C   UNL d   1      60.015   0.662  31.176  0.00  0.00     0.000 A 
ATOM     16  C   UNL d   1      59.203   0.655  31.042  0.00  0.00     0.002 A 
ENDBRANCH  10  11
ENDBRANCH   1  10
BRANCH   2  17
ATOM     17  C   UNL d   1      57.824  -0.976  30.212  0.00  0.00     0.058 C 
BRANCH  17  18
ATOM     18  C   UNL d   1      58.123  -1.743  30.212  0.00  0.00     0.105 C 
BRANCH  18  19
ATOM     19  N   UNL d   1      58.775  -1.928  29.747  0.00  0.00    -0.206 NA
ATOM     20  C   UNL d   1      58.735  -2.543  29.206  0.00  0.00     0.280 C 
ATOM     21  O   UNL d   1      58.037  -2.975  29.129  0.00  0.00    -0.265 OA
ATOM     22  C   UNL d   1      59.389  -2.730  28.738  0.00  0.00     0.068 C 
ENDBRANCH  18  19
ENDBRANCH  17  18
ENDBRANCH   2  17
TORSDOF 5
ENDMDL
MODEL 6
REMARK VINA RESULT:      -0.4      1.860      3.929
REMARK  5 active torsions:
REMARK  status: ('A' for Active; 'I' for Inactive)
REMARK    1  A    between atoms: C_6  and  N_1 
REMARK    2  A    between atoms: C_7  and  C_2 
REMARK    3  A    between atoms: C_12  and  C_6 
REMARK    4  A    between atoms: C_11  and  C_7 
REMARK       I    between atoms: C_8  and  N_10 
REMARK    5  A    between atoms: N_10  and  C_11 
ROOT
ATOM      1  N   UNL d   1      57.306   0.638  32.360  0.00  0.00    -0.289 N 
ATOM      2  C   UNL d   1      57.775   0.647  31.672  0.00  0.00     0.149 A 
ATOM      3  N   UNL d   1      58.569   0.665  31.904  0.00  0.00    -0.227 NA
ATOM      4  C   UNL d   1      57.813   0.650  33.016  0.00  0.00     0.083 A 
ATOM      5  C   UNL d   1      58.596   0.667  32.733  0.00  0.00     0.099 A 
ATOM      6  C   UNL d   1      57.670   0.648  33.832  0.00  0.00     0.019 A 
ATOM      7  C   UNL d   1      59.229   0.682  33.268  0.00  0.00     0.021 A 
ATOM      8  C   UNL d   1      58.300   0.662  34.361  0.00  0.00     0.002 A 
ATOM      9  C   UNL d   1      59.075   0.679  34.080  0.00  0.00     0.002 A 
ENDROOT
BRANCH   1  10
ATOM     10  C   UNL d   1      56.481   0.619  32.389  0.00  0.00     0.082 C 
BRANCH  10  11
ATOM     11  C   UNL d   1      56.090  -0.058  32.648  0.00  0.00     0.018 A 
ATOM     12  C   UNL d   1      56.271  -0.786  32.308  0.00  0.00     0.002 A 
ATOM     13  C   UNL d   1      55.881  -1.473  32.564  0.00  0.00     0.000 A 
ATOM     14  C   UNL d   1      55.319  -1.410  33.156  0.00  0.00     0.000 A 
ATOM     15  C   UNL d   1      55.139  -0.679  33.497  0.00  0.00     0.000 A 
ATOM     16  C   UNL d   1      55.528  -0.001  33.239  0.00  0.00     0.002 A 
ENDBRANCH  10  11
ENDBRANCH   1  10
BRANCH   2  17
ATOM     17  C   UNL d   1      57.920   0.649  30.862  0.00  0.00     0.058 C 
BRANCH  17  18
ATOM     18  C   UNL d   1      58.055  -0.060  30.468  0.00  0.00     0.105 C 
BRANCH  18  19
ATOM     19  N   UNL d   1      58.159  -0.062  29.652  0.00  0.00    -0.206 NA
ATOM     20  C   UNL d   1      58.495  -0.711  29.280  0.00  0.00     0.280 C 
ATOM     21  O   UNL d   1      58.728  -1.363  29.728  0.00  0.00    -0.265 OA
ATOM     22  C   UNL d   1      58.600  -0.714  28.462  0.00  0.00     0.068 C 
ENDBRANCH  18  19
ENDBRANCH  17  18
ENDBRANCH   2  17
TORSDOF 5
ENDMDL
