MODEL 1
REMARK VINA RESULT:      -3.4      0.000      0.000
REMARK  7 active torsions:
REMARK  status: ('A' for Active; 'I' for Inactive)
REMARK    1  A    between atoms: N_3  and  C_1 
REMARK       I    between atoms: C_8  and  N_3 
REMARK    2  A    between atoms: C_12  and  N_3 
REMARK    3  A    between atoms: S_5  and  C_11 
REMARK    4  A    between atoms: C_16  and  S_5 
REMARK    5  A    between atoms: C_9  and  C_8 
REMARK    6  A    between atoms: C_11  and  C_9 
REMARK    7  A    between atoms: C_21  and  C_12 
ROOT
ATOM      1  N   UNL d   1      58.514  -0.883  29.909  0.00  0.00    -0.253 N 
ATOM      2  C   UNL d   1      58.092  -0.885  30.634  0.00  0.00     0.267 C 
ATOM      3  O   UNL d   1      57.973  -1.595  31.030  0.00  0.00    -0.267 OA
ENDROOT
BRANCH   1   4
ATOM      4  C   UNL d   1      58.802  -1.592  29.604  0.00  0.00     0.182 A 
ATOM      5  N   UNL d   1      59.597  -1.835  29.590  0.00  0.00    -0.222 NA
ATOM      6  C   UNL d   1      59.642  -2.584  29.233  0.00  0.00     0.089 A 
ATOM      7  C   UNL d   1      60.270  -3.071  29.079  0.00  0.00     0.020 A 
ATOM      8  C   UNL d   1      58.872  -2.802  29.026  0.00  0.00     0.050 A 
ATOM      9  C   UNL d   1      60.144  -3.783  28.718  0.00  0.00     0.002 A 
ATOM     10  C   UNL d   1      60.787  -4.285  28.559  0.00  0.00     0.000 C 
ATOM     11  C   UNL d   1      59.382  -4.010  28.507  0.00  0.00     0.001 A 
ATOM     12  C   UNL d   1      58.745  -3.521  28.660  0.00  0.00     0.007 A 
ATOM     13  C   UNL d   1      57.980  -3.736  28.455  0.00  0.00     0.001 C 
ATOM     14  S   UNL d   1      58.358  -2.197  29.252  0.00  0.00    -0.048 SA
ENDBRANCH   1   4
BRANCH   1  15
ATOM     15  C   UNL d   1      58.637  -0.176  29.506  0.00  0.00     0.086 C 
BRANCH  15  16
ATOM     16  C   UNL d   1      59.404   0.110  29.400  0.00  0.00     0.037 A 
ATOM     17  C   UNL d   1      59.716   0.184  28.642  0.00  0.00     0.100 A 
ATOM     18  N   UNL d   1      60.482   0.470  28.536  0.00  0.00    -0.242 NA
ATOM     19  C   UNL d   1      60.937   0.682  29.188  0.00  0.00     0.099 A 
ATOM     20  C   UNL d   1      60.627   0.609  29.951  0.00  0.00     0.021 A 
ATOM     21  C   UNL d   1      59.860   0.323  30.057  0.00  0.00     0.005 A 
ENDBRANCH  15  16
ENDBRANCH   1  15
BRANCH   2  22
ATOM     22  C   UNL d   1      57.806  -0.179  30.936  0.00  0.00     0.073 C 
BRANCH  22  23
ATOM     23  C   UNL d   1      57.011  -0.126  31.166  0.00  0.00     0.104 C 
BRANCH  23  24
ATOM     24  S   UNL d   1      56.820   0.042  31.954  0.00  0.00     0.211 S 
ATOM     25  O   UNL d   1      57.439   0.605  31.988  0.00  0.00    -0.217 OA
ATOM     26  O   UNL d   1      56.204  -0.518  31.921  0.00  0.00    -0.217 OA
BRANCH  24  27
ATOM     27  C   UNL d   1      56.629   0.212  32.744  0.00  0.00     0.088 A 
ATOM     28  C   UNL d   1      57.209   0.512  33.249  0.00  0.00     0.011 A 
ATOM     29  C   UNL d   1      57.025   0.682  34.033  0.00  0.00     0.001 A 
ATOM     30  C   UNL d   1      56.260   0.552  34.312  0.00  0.00     0.000 A 
ATOM     31  C   UNL d   1      55.685   0.256  33.815  0.00  0.00     0.001 A 
ATOM     32  C   UNL d   1      55.864   0.083  33.026  0.00  0.00     0.011 A 
ENDBRANCH  24  27
ENDBRANCH  23  24
ENDBRANCH  22  23
ENDBRANCH   2  22
TORSDOF 7
ENDMDL
