MODEL 1
REMARK VINA RESULT:      -5.8      0.000      0.000
REMARK  4 active torsions:
REMARK  status: ('A' for Active; 'I' for Inactive)
REMARK    1  A    between atoms: S_5  and  C_2 
REMARK    2  A    between atoms: C_14  and  S_5 
REMARK    3  A    between atoms: N_11  and  C_8 
REMARK    4  A    between atoms: C_15  and  N_11 
ROOT
ATOM      1  C   UNL d   1     -48.237  14.548  22.898  0.00  0.00     0.197 A 
ATOM      2  C   UNL d   1     -47.479  14.733  22.634  0.00  0.00     0.227 A 
ATOM      3  N   UNL d   1     -48.685  15.242  22.904  0.00  0.00    -0.192 N 
ATOM      4  N   UNL d   1     -48.581  13.832  23.135  0.00  0.00    -0.206 NA
ATOM      5  N   UNL d   1     -47.455  15.551  22.475  0.00  0.00    -0.115 NA
ATOM      6  N   UNL d   1     -48.205  15.862  22.644  0.00  0.00    -0.058 NA
ATOM      7  C   UNL d   1     -49.375  13.807  23.380  0.00  0.00     0.166 A 
ATOM      8  C   UNL d   1     -49.815  14.507  23.383  0.00  0.00     0.054 A 
ATOM      9  C   UNL d   1     -49.480  15.223  23.148  0.00  0.00     0.089 A 
ATOM     10  C   UNL d   1     -50.610  14.491  23.627  0.00  0.00     0.005 A 
ATOM     11  C   UNL d   1     -49.923  15.920  23.153  0.00  0.00     0.019 A 
ATOM     12  C   UNL d   1     -51.053  15.185  23.632  0.00  0.00     0.000 A 
ATOM     13  C   UNL d   1     -50.709  15.901  23.395  0.00  0.00     0.002 A 
ENDROOT
BRANCH   2  14
ATOM     14  S   UNL d   1     -46.848  14.210  22.540  0.00  0.00     0.231 S 
ATOM     15  O   UNL d   1     -46.592  14.333  23.313  0.00  0.00    -0.215 OA
ATOM     16  O   UNL d   1     -47.108  14.088  21.764  0.00  0.00    -0.215 OA
BRANCH  14  17
ATOM     17  C   UNL d   1     -46.238  13.681  22.396  0.00  0.00     0.090 A 
ATOM     18  C   UNL d   1     -45.720  13.476  23.002  0.00  0.00     0.011 A 
ATOM     19  C   UNL d   1     -45.108  12.948  22.866  0.00  0.00     0.001 A 
ATOM     20  C   UNL d   1     -45.011  12.621  22.110  0.00  0.00     0.000 A 
ATOM     21  C   UNL d   1     -45.533  12.829  21.502  0.00  0.00     0.001 A 
ATOM     22  C   UNL d   1     -46.142  13.355  21.644  0.00  0.00     0.011 A 
ENDBRANCH  14  17
ENDBRANCH   2  14
BRANCH   7  23
ATOM     23  N   UNL d   1     -49.717  13.095  23.616  0.00  0.00    -0.227 NA
BRANCH  23  24
ATOM     24  C   UNL d   1     -49.481  12.387  23.268  0.00  0.00     0.083 A 
ATOM     25  C   UNL d   1     -48.951  11.890  23.657  0.00  0.00     0.019 A 
ATOM     26  C   UNL d   1     -48.716  11.183  23.307  0.00  0.00     0.002 A 
ATOM     27  C   UNL d   1     -48.185  10.686  23.697  0.00  0.00     0.000 C 
ATOM     28  C   UNL d   1     -49.011  10.968  22.563  0.00  0.00     0.000 A 
ATOM     29  C   UNL d   1     -49.546  11.475  22.175  0.00  0.00     0.002 A 
ATOM     30  C   UNL d   1     -49.777  12.177  22.528  0.00  0.00     0.019 A 
ENDBRANCH  23  24
ENDBRANCH   7  23
TORSDOF 4
ENDMDL
MODEL 2
REMARK VINA RESULT:      -4.4      1.953      4.792
REMARK  4 active torsions:
REMARK  status: ('A' for Active; 'I' for Inactive)
REMARK    1  A    between atoms: S_5  and  C_2 
REMARK    2  A    between atoms: C_14  and  S_5 
REMARK    3  A    between atoms: N_11  and  C_8 
REMARK    4  A    between atoms: C_15  and  N_11 
ROOT
ATOM      1  C   UNL d   1     -47.648  11.723  23.113  0.00  0.00     0.197 A 
ATOM      2  C   UNL d   1     -48.435  11.510  23.228  0.00  0.00     0.227 A 
ATOM      3  N   UNL d   1     -47.170  11.114  23.402  0.00  0.00    -0.192 N 
ATOM      4  N   UNL d   1     -47.300  12.398  22.780  0.00  0.00    -0.206 NA
ATOM      5  N   UNL d   1     -48.447  10.760  23.592  0.00  0.00    -0.115 NA
ATOM      6  N   UNL d   1     -47.660  10.519  23.698  0.00  0.00    -0.058 NA
ATOM      7  C   UNL d   1     -46.473  12.467  22.736  0.00  0.00     0.166 A 
ATOM      8  C   UNL d   1     -46.003  11.852  23.028  0.00  0.00     0.054 A 
ATOM      9  C   UNL d   1     -46.342  11.177  23.360  0.00  0.00     0.089 A 
ATOM     10  C   UNL d   1     -45.175  11.913  22.987  0.00  0.00     0.005 A 
ATOM     11  C   UNL d   1     -45.869  10.566  23.650  0.00  0.00     0.019 A 
ATOM     12  C   UNL d   1     -44.702  11.305  23.275  0.00  0.00     0.000 A 
ATOM     13  C   UNL d   1     -45.050  10.629  23.608  0.00  0.00     0.002 A 
ENDROOT
BRANCH   2  14
ATOM     14  S   UNL d   1     -49.100  11.951  23.023  0.00  0.00     0.231 S 
ATOM     15  O   UNL d   1     -49.234  11.494  22.352  0.00  0.00    -0.215 OA
ATOM     16  O   UNL d   1     -48.963  12.410  23.698  0.00  0.00    -0.215 OA
BRANCH  14  17
ATOM     17  C   UNL d   1     -49.753  12.422  22.863  0.00  0.00     0.090 A 
ATOM     18  C   UNL d   1     -49.997  12.535  22.086  0.00  0.00     0.011 A 
ATOM     19  C   UNL d   1     -50.648  13.003  21.917  0.00  0.00     0.001 A 
ATOM     20  C   UNL d   1     -51.064  13.364  22.539  0.00  0.00     0.000 A 
ATOM     21  C   UNL d   1     -50.816  13.248  23.320  0.00  0.00     0.001 A 
ATOM     22  C   UNL d   1     -50.166  12.780  23.481  0.00  0.00     0.011 A 
ENDBRANCH  14  17
ENDBRANCH   2  14
BRANCH   7  23
ATOM     23  N   UNL d   1     -46.127  13.139  22.405  0.00  0.00    -0.227 NA
BRANCH  23  24
ATOM     24  C   UNL d   1     -46.481  13.876  22.501  0.00  0.00     0.083 A 
ATOM     25  C   UNL d   1     -46.956  14.188  21.903  0.00  0.00     0.019 A 
ATOM     26  C   UNL d   1     -47.310  14.925  22.001  0.00  0.00     0.002 A 
ATOM     27  C   UNL d   1     -47.785  15.237  21.403  0.00  0.00     0.000 C 
ATOM     28  C   UNL d   1     -47.190  15.356  22.699  0.00  0.00     0.000 A 
ATOM     29  C   UNL d   1     -46.709  15.035  23.298  0.00  0.00     0.002 A 
ATOM     30  C   UNL d   1     -46.359  14.301  23.196  0.00  0.00     0.019 A 
ENDBRANCH  23  24
ENDBRANCH   7  23
TORSDOF 4
ENDMDL
MODEL 3
REMARK VINA RESULT:      -4.3      7.713     10.447
REMARK  4 active torsions:
REMARK  status: ('A' for Active; 'I' for Inactive)
REMARK    1  A    between atoms: S_5  and  C_2 
REMARK    2  A    between atoms: C_14  and  S_5 
REMARK    3  A    between atoms: N_11  and  C_8 
REMARK    4  A    between atoms: C_15  and  N_11 
ROOT
ATOM      1  C   UNL d   1     -40.011  14.910  17.795  0.00  0.00     0.197 A 
ATOM      2  C   UNL d   1     -40.754  15.090  18.101  0.00  0.00     0.227 A 
ATOM      3  N   UNL d   1     -40.029  15.042  16.979  0.00  0.00    -0.192 N 
ATOM      4  N   UNL d   1     -39.315  14.640  18.154  0.00  0.00    -0.206 NA
ATOM      5  N   UNL d   1     -41.240  15.338  17.470  0.00  0.00    -0.115 NA
ATOM      6  N   UNL d   1     -40.785  15.306  16.776  0.00  0.00    -0.058 NA
ATOM      7  C   UNL d   1     -38.633  14.501  17.700  0.00  0.00     0.166 A 
ATOM      8  C   UNL d   1     -38.660  14.637  16.884  0.00  0.00     0.054 A 
ATOM      9  C   UNL d   1     -39.350  14.905  16.519  0.00  0.00     0.089 A 
ATOM     10  C   UNL d   1     -37.983  14.501  16.422  0.00  0.00     0.005 A 
ATOM     11  C   UNL d   1     -39.373  15.039  15.705  0.00  0.00     0.019 A 
ATOM     12  C   UNL d   1     -38.004  14.634  15.610  0.00  0.00     0.000 A 
ATOM     13  C   UNL d   1     -38.700  14.904  15.251  0.00  0.00     0.002 A 
ENDROOT
BRANCH   2  14
ATOM     14  S   UNL d   1     -40.987  15.039  18.890  0.00  0.00     0.231 S 
ATOM     15  O   UNL d   1     -41.252  14.266  18.793  0.00  0.00    -0.215 OA
ATOM     16  O   UNL d   1     -40.721  15.817  18.985  0.00  0.00    -0.215 OA
BRANCH  14  17
ATOM     17  C   UNL d   1     -41.202  15.040  19.682  0.00  0.00     0.090 A 
ATOM     18  C   UNL d   1     -41.520  14.361  20.022  0.00  0.00     0.011 A 
ATOM     19  C   UNL d   1     -41.738  14.353  20.812  0.00  0.00     0.001 A 
ATOM     20  C   UNL d   1     -41.634  15.036  21.271  0.00  0.00     0.000 A 
ATOM     21  C   UNL d   1     -41.313  15.718  20.927  0.00  0.00     0.001 A 
ATOM     22  C   UNL d   1     -41.099  15.719  20.139  0.00  0.00     0.011 A 
ENDBRANCH  14  17
ENDBRANCH   2  14
BRANCH   7  23
ATOM     23  N   UNL d   1     -37.940  14.233  18.057  0.00  0.00    -0.227 NA
BRANCH  23  24
ATOM     24  C   UNL d   1     -37.978  13.769  18.736  0.00  0.00     0.083 A 
ATOM     25  C   UNL d   1     -37.945  14.121  19.481  0.00  0.00     0.019 A 
ATOM     26  C   UNL d   1     -37.984  13.656  20.159  0.00  0.00     0.002 A 
ATOM     27  C   UNL d   1     -37.950  14.008  20.905  0.00  0.00     0.000 C 
ATOM     28  C   UNL d   1     -38.056  12.832  20.096  0.00  0.00     0.000 A 
ATOM     29  C   UNL d   1     -38.089  12.483  19.340  0.00  0.00     0.002 A 
ATOM     30  C   UNL d   1     -38.050  12.951  18.669  0.00  0.00     0.019 A 
ENDBRANCH  23  24
ENDBRANCH   7  23
TORSDOF 4
ENDMDL
MODEL 4
REMARK VINA RESULT:      -3.8      1.472      2.181
REMARK  4 active torsions:
REMARK  status: ('A' for Active; 'I' for Inactive)
REMARK    1  A    between atoms: S_5  and  C_2 
REMARK    2  A    between atoms: C_14  and  S_5 
REMARK    3  A    between atoms: N_11  and  C_8 
REMARK    4  A    between atoms: C_15  and  N_11 
ROOT
ATOM      1  C   UNL d   1     -46.950  13.442  22.866  0.00  0.00     0.197 A 
ATOM      2  C   UNL d   1     -46.207  13.111  22.737  0.00  0.00     0.227 A 
ATOM      3  N   UNL d   1     -46.945  14.213  22.568  0.00  0.00    -0.192 N 
ATOM      4  N   UNL d   1     -47.637  13.140  23.218  0.00  0.00    -0.206 NA
ATOM      5  N   UNL d   1     -45.735  13.681  22.355  0.00  0.00    -0.115 NA
ATOM      6  N   UNL d   1     -46.197  14.363  22.252  0.00  0.00    -0.058 NA
ATOM      7  C   UNL d   1     -48.322  13.608  23.274  0.00  0.00     0.166 A 
ATOM      8  C   UNL d   1     -48.307  14.378  22.974  0.00  0.00     0.054 A 
ATOM      9  C   UNL d   1     -47.627  14.686  22.622  0.00  0.00     0.089 A 
ATOM     10  C   UNL d   1     -48.987  14.852  23.026  0.00  0.00     0.005 A 
ATOM     11  C   UNL d   1     -47.617  15.455  22.323  0.00  0.00     0.019 A 
ATOM     12  C   UNL d   1     -48.979  15.620  22.729  0.00  0.00     0.000 A 
ATOM     13  C   UNL d   1     -48.292  15.922  22.376  0.00  0.00     0.002 A 
ENDROOT
BRANCH   2  14
ATOM     14  S   UNL d   1     -45.964  12.351  22.944  0.00  0.00     0.231 S 
ATOM     15  O   UNL d   1     -46.328  12.022  22.284  0.00  0.00    -0.215 OA
ATOM     16  O   UNL d   1     -45.598  12.686  23.607  0.00  0.00    -0.215 OA
BRANCH  14  17
ATOM     17  C   UNL d   1     -45.696  11.617  23.195  0.00  0.00     0.090 A 
ATOM     18  C   UNL d   1     -44.891  11.451  23.193  0.00  0.00     0.011 A 
ATOM     19  C   UNL d   1     -44.615  10.720  23.442  0.00  0.00     0.001 A 
ATOM     20  C   UNL d   1     -45.156  10.145  23.697  0.00  0.00     0.000 A 
ATOM     21  C   UNL d   1     -45.966  10.314  23.698  0.00  0.00     0.001 A 
ATOM     22  C   UNL d   1     -46.234  11.045  23.448  0.00  0.00     0.011 A 
ENDBRANCH  14  17
ENDBRANCH   2  14
BRANCH   7  23
ATOM     23  N   UNL d   1     -49.006  13.307  23.625  0.00  0.00    -0.227 NA
BRANCH  23  24
ATOM     24  C   UNL d   1     -49.400  12.671  23.283  0.00  0.00     0.083 A 
ATOM     25  C   UNL d   1     -49.838  12.778  22.592  0.00  0.00     0.019 A 
ATOM     26  C   UNL d   1     -50.232  12.141  22.250  0.00  0.00     0.002 A 
ATOM     27  C   UNL d   1     -50.670  12.248  21.559  0.00  0.00     0.000 C 
ATOM     28  C   UNL d   1     -50.191  11.389  22.599  0.00  0.00     0.000 A 
ATOM     29  C   UNL d   1     -49.747  11.289  23.297  0.00  0.00     0.002 A 
ATOM     30  C   UNL d   1     -49.357  11.926  23.632  0.00  0.00     0.019 A 
ENDBRANCH  23  24
ENDBRANCH   7  23
TORSDOF 4
ENDMDL
MODEL 5
REMARK VINA RESULT:      -3.8      8.714      9.906
REMARK  4 active torsions:
REMARK  status: ('A' for Active; 'I' for Inactive)
REMARK    1  A    between atoms: S_5  and  C_2 
REMARK    2  A    between atoms: C_14  and  S_5 
REMARK    3  A    between atoms: N_11  and  C_8 
REMARK    4  A    between atoms: C_15  and  N_11 
ROOT
ATOM      1  C   UNL d   1     -40.106  15.222  19.421  0.00  0.00     0.197 A 
ATOM      2  C   UNL d   1     -40.302  15.266  20.220  0.00  0.00     0.227 A 
ATOM      3  N   UNL d   1     -40.730  15.543  18.984  0.00  0.00    -0.192 N 
ATOM      4  N   UNL d   1     -39.436  14.929  19.030  0.00  0.00    -0.206 NA
ATOM      5  N   UNL d   1     -41.055  15.617  20.281  0.00  0.00    -0.115 NA
ATOM      6  N   UNL d   1     -41.317  15.787  19.512  0.00  0.00    -0.058 NA
ATOM      7  C   UNL d   1     -39.387  14.956  18.201  0.00  0.00     0.166 A 
ATOM      8  C   UNL d   1     -40.017  15.279  17.772  0.00  0.00     0.054 A 
ATOM      9  C   UNL d   1     -40.687  15.572  18.154  0.00  0.00     0.089 A 
ATOM     10  C   UNL d   1     -39.976  15.310  16.943  0.00  0.00     0.005 A 
ATOM     11  C   UNL d   1     -41.313  15.893  17.722  0.00  0.00     0.019 A 
ATOM     12  C   UNL d   1     -40.599  15.630  16.511  0.00  0.00     0.000 A 
ATOM     13  C   UNL d   1     -41.269  15.922  16.901  0.00  0.00     0.002 A 
ENDROOT
BRANCH   2  14
ATOM     14  S   UNL d   1     -39.841  15.011  20.854  0.00  0.00     0.231 S 
ATOM     15  O   UNL d   1     -40.195  14.268  20.851  0.00  0.00    -0.215 OA
ATOM     16  O   UNL d   1     -39.488  15.759  20.856  0.00  0.00    -0.215 OA
BRANCH  14  17
ATOM     17  C   UNL d   1     -39.359  14.806  21.487  0.00  0.00     0.090 A 
ATOM     18  C   UNL d   1     -39.473  14.090  21.874  0.00  0.00     0.011 A 
ATOM     19  C   UNL d   1     -38.997  13.877  22.506  0.00  0.00     0.001 A 
ATOM     20  C   UNL d   1     -38.395  14.392  22.755  0.00  0.00     0.000 A 
ATOM     21  C   UNL d   1     -38.283  15.112  22.363  0.00  0.00     0.001 A 
ATOM     22  C   UNL d   1     -38.762  15.318  21.734  0.00  0.00     0.011 A 
ENDBRANCH  14  17
ENDBRANCH   2  14
BRANCH   7  23
ATOM     23  N   UNL d   1     -38.720  14.665  17.812  0.00  0.00    -0.227 NA
BRANCH  23  24
ATOM     24  C   UNL d   1     -38.584  13.854  17.776  0.00  0.00     0.083 A 
ATOM     25  C   UNL d   1     -38.330  13.447  18.446  0.00  0.00     0.019 A 
ATOM     26  C   UNL d   1     -38.194  12.635  18.408  0.00  0.00     0.002 A 
ATOM     27  C   UNL d   1     -37.939  12.228  19.079  0.00  0.00     0.000 C 
ATOM     28  C   UNL d   1     -38.313  12.225  17.697  0.00  0.00     0.000 A 
ATOM     29  C   UNL d   1     -38.570  12.643  17.024  0.00  0.00     0.002 A 
ATOM     30  C   UNL d   1     -38.703  13.450  17.067  0.00  0.00     0.019 A 
ENDBRANCH  23  24
ENDBRANCH   7  23
TORSDOF 4
ENDMDL
