MODEL 1
REMARK VINA RESULT:     103.8      0.000      0.000
REMARK  5 active torsions:
REMARK  status: ('A' for Active; 'I' for Inactive)
REMARK    1  A    between atoms: C_14  and  N_4 
REMARK    2  A    between atoms: C_15  and  C_9 
REMARK    3  A    between atoms: O_20  and  C_12 
REMARK    4  A    between atoms: O_21  and  C_13 
REMARK    5  A    between atoms: C_18  and  C_14 
ROOT
ATOM      1  C   UNL d   1     -58.655 -98.797 -42.999  0.00  0.00     0.056 A 
ATOM      2  C   UNL d   1     -59.129 -98.787 -43.680  0.00  0.00     0.107 A 
ATOM      3  C   UNL d   1     -58.782 -98.782 -44.426  0.00  0.00     0.038 A 
ATOM      4  N   UNL d   1     -57.493 -98.798 -43.826  0.00  0.00    -0.304 N 
ATOM      5  N   UNL d   1     -59.918 -98.783 -43.434  0.00  0.00    -0.148 NA
ATOM      6  C   UNL d   1     -57.832 -98.803 -43.072  0.00  0.00     0.083 A 
ATOM      7  N   UNL d   1     -59.933 -98.791 -42.609  0.00  0.00    -0.148 NA
ATOM      8  C   UNL d   1     -57.959 -98.787 -44.499  0.00  0.00     0.068 A 
ATOM      9  C   UNL d   1     -59.156 -98.800 -42.335  0.00  0.00     0.106 A 
ATOM     10  C   UNL d   1     -57.620 -98.782 -45.245  0.00  0.00     0.044 A 
ATOM     11  C   UNL d   1     -59.255 -98.771 -45.100  0.00  0.00     0.029 A 
ATOM     12  C   UNL d   1     -58.085 -98.772 -45.919  0.00  0.00     0.118 A 
ATOM     13  C   UNL d   1     -58.908 -98.766 -45.845  0.00  0.00     0.116 A 
ENDROOT
BRANCH   4  14
ATOM     14  C   UNL d   1     -56.664 -98.803 -43.900  0.00  0.00     0.080 C 
BRANCH  14  15
ATOM     15  C   UNL d   1     -56.255 -99.518 -43.896  0.00  0.00     0.018 A 
ATOM     16  C   UNL d   1     -56.610-100.195 -44.199  0.00  0.00     0.002 A 
ATOM     17  C   UNL d   1     -56.200-100.918 -44.197  0.00  0.00     0.000 A 
ATOM     18  C   UNL d   1     -55.431-100.954 -43.889  0.00  0.00     0.000 A 
ATOM     19  C   UNL d   1     -55.076-100.268 -43.584  0.00  0.00     0.000 A 
ATOM     20  C   UNL d   1     -55.014-101.673 -43.883  0.00  0.00     0.000 C 
ATOM     21  C   UNL d   1     -55.485 -99.554 -43.588  0.00  0.00     0.002 A 
ENDBRANCH  14  15
ENDBRANCH   4  14
BRANCH   9  22
ATOM     22  C   UNL d   1     -59.008 -98.810 -41.524  0.00  0.00     0.020 A 
ATOM     23  C   UNL d   1     -59.637 -98.873 -40.995  0.00  0.00     0.004 A 
ATOM     24  C   UNL d   1     -59.498 -98.884 -40.178  0.00  0.00     0.030 A 
ATOM     25  C   UNL d   1     -58.712 -98.829 -39.895  0.00  0.00     0.140 A 
ATOM     26  C   UNL d   1     -58.085 -98.765 -40.432  0.00  0.00     0.030 A 
ATOM     27  F   UNL d   1     -58.551 -98.837 -39.082  0.00  0.00    -0.204 F 
ATOM     28  C   UNL d   1     -58.232 -98.755 -41.242  0.00  0.00     0.004 A 
ENDBRANCH   9  22
BRANCH  12  29
ATOM     29  O   UNL d   1     -57.735 -98.767 -46.678  0.00  0.00    -0.326 OA
ATOM     30  C   UNL d   1     -56.944 -98.989 -46.773  0.00  0.00     0.181 C 
ENDBRANCH  12  29
BRANCH  13  31
ATOM     31  O   UNL d   1     -59.383 -98.755 -46.531  0.00  0.00    -0.326 OA
ATOM     32  C   UNL d   1     -59.811 -99.427 -46.748  0.00  0.00     0.181 C 
ENDBRANCH  13  31
TORSDOF 5
ENDMDL
