MODEL 1
REMARK VINA RESULT:      -4.9      0.000      0.000
REMARK  3 active torsions:
REMARK  status: ('A' for Active; 'I' for Inactive)
REMARK    1  A    between atoms: S_8  and  C_1 
REMARK       I    between atoms: N_4  and  C_5 
REMARK    2  A    between atoms: C_5  and  C_9 
REMARK    3  A    between atoms: C_9  and  S_8 
ROOT
ATOM      1  S   UNL d   1      58.169  -0.575  30.058  0.00  0.00    -0.056 SA
ENDROOT
BRANCH   1   2
ATOM      2  C   UNL d   1      58.564  -1.187  29.692  0.00  0.00     0.141 A 
ATOM      3  N   UNL d   1      58.258  -1.927  29.512  0.00  0.00    -0.232 NA
ATOM      4  C   UNL d   1      58.843  -2.370  29.147  0.00  0.00     0.088 A 
ATOM      5  C   UNL d   1      58.846  -3.138  28.852  0.00  0.00     0.020 A 
ATOM      6  C   UNL d   1      59.532  -1.896  29.097  0.00  0.00     0.049 A 
ATOM      7  C   UNL d   1      59.550  -3.436  28.503  0.00  0.00     0.002 A 
ATOM      8  C   UNL d   1      60.210  -2.982  28.455  0.00  0.00     0.001 A 
ATOM      9  C   UNL d   1      60.212  -2.198  28.754  0.00  0.00     0.008 A 
ATOM     10  S   UNL d   1      59.349  -1.176  29.433  0.00  0.00    -0.060 SA
ENDBRANCH   1   2
BRANCH   1  11
ATOM     11  C   UNL d   1      57.690  -0.721  30.711  0.00  0.00     0.098 C 
BRANCH  11  12
ATOM     12  C   UNL d   1      57.337  -0.094  31.142  0.00  0.00     0.271 C 
ATOM     13  N   UNL d   1      56.821  -0.251  31.788  0.00  0.00    -0.272 N 
ATOM     14  C   UNL d   1      56.483   0.370  32.200  0.00  0.00     0.083 A 
ATOM     15  C   UNL d   1      56.666  -1.024  31.993  0.00  0.00     0.083 A 
ATOM     16  C   UNL d   1      55.986   0.225  32.821  0.00  0.00     0.019 A 
ATOM     17  C   UNL d   1      55.823  -0.575  33.037  0.00  0.00     0.003 A 
ATOM     18  C   UNL d   1      56.151  -1.178  32.637  0.00  0.00     0.019 A 
ATOM     19  O   UNL d   1      57.512   0.681  30.910  0.00  0.00    -0.266 OA
ENDBRANCH  11  12
ENDBRANCH   1  11
TORSDOF 3
ENDMDL
MODEL 2
REMARK VINA RESULT:      -4.2      1.875      5.121
REMARK  3 active torsions:
REMARK  status: ('A' for Active; 'I' for Inactive)
REMARK    1  A    between atoms: S_8  and  C_1 
REMARK       I    between atoms: N_4  and  C_5 
REMARK    2  A    between atoms: C_5  and  C_9 
REMARK    3  A    between atoms: C_9  and  S_8 
ROOT
ATOM      1  S   UNL d   1      56.620  -0.832  31.921  0.00  0.00    -0.056 SA
ENDROOT
BRANCH   1   2
ATOM      2  C   UNL d   1      56.357  -0.482  32.609  0.00  0.00     0.141 A 
ATOM      3  N   UNL d   1      56.818  -0.264  33.253  0.00  0.00    -0.232 NA
ATOM      4  C   UNL d   1      56.332   0.067  33.823  0.00  0.00     0.088 A 
ATOM      5  C   UNL d   1      56.492   0.378  34.568  0.00  0.00     0.020 A 
ATOM      6  C   UNL d   1      55.547   0.056  33.530  0.00  0.00     0.049 A 
ATOM      7  C   UNL d   1      55.856   0.681  35.027  0.00  0.00     0.002 A 
ATOM      8  C   UNL d   1      55.104   0.670  34.746  0.00  0.00     0.001 A 
ATOM      9  C   UNL d   1      54.936   0.355  33.987  0.00  0.00     0.008 A 
ATOM     10  S   UNL d   1      55.575  -0.282  32.789  0.00  0.00    -0.060 SA
ENDBRANCH   1   2
BRANCH   1  11
ATOM     11  C   UNL d   1      57.237  -0.496  31.495  0.00  0.00     0.098 C 
BRANCH  11  12
ATOM     12  C   UNL d   1      57.580  -0.892  30.839  0.00  0.00     0.271 C 
ATOM     13  N   UNL d   1      58.115  -0.493  30.325  0.00  0.00    -0.272 N 
ATOM     14  C   UNL d   1      58.441  -0.891  29.689  0.00  0.00     0.083 A 
ATOM     15  C   UNL d   1      58.298   0.286  30.471  0.00  0.00     0.083 A 
ATOM     16  C   UNL d   1      58.955  -0.514  29.192  0.00  0.00     0.019 A 
ATOM     17  C   UNL d   1      59.148   0.295  29.340  0.00  0.00     0.003 A 
ATOM     18  C   UNL d   1      58.831   0.681  29.958  0.00  0.00     0.019 A 
ATOM     19  O   UNL d   1      57.375  -1.684  30.715  0.00  0.00    -0.266 OA
ENDBRANCH  11  12
ENDBRANCH   1  11
TORSDOF 3
ENDMDL
MODEL 3
REMARK VINA RESULT:      -3.7      1.934      2.308
REMARK  3 active torsions:
REMARK  status: ('A' for Active; 'I' for Inactive)
REMARK    1  A    between atoms: S_8  and  C_1 
REMARK       I    between atoms: N_4  and  C_5 
REMARK    2  A    between atoms: C_5  and  C_9 
REMARK    3  A    between atoms: C_9  and  S_8 
ROOT
ATOM      1  S   UNL d   1      57.393  -0.270  30.728  0.00  0.00    -0.056 SA
ENDROOT
BRANCH   1   2
ATOM      2  C   UNL d   1      58.094  -0.075  30.359  0.00  0.00     0.141 A 
ATOM      3  N   UNL d   1      58.767   0.230  30.717  0.00  0.00    -0.232 NA
ATOM      4  C   UNL d   1      59.340   0.345  30.143  0.00  0.00     0.088 A 
ATOM      5  C   UNL d   1      60.109   0.633  30.186  0.00  0.00     0.020 A 
ATOM      6  C   UNL d   1      59.019   0.105  29.407  0.00  0.00     0.049 A 
ATOM      7  C   UNL d   1      60.564   0.682  29.480  0.00  0.00     0.002 A 
ATOM      8  C   UNL d   1      60.256   0.452  28.775  0.00  0.00     0.001 A 
ATOM      9  C   UNL d   1      59.472   0.158  28.727  0.00  0.00     0.008 A 
ATOM     10  S   UNL d   1      58.258  -0.149  29.552  0.00  0.00    -0.060 SA
ENDBRANCH   1   2
BRANCH   1  11
ATOM     11  C   UNL d   1      57.333  -0.238  31.547  0.00  0.00     0.098 C 
BRANCH  11  12
ATOM     12  C   UNL d   1      56.779  -0.711  31.963  0.00  0.00     0.271 C 
ATOM     13  N   UNL d   1      56.348  -0.399  32.615  0.00  0.00    -0.272 N 
ATOM     14  C   UNL d   1      55.810  -0.871  33.011  0.00  0.00     0.083 A 
ATOM     15  C   UNL d   1      56.475   0.373  32.842  0.00  0.00     0.083 A 
ATOM     16  C   UNL d   1      55.394  -0.577  33.639  0.00  0.00     0.019 A 
ATOM     17  C   UNL d   1      55.522   0.223  33.877  0.00  0.00     0.003 A 
ATOM     18  C   UNL d   1      56.045   0.682  33.492  0.00  0.00     0.019 A 
ATOM     19  O   UNL d   1      56.671  -1.491  31.710  0.00  0.00    -0.266 OA
ENDBRANCH  11  12
ENDBRANCH   1  11
TORSDOF 3
ENDMDL
MODEL 4
REMARK VINA RESULT:      -3.5      2.381      2.756
REMARK  3 active torsions:
REMARK  status: ('A' for Active; 'I' for Inactive)
REMARK    1  A    between atoms: S_8  and  C_1 
REMARK       I    between atoms: N_4  and  C_5 
REMARK    2  A    between atoms: C_5  and  C_9 
REMARK    3  A    between atoms: C_9  and  S_8 
ROOT
ATOM      1  S   UNL d   1      58.061   0.682  32.257  0.00  0.00    -0.056 SA
ENDROOT
BRANCH   1   2
ATOM      2  C   UNL d   1      58.227   0.632  31.460  0.00  0.00     0.141 A 
ATOM      3  N   UNL d   1      57.683   0.645  30.845  0.00  0.00    -0.232 NA
ATOM      4  C   UNL d   1      58.088   0.581  30.136  0.00  0.00     0.088 A 
ATOM      5  C   UNL d   1      57.828   0.564  29.356  0.00  0.00     0.020 A 
ATOM      6  C   UNL d   1      58.906   0.525  30.310  0.00  0.00     0.049 A 
ATOM      7  C   UNL d   1      58.396   0.491  28.740  0.00  0.00     0.002 A 
ATOM      8  C   UNL d   1      59.180   0.439  28.907  0.00  0.00     0.001 A 
ATOM      9  C   UNL d   1      59.449   0.455  29.701  0.00  0.00     0.008 A 
ATOM     10  S   UNL d   1      58.978   0.558  31.121  0.00  0.00    -0.060 SA
ENDBRANCH   1   2
BRANCH   1  11
ATOM     11  C   UNL d   1      57.293   0.567  32.528  0.00  0.00     0.098 C 
BRANCH  11  12
ATOM     12  C   UNL d   1      57.108   0.611  33.345  0.00  0.00     0.271 C 
ATOM     13  N   UNL d   1      56.309   0.584  33.610  0.00  0.00    -0.272 N 
ATOM     14  C   UNL d   1      56.143   0.628  34.409  0.00  0.00     0.083 A 
ATOM     15  C   UNL d   1      55.712   0.514  33.061  0.00  0.00     0.083 A 
ATOM     16  C   UNL d   1      55.378   0.603  34.669  0.00  0.00     0.019 A 
ATOM     17  C   UNL d   1      54.756   0.530  34.103  0.00  0.00     0.003 A 
ATOM     18  C   UNL d   1      54.917   0.487  33.326  0.00  0.00     0.019 A 
ATOM     19  O   UNL d   1      57.736   0.682  33.880  0.00  0.00    -0.266 OA
ENDBRANCH  11  12
ENDBRANCH   1  11
TORSDOF 3
ENDMDL
MODEL 5
REMARK VINA RESULT:      -3.0      1.370      4.630
REMARK  3 active torsions:
REMARK  status: ('A' for Active; 'I' for Inactive)
REMARK    1  A    between atoms: S_8  and  C_1 
REMARK       I    between atoms: N_4  and  C_5 
REMARK    2  A    between atoms: C_5  and  C_9 
REMARK    3  A    between atoms: C_9  and  S_8 
ROOT
ATOM      1  S   UNL d   1      58.231  -1.405  29.446  0.00  0.00    -0.056 SA
ENDROOT
BRANCH   1   2
ATOM      2  C   UNL d   1      57.938  -1.004  30.092  0.00  0.00     0.141 A 
ATOM      3  N   UNL d   1      57.402  -1.292  30.644  0.00  0.00    -0.232 NA
ATOM      4  C   UNL d   1      57.259  -0.706  31.200  0.00  0.00     0.088 A 
ATOM      5  C   UNL d   1      56.777  -0.689  31.866  0.00  0.00     0.020 A 
ATOM      6  C   UNL d   1      57.715  -0.035  30.991  0.00  0.00     0.049 A 
ATOM      7  C   UNL d   1      56.752   0.011  32.331  0.00  0.00     0.002 A 
ATOM      8  C   UNL d   1      57.189   0.654  32.130  0.00  0.00     0.001 A 
ATOM      9  C   UNL d   1      57.682   0.641  31.452  0.00  0.00     0.008 A 
ATOM     10  S   UNL d   1      58.125  -0.229  30.313  0.00  0.00    -0.060 SA
ENDBRANCH   1   2
BRANCH   1  11
ATOM     11  C   UNL d   1      58.908  -1.867  29.516  0.00  0.00     0.098 C 
BRANCH  11  12
ATOM     12  C   UNL d   1      59.043  -2.522  29.009  0.00  0.00     0.271 C 
ATOM     13  N   UNL d   1      59.753  -2.971  29.065  0.00  0.00    -0.272 N 
ATOM     14  C   UNL d   1      59.872  -3.607  28.564  0.00  0.00     0.083 A 
ATOM     15  C   UNL d   1      60.311  -2.764  29.619  0.00  0.00     0.083 A 
ATOM     16  C   UNL d   1      60.552  -4.043  28.612  0.00  0.00     0.019 A 
ATOM     17  C   UNL d   1      61.133  -3.831  29.186  0.00  0.00     0.003 A 
ATOM     18  C   UNL d   1      61.017  -3.213  29.673  0.00  0.00     0.019 A 
ATOM     19  O   UNL d   1      58.458  -2.709  28.455  0.00  0.00    -0.266 OA
ENDBRANCH  11  12
ENDBRANCH   1  11
TORSDOF 3
ENDMDL
MODEL 6
REMARK VINA RESULT:      -2.7      8.624      9.391
REMARK  3 active torsions:
REMARK  status: ('A' for Active; 'I' for Inactive)
REMARK    1  A    between atoms: S_8  and  C_1 
REMARK       I    between atoms: N_4  and  C_5 
REMARK    2  A    between atoms: C_5  and  C_9 
REMARK    3  A    between atoms: C_9  and  S_8 
ROOT
ATOM      1  S   UNL d   1      58.370  -9.664  32.966  0.00  0.00    -0.056 SA
ENDROOT
BRANCH   1   2
ATOM      2  C   UNL d   1      58.949  -9.426  33.487  0.00  0.00     0.141 A 
ATOM      3  N   UNL d   1      59.740  -9.649  33.474  0.00  0.00    -0.232 NA
ATOM      4  C   UNL d   1      60.126  -9.282  34.097  0.00  0.00     0.088 A 
ATOM      5  C   UNL d   1      60.909  -9.305  34.347  0.00  0.00     0.020 A 
ATOM      6  C   UNL d   1      59.564  -8.817  34.511  0.00  0.00     0.049 A 
ATOM      7  C   UNL d   1      61.133  -8.855  35.021  0.00  0.00     0.002 A 
ATOM      8  C   UNL d   1      60.595  -8.410  35.417  0.00  0.00     0.001 A 
ATOM      9  C   UNL d   1      59.795  -8.384  35.166  0.00  0.00     0.008 A 
ATOM     10  S   UNL d   1      58.850  -8.914  34.129  0.00  0.00    -0.060 SA
ENDBRANCH   1   2
BRANCH   1  11
ATOM     11  C   UNL d   1      58.539  -9.744  32.165  0.00  0.00     0.098 C 
BRANCH  11  12
ATOM     12  C   UNL d   1      57.928  -9.770  31.590  0.00  0.00     0.271 C 
ATOM     13  N   UNL d   1      58.109  -9.777  30.768  0.00  0.00    -0.272 N 
ATOM     14  C   UNL d   1      57.503  -9.802  30.219  0.00  0.00     0.083 A 
ATOM     15  C   UNL d   1      58.888  -9.757  30.533  0.00  0.00     0.083 A 
ATOM     16  C   UNL d   1      57.670  -9.809  29.428  0.00  0.00     0.019 A 
ATOM     17  C   UNL d   1      58.477  -9.789  29.179  0.00  0.00     0.003 A 
ATOM     18  C   UNL d   1      59.065  -9.764  29.713  0.00  0.00     0.019 A 
ATOM     19  O   UNL d   1      57.146  -9.789  31.859  0.00  0.00    -0.266 OA
ENDBRANCH  11  12
ENDBRANCH   1  11
TORSDOF 3
ENDMDL
