MODEL 1
REMARK VINA RESULT:      -6.7      0.000      0.000
REMARK  4 active torsions:
REMARK  status: ('A' for Active; 'I' for Inactive)
REMARK    1  A    between atoms: C_2  and  S_1 
REMARK    2  A    between atoms: N_3  and  S_1 
REMARK    3  A    between atoms: C_12  and  N_3 
REMARK    4  A    between atoms: N_4  and  C_8 
ROOT
ATOM      1  C   UNL d   1     -46.882  12.970  22.828  0.00  0.00     0.064 A 
ATOM      2  C   UNL d   1     -47.835  14.257  22.437  0.00  0.00     0.094 A 
ATOM      3  C   UNL d   1     -47.403  12.914  22.191  0.00  0.00     0.019 A 
ATOM      4  C   UNL d   1     -46.837  13.667  23.269  0.00  0.00     0.019 A 
ATOM      5  C   UNL d   1     -47.882  13.566  21.997  0.00  0.00     0.021 A 
ATOM      6  C   UNL d   1     -47.311  14.305  23.072  0.00  0.00     0.021 A 
ENDROOT
BRANCH   2   7
ATOM      7  N   UNL d   1     -48.307  14.889  22.239  0.00  0.00    -0.158 NA
BRANCH   7   8
ATOM      8  S   UNL d   1     -49.055  14.969  22.578  0.00  0.00     0.291 S 
ATOM      9  O   UNL d   1     -48.711  15.239  23.274  0.00  0.00    -0.198 OA
ATOM     10  O   UNL d   1     -49.398  14.699  21.885  0.00  0.00    -0.198 OA
BRANCH   8  11
ATOM     11  C   UNL d   1     -49.795  15.047  22.913  0.00  0.00     0.135 A 
ATOM     12  S   UNL d   1     -50.003  15.606  23.469  0.00  0.00    -0.073 SA
ATOM     13  C   UNL d   1     -50.810  15.486  23.659  0.00  0.00     0.036 A 
ATOM     14  C   UNL d   1     -51.064  14.871  23.221  0.00  0.00     0.008 A 
ATOM     15  C   UNL d   1     -50.474  14.582  22.758  0.00  0.00     0.020 A 
ENDBRANCH   8  11
ENDBRANCH   7   8
ENDBRANCH   2   7
BRANCH   1  16
ATOM     16  N   UNL d   1     -46.406  12.327  23.024  0.00  0.00    -0.304 N 
ATOM     17  C   UNL d   1     -45.633  12.290  22.740  0.00  0.00     0.080 A 
ATOM     18  C   UNL d   1     -45.155  11.638  22.940  0.00  0.00     0.019 A 
ATOM     19  C   UNL d   1     -45.455  11.031  23.421  0.00  0.00     0.003 A 
ATOM     20  C   UNL d   1     -46.228  11.082  23.698  0.00  0.00     0.019 A 
ATOM     21  C   UNL d   1     -46.708  11.734  23.498  0.00  0.00     0.080 A 
ENDBRANCH   1  16
TORSDOF 4
ENDMDL
MODEL 2
REMARK VINA RESULT:      -6.3      2.181      4.514
REMARK  4 active torsions:
REMARK  status: ('A' for Active; 'I' for Inactive)
REMARK    1  A    between atoms: C_2  and  S_1 
REMARK    2  A    between atoms: N_3  and  S_1 
REMARK    3  A    between atoms: C_12  and  N_3 
REMARK    4  A    between atoms: N_4  and  C_8 
ROOT
ATOM      1  C   UNL d   1     -48.731  13.315  22.698  0.00  0.00     0.064 A 
ATOM      2  C   UNL d   1     -47.178  13.308  23.251  0.00  0.00     0.094 A 
ATOM      3  C   UNL d   1     -48.297  14.017  22.705  0.00  0.00     0.019 A 
ATOM      4  C   UNL d   1     -48.391  12.612  22.966  0.00  0.00     0.019 A 
ATOM      5  C   UNL d   1     -47.514  14.009  22.985  0.00  0.00     0.021 A 
ATOM      6  C   UNL d   1     -47.620  12.611  23.240  0.00  0.00     0.021 A 
ENDROOT
BRANCH   2   7
ATOM      7  N   UNL d   1     -46.411  13.311  23.523  0.00  0.00    -0.158 NA
BRANCH   7   8
ATOM      8  S   UNL d   1     -45.791  13.129  23.011  0.00  0.00     0.291 S 
ATOM      9  O   UNL d   1     -45.797  12.352  23.279  0.00  0.00    -0.198 OA
ATOM     10  O   UNL d   1     -45.784  13.903  22.744  0.00  0.00    -0.198 OA
BRANCH   8  11
ATOM     11  C   UNL d   1     -45.177  12.949  22.505  0.00  0.00     0.135 A 
ATOM     12  S   UNL d   1     -44.726  12.270  22.534  0.00  0.00    -0.073 SA
ATOM     13  C   UNL d   1     -44.162  12.313  21.916  0.00  0.00     0.036 A 
ATOM     14  C   UNL d   1     -44.284  13.004  21.537  0.00  0.00     0.008 A 
ATOM     15  C   UNL d   1     -44.891  13.413  21.868  0.00  0.00     0.020 A 
ENDBRANCH   8  11
ENDBRANCH   7   8
ENDBRANCH   2   7
BRANCH   1  16
ATOM     16  N   UNL d   1     -49.507  13.319  22.422  0.00  0.00    -0.304 N 
ATOM     17  C   UNL d   1     -50.129  13.442  22.950  0.00  0.00     0.080 A 
ATOM     18  C   UNL d   1     -50.912  13.445  22.667  0.00  0.00     0.019 A 
ATOM     19  C   UNL d   1     -51.064  13.324  21.860  0.00  0.00     0.003 A 
ATOM     20  C   UNL d   1     -50.436  13.202  21.344  0.00  0.00     0.019 A 
ATOM     21  C   UNL d   1     -49.651  13.199  21.626  0.00  0.00     0.080 A 
ENDBRANCH   1  16
TORSDOF 4
ENDMDL
MODEL 3
REMARK VINA RESULT:      -5.7      8.280      9.290
REMARK  4 active torsions:
REMARK  status: ('A' for Active; 'I' for Inactive)
REMARK    1  A    between atoms: C_2  and  S_1 
REMARK    2  A    between atoms: N_3  and  S_1 
REMARK    3  A    between atoms: C_12  and  N_3 
REMARK    4  A    between atoms: N_4  and  C_8 
ROOT
ATOM      1  C   UNL d   1     -39.637  14.680  21.144  0.00  0.00     0.064 A 
ATOM      2  C   UNL d   1     -40.334  14.235  19.718  0.00  0.00     0.094 A 
ATOM      3  C   UNL d   1     -40.428  14.865  21.000  0.00  0.00     0.019 A 
ATOM      4  C   UNL d   1     -39.195  14.273  20.577  0.00  0.00     0.019 A 
ATOM      5  C   UNL d   1     -40.776  14.639  20.279  0.00  0.00     0.021 A 
ATOM      6  C   UNL d   1     -39.543  14.053  19.869  0.00  0.00     0.021 A 
ENDROOT
BRANCH   2   7
ATOM      7  N   UNL d   1     -40.683  14.018  19.015  0.00  0.00    -0.158 NA
BRANCH   7   8
ATOM      8  S   UNL d   1     -40.486  14.411  18.317  0.00  0.00     0.291 S 
ATOM      9  O   UNL d   1     -40.951  15.049  18.545  0.00  0.00    -0.198 OA
ATOM     10  O   UNL d   1     -40.023  13.775  18.090  0.00  0.00    -0.198 OA
BRANCH   8  11
ATOM     11  C   UNL d   1     -40.292  14.800  17.626  0.00  0.00     0.135 A 
ATOM     12  S   UNL d   1     -40.721  15.405  17.290  0.00  0.00    -0.073 SA
ATOM     13  C   UNL d   1     -40.325  15.639  16.591  0.00  0.00     0.036 A 
ATOM     14  C   UNL d   1     -39.678  15.179  16.524  0.00  0.00     0.008 A 
ATOM     15  C   UNL d   1     -39.628  14.659  17.135  0.00  0.00     0.020 A 
ENDBRANCH   8  11
ENDBRANCH   7   8
ENDBRANCH   2   7
BRANCH   1  16
ATOM     16  N   UNL d   1     -39.289  14.902  21.857  0.00  0.00    -0.304 N 
ATOM     17  C   UNL d   1     -39.172  15.702  22.022  0.00  0.00     0.080 A 
ATOM     18  C   UNL d   1     -38.819  15.922  22.744  0.00  0.00     0.019 A 
ATOM     19  C   UNL d   1     -38.589  15.341  23.291  0.00  0.00     0.003 A 
ATOM     20  C   UNL d   1     -38.712  14.548  23.113  0.00  0.00     0.019 A 
ATOM     21  C   UNL d   1     -39.065  14.325  22.391  0.00  0.00     0.080 A 
ENDBRANCH   1  16
TORSDOF 4
ENDMDL
MODEL 4
REMARK VINA RESULT:      -5.3      8.400      9.652
REMARK  4 active torsions:
REMARK  status: ('A' for Active; 'I' for Inactive)
REMARK    1  A    between atoms: C_2  and  S_1 
REMARK    2  A    between atoms: N_3  and  S_1 
REMARK    3  A    between atoms: C_12  and  N_3 
REMARK    4  A    between atoms: N_4  and  C_8 
ROOT
ATOM      1  C   UNL d   1     -40.199  15.153  19.031  0.00  0.00     0.064 A 
ATOM      2  C   UNL d   1     -40.114  14.932  20.662  0.00  0.00     0.094 A 
ATOM      3  C   UNL d   1     -40.605  14.526  19.380  0.00  0.00     0.019 A 
ATOM      4  C   UNL d   1     -39.751  15.669  19.495  0.00  0.00     0.019 A 
ATOM      5  C   UNL d   1     -40.560  14.418  20.204  0.00  0.00     0.021 A 
ATOM      6  C   UNL d   1     -39.711  15.557  20.305  0.00  0.00     0.021 A 
ENDROOT
BRANCH   2   7
ATOM      7  N   UNL d   1     -40.076  14.819  21.467  0.00  0.00    -0.158 NA
BRANCH   7   8
ATOM      8  S   UNL d   1     -39.486  14.340  21.789  0.00  0.00     0.291 S 
ATOM      9  O   UNL d   1     -38.984  14.989  21.834  0.00  0.00    -0.198 OA
ATOM     10  O   UNL d   1     -39.987  13.693  21.745  0.00  0.00    -0.198 OA
BRANCH   8  11
ATOM     11  C   UNL d   1     -38.903  13.867  22.108  0.00  0.00     0.135 A 
ATOM     12  S   UNL d   1     -38.675  13.863  22.891  0.00  0.00    -0.073 SA
ATOM     13  C   UNL d   1     -38.063  13.297  22.974  0.00  0.00     0.036 A 
ATOM     14  C   UNL d   1     -37.940  12.979  22.254  0.00  0.00     0.008 A 
ATOM     15  C   UNL d   1     -38.432  13.302  21.707  0.00  0.00     0.020 A 
ENDBRANCH   8  11
ENDBRANCH   7   8
ENDBRANCH   2   7
BRANCH   1  16
ATOM     16  N   UNL d   1     -40.241  15.264  18.216  0.00  0.00    -0.304 N 
ATOM     17  C   UNL d   1     -40.804  15.779  17.902  0.00  0.00     0.080 A 
ATOM     18  C   UNL d   1     -40.843  15.887  17.077  0.00  0.00     0.019 A 
ATOM     19  C   UNL d   1     -40.321  15.481  16.576  0.00  0.00     0.003 A 
ATOM     20  C   UNL d   1     -39.765  14.970  16.903  0.00  0.00     0.019 A 
ATOM     21  C   UNL d   1     -39.724  14.860  17.729  0.00  0.00     0.080 A 
ENDBRANCH   1  16
TORSDOF 4
ENDMDL
