MODEL 1
REMARK VINA RESULT:      -5.0      0.000      0.000
REMARK  1 active torsions:
REMARK  status: ('A' for Active; 'I' for Inactive)
REMARK    1  A    between atoms: C_6  and  CA_1 
ROOT
ATOM      1  CA  UNL d   1     -41.520-122.520 -53.254  0.00  0.00     0.147 A 
ATOM      2  N   UNL d   1     -42.116-122.023 -53.516  0.00  0.00    -0.237 NA
ATOM      3  C   UNL d   1     -41.125-122.826 -53.911  0.00  0.00     0.052 A 
ATOM      4  C   UNL d   1     -42.094-122.018 -54.341  0.00  0.00     0.106 A 
ATOM      5  C   UNL d   1     -41.483-122.513 -54.584  0.00  0.00     0.119 A 
ATOM      6  C   UNL d   1     -42.452-121.705 -55.015  0.00  0.00     0.048 A 
ATOM      7  O   UNL d   1     -41.461-122.508 -55.410  0.00  0.00    -0.303 OA
ATOM      8  C   UNL d   1     -42.061-122.008 -55.679  0.00  0.00     0.124 A 
ENDROOT
BRANCH   1   9
ATOM      9  C   UNL d   1     -41.343-122.688 -52.462  0.00  0.00     0.230 C 
ATOM     10  O   UNL d   1     -41.387-123.460 -52.183  0.00  0.00    -0.643 OA
ATOM     11  OXT UNL d   1     -41.124-122.080 -51.953  0.00  0.00    -0.643 OA
ENDBRANCH   1   9
TORSDOF 1
ENDMDL
MODEL 2
REMARK VINA RESULT:      -4.5      1.015      2.809
REMARK  1 active torsions:
REMARK  status: ('A' for Active; 'I' for Inactive)
REMARK    1  A    between atoms: C_6  and  CA_1 
ROOT
ATOM      1  CA  UNL d   1     -41.423-122.719 -53.406  0.00  0.00     0.147 A 
ATOM      2  N   UNL d   1     -41.408-122.029 -52.964  0.00  0.00    -0.237 NA
ATOM      3  C   UNL d   1     -41.324-123.360 -52.895  0.00  0.00     0.052 A 
ATOM      4  C   UNL d   1     -41.299-122.239 -52.174  0.00  0.00     0.106 A 
ATOM      5  C   UNL d   1     -41.247-123.060 -52.131  0.00  0.00     0.119 A 
ATOM      6  C   UNL d   1     -41.223-121.939 -51.409  0.00  0.00     0.048 A 
ATOM      7  O   UNL d   1     -41.138-123.270 -51.340  0.00  0.00    -0.303 OA
ATOM      8  C   UNL d   1     -41.123-122.577 -50.890  0.00  0.00     0.124 A 
ENDROOT
BRANCH   1   9
ATOM      9  C   UNL d   1     -41.521-122.766 -54.227  0.00  0.00     0.230 C 
ATOM     10  O   UNL d   1     -42.015-123.337 -54.552  0.00  0.00    -0.643 OA
ATOM     11  OXT UNL d   1     -41.124-122.240 -54.719  0.00  0.00    -0.643 OA
ENDBRANCH   1   9
TORSDOF 1
ENDMDL
MODEL 3
REMARK VINA RESULT:      -4.2      1.268      1.599
REMARK  1 active torsions:
REMARK  status: ('A' for Active; 'I' for Inactive)
REMARK    1  A    between atoms: C_6  and  CA_1 
ROOT
ATOM      1  CA  UNL d   1     -41.297-122.918 -52.024  0.00  0.00     0.147 A 
ATOM      2  N   UNL d   1     -41.478-123.570 -52.486  0.00  0.00    -0.237 NA
ATOM      3  C   UNL d   1     -41.123-122.284 -52.524  0.00  0.00     0.052 A 
ATOM      4  C   UNL d   1     -41.417-123.343 -53.277  0.00  0.00     0.106 A 
ATOM      5  C   UNL d   1     -41.198-122.550 -53.300  0.00  0.00     0.119 A 
ATOM      6  C   UNL d   1     -41.492-123.610 -54.054  0.00  0.00     0.048 A 
ATOM      7  O   UNL d   1     -41.137-122.323 -54.092  0.00  0.00    -0.303 OA
ATOM      8  C   UNL d   1     -41.319-122.978 -54.561  0.00  0.00     0.124 A 
ENDROOT
BRANCH   1   9
ATOM      9  C   UNL d   1     -41.289-122.898 -51.196  0.00  0.00     0.230 C 
ATOM     10  O   UNL d   1     -41.155-123.586 -50.768  0.00  0.00    -0.643 OA
ATOM     11  OXT UNL d   1     -41.417-122.188 -50.802  0.00  0.00    -0.643 OA
ENDBRANCH   1   9
TORSDOF 1
ENDMDL
MODEL 4
REMARK VINA RESULT:      -4.0      2.222      4.004
REMARK  1 active torsions:
REMARK  status: ('A' for Active; 'I' for Inactive)
REMARK    1  A    between atoms: C_6  and  CA_1 
ROOT
ATOM      1  CA  UNL d   1     -41.578-122.538 -51.374  0.00  0.00     0.147 A 
ATOM      2  N   UNL d   1     -42.265-122.315 -50.988  0.00  0.00    -0.237 NA
ATOM      3  C   UNL d   1     -41.123-122.994 -50.857  0.00  0.00     0.052 A 
ATOM      4  C   UNL d   1     -42.240-122.632 -50.227  0.00  0.00     0.106 A 
ATOM      5  C   UNL d   1     -41.536-123.050 -50.146  0.00  0.00     0.119 A 
ATOM      6  C   UNL d   1     -42.653-122.688 -49.515  0.00  0.00     0.048 A 
ATOM      7  O   UNL d   1     -41.511-123.367 -49.384  0.00  0.00    -0.303 OA
ATOM      8  C   UNL d   1     -42.202-123.144 -48.991  0.00  0.00     0.124 A 
ENDROOT
BRANCH   1   9
ATOM      9  C   UNL d   1     -41.374-122.341 -52.152  0.00  0.00     0.230 C 
ATOM     10  O   UNL d   1     -41.123-121.579 -52.333  0.00  0.00    -0.643 OA
ATOM     11  OXT UNL d   1     -41.423-122.908 -52.746  0.00  0.00    -0.643 OA
ENDBRANCH   1   9
TORSDOF 1
ENDMDL
MODEL 5
REMARK VINA RESULT:      -3.2      9.595     10.236
REMARK  1 active torsions:
REMARK  status: ('A' for Active; 'I' for Inactive)
REMARK    1  A    between atoms: C_6  and  CA_1 
ROOT
ATOM      1  CA  UNL d   1     -43.612-115.059 -47.392  0.00  0.00     0.147 A 
ATOM      2  N   UNL d   1     -43.022-115.549 -47.681  0.00  0.00    -0.237 NA
ATOM      3  C   UNL d   1     -43.260-114.458 -46.949  0.00  0.00     0.052 A 
ATOM      4  C   UNL d   1     -42.298-115.252 -47.417  0.00  0.00     0.106 A 
ATOM      5  C   UNL d   1     -42.445-114.580 -46.966  0.00  0.00     0.119 A 
ATOM      6  C   UNL d   1     -41.482-115.374 -47.434  0.00  0.00     0.048 A 
ATOM      7  O   UNL d   1     -41.721-114.283 -46.702  0.00  0.00    -0.303 OA
ATOM      8  C   UNL d   1     -41.123-114.774 -46.991  0.00  0.00     0.124 A 
ENDROOT
BRANCH   1   9
ATOM      9  C   UNL d   1     -44.424-115.152 -47.523  0.00  0.00     0.230 C 
ATOM     10  O   UNL d   1     -44.692-115.571 -48.178  0.00  0.00    -0.643 OA
ATOM     11  OXT UNL d   1     -44.965-114.826 -46.996  0.00  0.00    -0.643 OA
ENDBRANCH   1   9
TORSDOF 1
ENDMDL
MODEL 6
REMARK VINA RESULT:      -2.6      9.717     10.173
REMARK  1 active torsions:
REMARK  status: ('A' for Active; 'I' for Inactive)
REMARK    1  A    between atoms: C_6  and  CA_1 
ROOT
ATOM      1  CA  UNL d   1     -42.444-114.934 -47.275  0.00  0.00     0.147 A 
ATOM      2  N   UNL d   1     -42.901-115.265 -47.869  0.00  0.00    -0.237 NA
ATOM      3  C   UNL d   1     -42.947-114.669 -46.676  0.00  0.00     0.052 A 
ATOM      4  C   UNL d   1     -43.691-115.208 -47.641  0.00  0.00     0.106 A 
ATOM      5  C   UNL d   1     -43.720-114.840 -46.905  0.00  0.00     0.119 A 
ATOM      6  C   UNL d   1     -44.465-115.378 -47.870  0.00  0.00     0.048 A 
ATOM      7  O   UNL d   1     -44.511-114.782 -46.676  0.00  0.00    -0.303 OA
ATOM      8  C   UNL d   1     -44.975-115.115 -47.273  0.00  0.00     0.124 A 
ENDROOT
BRANCH   1   9
ATOM      9  C   UNL d   1     -41.618-114.875 -47.276  0.00  0.00     0.230 C 
ATOM     10  O   UNL d   1     -41.161-115.464 -46.930  0.00  0.00    -0.643 OA
ATOM     11  OXT UNL d   1     -41.253-114.225 -47.623  0.00  0.00    -0.643 OA
ENDBRANCH   1   9
TORSDOF 1
ENDMDL
