MODEL 1
REMARK VINA RESULT:      13.0      0.000      0.000
REMARK  3 active torsions:
REMARK  status: ('A' for Active; 'I' for Inactive)
REMARK    1  A    between atoms: N_4  and  C_1 
REMARK       I    between atoms: C_8  and  N_4 
REMARK    2  A    between atoms: C_16  and  C_8 
REMARK       I    between atoms: C_9  and  N_10 
REMARK    3  A    between atoms: N_10  and  C_11 
ROOT
ATOM      1  C   UNL d   1      45.806 -16.758  44.774  0.00  0.00     0.197 A 
ATOM      2  N   UNL d   1      45.066 -16.484  44.899  0.00  0.00    -0.221 NA
ATOM      3  S   UNL d   1      46.315 -16.160  44.666  0.00  0.00    -0.047 SA
ATOM      4  C   UNL d   1      45.911 -15.475  44.720  0.00  0.00     0.051 A 
ATOM      5  C   UNL d   1      45.125 -15.679  44.866  0.00  0.00     0.090 A 
ATOM      6  C   UNL d   1      46.118 -14.685  44.661  0.00  0.00     0.027 A 
ATOM      7  C   UNL d   1      45.557 -14.095  44.745  0.00  0.00     0.085 A 
ATOM      8  C   UNL d   1      44.541 -15.094  44.955  0.00  0.00     0.021 A 
ATOM      9  C   UNL d   1      44.771 -14.299  44.892  0.00  0.00     0.021 A 
ENDROOT
BRANCH   1  10
ATOM     10  N   UNL d   1      45.989 -17.569  44.763  0.00  0.00    -0.183 NA
ATOM     11  C   UNL d   1      46.251 -17.960  44.079  0.00  0.00     0.281 C 
ATOM     12  O   UNL d   1      46.331 -17.516  43.381  0.00  0.00    -0.265 OA
BRANCH  11  13
ATOM     13  C   UNL d   1      46.422 -18.743  44.091  0.00  0.00     0.063 C 
ATOM     14  C   UNL d   1      46.464 -19.182  43.386  0.00  0.00     0.005 C 
ENDBRANCH  11  13
ENDBRANCH   1  10
BRANCH   7  15
ATOM     15  N   UNL d   1      45.757 -13.276  44.687  0.00  0.00    -0.208 NA
ATOM     16  C   UNL d   1      45.602 -12.885  43.985  0.00  0.00     0.279 C 
ATOM     17  O   UNL d   1      45.255 -13.282  43.341  0.00  0.00    -0.265 OA
ATOM     18  C   UNL d   1      45.785 -12.080  43.893  0.00  0.00     0.068 C 
ENDBRANCH   7  15
TORSDOF 3
ENDMDL
