MODEL 1
REMARK VINA RESULT:      -4.6      0.000      0.000
REMARK  2 active torsions:
REMARK  status: ('A' for Active; 'I' for Inactive)
REMARK    1  A    between atoms: N_7  and  C_3 
REMARK       I    between atoms: C_8  and  N_7 
REMARK    2  A    between atoms: C_9  and  C_8 
ROOT
ATOM      1  N   UNL d   1      57.245   0.252  31.779  0.00  0.00    -0.190 NA
ATOM      2  C   UNL d   1      56.760  -0.414  31.792  0.00  0.00     0.281 C 
ATOM      3  O   UNL d   1      56.811  -0.974  31.188  0.00  0.00    -0.265 OA
ENDROOT
BRANCH   1   4
ATOM      4  C   UNL d   1      57.784   0.360  31.160  0.00  0.00     0.159 A 
ATOM      5  N   UNL d   1      58.582   0.467  31.321  0.00  0.00    -0.241 N 
ATOM      6  C   UNL d   1      59.115   0.574  30.709  0.00  0.00     0.343 A 
ATOM      7  C   UNL d   1      58.848   0.468  32.104  0.00  0.00     0.105 C 
ATOM      8  N   UNL d   1      58.850   0.574  29.928  0.00  0.00    -0.224 N 
ATOM      9  O   UNL d   1      59.919   0.682  30.872  0.00  0.00    -0.245 OA
ATOM     10  C   UNL d   1      58.049   0.467  29.749  0.00  0.00     0.271 A 
ATOM     11  C   UNL d   1      59.388   0.681  29.309  0.00  0.00     0.107 C 
ATOM     12  C   UNL d   1      57.519   0.359  30.379  0.00  0.00     0.099 A 
ATOM     13  O   UNL d   1      57.787   0.466  28.976  0.00  0.00    -0.266 OA
ENDBRANCH   1   4
BRANCH   2  14
ATOM     14  C   UNL d   1      56.224  -0.520  32.409  0.00  0.00     0.069 A 
ATOM     15  C   UNL d   1      56.049  -1.264  32.651  0.00  0.00     0.062 A 
ATOM     16  C   UNL d   1      55.518  -1.386  33.263  0.00  0.00     0.012 A 
ATOM     17 CL   UNL d   1      56.407  -1.919  32.282  0.00  0.00    -0.082 Cl
ATOM     18  C   UNL d   1      55.162  -0.740  33.631  0.00  0.00     0.008 A 
ATOM     19  C   UNL d   1      55.345   0.012  33.380  0.00  0.00     0.035 A 
ATOM     20  C   UNL d   1      55.877   0.138  32.766  0.00  0.00     0.012 A 
ATOM     21 BR   UNL d   1      54.979   0.665  33.759  0.00  0.00    -0.049 Br
ENDBRANCH   2  14
TORSDOF 2
ENDMDL
MODEL 2
REMARK VINA RESULT:      -3.7      2.086      3.954
REMARK  2 active torsions:
REMARK  status: ('A' for Active; 'I' for Inactive)
REMARK    1  A    between atoms: N_7  and  C_3 
REMARK       I    between atoms: C_8  and  N_7 
REMARK    2  A    between atoms: C_9  and  C_8 
ROOT
ATOM      1  N   UNL d   1      57.713  -0.276  31.107  0.00  0.00    -0.190 NA
ATOM      2  C   UNL d   1      57.788  -0.921  30.599  0.00  0.00     0.281 C 
ATOM      3  O   UNL d   1      57.400  -1.628  30.768  0.00  0.00    -0.265 OA
ENDROOT
BRANCH   1   4
ATOM      4  C   UNL d   1      57.246  -0.339  31.787  0.00  0.00     0.159 A 
ATOM      5  N   UNL d   1      57.399   0.138  32.439  0.00  0.00    -0.241 N 
ATOM      6  C   UNL d   1      56.938   0.075  33.112  0.00  0.00     0.343 A 
ATOM      7  C   UNL d   1      58.020   0.682  32.414  0.00  0.00     0.105 C 
ATOM      8  N   UNL d   1      56.317  -0.468  33.138  0.00  0.00    -0.224 N 
ATOM      9  O   UNL d   1      57.093   0.556  33.767  0.00  0.00    -0.245 OA
ATOM     10  C   UNL d   1      56.151  -0.955  32.490  0.00  0.00     0.271 A 
ATOM     11  C   UNL d   1      55.851  -0.531  33.818  0.00  0.00     0.107 C 
ATOM     12  C   UNL d   1      56.626  -0.882  31.813  0.00  0.00     0.099 A 
ATOM     13  O   UNL d   1      55.537  -1.493  32.515  0.00  0.00    -0.266 OA
ENDBRANCH   1   4
BRANCH   2  14
ATOM     14  C   UNL d   1      58.253  -0.856  29.920  0.00  0.00     0.069 A 
ATOM     15  C   UNL d   1      58.511  -1.524  29.560  0.00  0.00     0.062 A 
ATOM     16  C   UNL d   1      58.974  -1.477  28.885  0.00  0.00     0.012 A 
ATOM     17 CL   UNL d   1      58.310  -2.271  29.867  0.00  0.00    -0.082 Cl
ATOM     18  C   UNL d   1      59.175  -0.739  28.577  0.00  0.00     0.008 A 
ATOM     19  C   UNL d   1      58.910  -0.067  28.949  0.00  0.00     0.035 A 
ATOM     20  C   UNL d   1      58.445  -0.110  29.627  0.00  0.00     0.012 A 
ATOM     21 BR   UNL d   1      59.118   0.682  28.631  0.00  0.00    -0.049 Br
ENDBRANCH   2  14
TORSDOF 2
ENDMDL
MODEL 3
REMARK VINA RESULT:      -2.7      2.186      4.034
REMARK  2 active torsions:
REMARK  status: ('A' for Active; 'I' for Inactive)
REMARK    1  A    between atoms: N_7  and  C_3 
REMARK       I    between atoms: C_8  and  N_7 
REMARK    2  A    between atoms: C_9  and  C_8 
ROOT
ATOM      1  N   UNL d   1      58.087   0.664  31.374  0.00  0.00    -0.190 NA
ATOM      2  C   UNL d   1      57.979   0.145  30.743  0.00  0.00     0.281 C 
ATOM      3  O   UNL d   1      57.377  -0.419  30.771  0.00  0.00    -0.265 OA
ENDROOT
BRANCH   1   4
ATOM      4  C   UNL d   1      57.593   0.620  32.035  0.00  0.00     0.159 A 
ATOM      5  N   UNL d   1      57.913   0.627  32.792  0.00  0.00    -0.241 N 
ATOM      6  C   UNL d   1      57.423   0.583  33.447  0.00  0.00     0.343 A 
ATOM      7  C   UNL d   1      58.731   0.677  32.892  0.00  0.00     0.105 C 
ATOM      8  N   UNL d   1      56.606   0.533  33.347  0.00  0.00    -0.224 N 
ATOM      9  O   UNL d   1      57.747   0.590  34.208  0.00  0.00    -0.245 OA
ATOM     10  C   UNL d   1      56.268   0.525  32.592  0.00  0.00     0.271 A 
ATOM     11  C   UNL d   1      56.111   0.489  34.009  0.00  0.00     0.107 C 
ATOM     12  C   UNL d   1      56.775   0.570  31.936  0.00  0.00     0.099 A 
ATOM     13  O   UNL d   1      55.459   0.475  32.494  0.00  0.00    -0.266 OA
ENDBRANCH   1   4
BRANCH   2  14
ATOM     14  C   UNL d   1      58.472   0.190  30.084  0.00  0.00     0.069 A 
ATOM     15  C   UNL d   1      58.173   0.455  29.390  0.00  0.00     0.062 A 
ATOM     16  C   UNL d   1      58.651   0.506  28.726  0.00  0.00     0.012 A 
ATOM     17 CL   UNL d   1      57.373   0.682  29.337  0.00  0.00    -0.082 Cl
ATOM     18  C   UNL d   1      59.443   0.282  28.774  0.00  0.00     0.008 A 
ATOM     19  C   UNL d   1      59.739   0.014  29.482  0.00  0.00     0.035 A 
ATOM     20  C   UNL d   1      59.263  -0.038  30.151  0.00  0.00     0.012 A 
ATOM     21 BR   UNL d   1      60.547  -0.212  29.524  0.00  0.00    -0.049 Br
ENDBRANCH   2  14
TORSDOF 2
ENDMDL
MODEL 4
REMARK VINA RESULT:      -1.8      1.555      1.935
REMARK  2 active torsions:
REMARK  status: ('A' for Active; 'I' for Inactive)
REMARK    1  A    between atoms: N_7  and  C_3 
REMARK       I    between atoms: C_8  and  N_7 
REMARK    2  A    between atoms: C_9  and  C_8 
ROOT
ATOM      1  N   UNL d   1      57.770  -0.853  31.188  0.00  0.00    -0.190 NA
ATOM      2  C   UNL d   1      57.385  -0.209  31.526  0.00  0.00     0.281 C 
ATOM      3  O   UNL d   1      57.448   0.539  31.183  0.00  0.00    -0.265 OA
ENDROOT
BRANCH   1   4
ATOM      4  C   UNL d   1      58.222  -0.751  30.502  0.00  0.00     0.159 A 
ATOM      5  N   UNL d   1      58.189  -1.308  29.898  0.00  0.00    -0.241 N 
ATOM      6  C   UNL d   1      58.636  -1.206  29.220  0.00  0.00     0.343 A 
ATOM      7  C   UNL d   1      57.703  -1.971  29.977  0.00  0.00     0.105 C 
ATOM      8  N   UNL d   1      59.121  -0.544  29.141  0.00  0.00    -0.224 N 
ATOM      9  O   UNL d   1      58.602  -1.768  28.613  0.00  0.00    -0.245 OA
ATOM     10  C   UNL d   1      59.165   0.026  29.740  0.00  0.00     0.271 A 
ATOM     11  C   UNL d   1      59.572  -0.441  28.455  0.00  0.00     0.107 C 
ATOM     12  C   UNL d   1      58.707  -0.088  30.423  0.00  0.00     0.099 A 
ATOM     13  O   UNL d   1      59.645   0.682  29.662  0.00  0.00    -0.266 OA
ENDBRANCH   1   4
BRANCH   2  14
ATOM     14  C   UNL d   1      56.935  -0.312  32.210  0.00  0.00     0.069 A 
ATOM     15  C   UNL d   1      57.104   0.128  32.858  0.00  0.00     0.062 A 
ATOM     16  C   UNL d   1      56.666   0.037  33.545  0.00  0.00     0.012 A 
ATOM     17 CL   UNL d   1      57.725   0.682  32.839  0.00  0.00    -0.082 Cl
ATOM     18  C   UNL d   1      56.049  -0.510  33.568  0.00  0.00     0.008 A 
ATOM     19  C   UNL d   1      55.885  -0.952  32.906  0.00  0.00     0.035 A 
ATOM     20  C   UNL d   1      56.322  -0.864  32.215  0.00  0.00     0.012 A 
ATOM     21 BR   UNL d   1      55.256  -1.508  32.937  0.00  0.00    -0.049 Br
ENDBRANCH   2  14
TORSDOF 2
ENDMDL
