MODEL 1
REMARK VINA RESULT:      41.8      0.000      0.000
REMARK  6 active torsions:
REMARK  status: ('A' for Active; 'I' for Inactive)
REMARK    1  A    between atoms: O_10  and  C_1 
REMARK    2  A    between atoms: O_9  and  C_6 
REMARK    3  A    between atoms: O_12  and  C_8 
REMARK    4  A    between atoms: C_13  and  O_9 
REMARK    5  A    between atoms: C_19  and  O_10 
REMARK    6  A    between atoms: C_14  and  O_12 
ROOT
ATOM      1  C   UNL d   1      13.331  13.184  -3.271  0.00  0.00     0.161 A 
ATOM      2  C   UNL d   1      14.265  13.278  -1.908  0.00  0.00     0.128 A 
ATOM      3  C   UNL d   1      13.814  12.585  -2.073  0.00  0.00     0.066 A 
ATOM      4  C   UNL d   1      13.353  12.549  -2.754  0.00  0.00     0.222 A 
ATOM      5  O   UNL d   1      14.245  13.921  -2.427  0.00  0.00    -0.303 OA
ATOM      6  C   UNL d   1      14.729  13.321  -1.227  0.00  0.00     0.149 A 
ATOM      7  C   UNL d   1      13.782  13.877  -3.107  0.00  0.00     0.126 A 
ATOM      8  C   UNL d   1      14.746  12.681  -0.713  0.00  0.00     0.128 A 
ATOM      9  C   UNL d   1      13.837  11.949  -1.553  0.00  0.00     0.007 A 
ATOM     10  O   UNL d   1      12.913  11.872  -2.915  0.00  0.00    -0.284 OA
ATOM     11  C   UNL d   1      14.296  11.988  -0.878  0.00  0.00     0.027 A 
ATOM     12  C   UNL d   1      13.757  14.527  -3.639  0.00  0.00     0.029 C 
ENDROOT
BRANCH   1  13
ATOM     13  O   UNL d   1      12.865  13.155  -3.966  0.00  0.00    -0.302 OA
BRANCH  13  14
ATOM     14  C   UNL d   1      13.170  12.794  -4.640  0.00  0.00     0.100 A 
ATOM     15  C   UNL d   1      13.867  13.076  -4.975  0.00  0.00     0.025 A 
ATOM     16  C   UNL d   1      14.173  12.714  -5.653  0.00  0.00     0.002 A 
ATOM     17  C   UNL d   1      13.781  12.072  -5.993  0.00  0.00     0.000 A 
ATOM     18  C   UNL d   1      13.083  11.792  -5.654  0.00  0.00     0.002 A 
ATOM     19  C   UNL d   1      12.776  12.154  -4.976  0.00  0.00     0.025 A 
ENDBRANCH  13  14
ENDBRANCH   1  13
BRANCH   6  20
ATOM     20  O   UNL d   1      15.167  13.995  -1.066  0.00  0.00    -0.269 OA
BRANCH  20  21
ATOM     21  C   UNL d   1      14.806  14.650  -0.720  0.00  0.00     0.300 C 
ATOM     22  O   UNL d   1      14.305  14.548  -0.073  0.00  0.00    -0.259 OA
ATOM     23  C   UNL d   1      14.946  15.408  -1.020  0.00  0.00     0.074 C 
ENDBRANCH  20  21
ENDBRANCH   6  20
BRANCH   8  24
ATOM     24  O   UNL d   1      15.217  12.716  -0.015  0.00  0.00    -0.271 OA
BRANCH  24  25
ATOM     25  C   UNL d   1      16.028  12.557  -0.054  0.00  0.00     0.300 C 
ATOM     26  O   UNL d   1      16.556  13.183  -0.100  0.00  0.00    -0.259 OA
ATOM     27  C   UNL d   1      16.300  11.780  -0.045  0.00  0.00     0.074 C 
ENDBRANCH  24  25
ENDBRANCH   8  24
TORSDOF 6
ENDMDL
