MODEL 1
REMARK VINA RESULT:      -1.5      0.000      0.000
REMARK  3 active torsions:
REMARK  status: ('A' for Active; 'I' for Inactive)
REMARK    1  A    between atoms: C_11  and  N_2 
REMARK    2  A    between atoms: C_9  and  N_3 
REMARK    3  A    between atoms: C_10  and  C_12 
ROOT
ATOM      1  C   UNL d   1      31.142  17.666 -24.392  0.00  0.00     0.339 A 
ATOM      2  N   UNL d   1      31.890  17.840 -24.096  0.00  0.00    -0.258 N 
ATOM      3  N   UNL d   1      30.903  16.930 -24.093  0.00  0.00    -0.258 N 
ATOM      4  S   UNL d   1      32.489  16.194 -22.827  0.00  0.00     0.214 S 
ATOM      5  C   UNL d   1      32.126  17.206 -23.604  0.00  0.00     0.097 A 
ATOM      6  C   UNL d   1      31.510  16.648 -23.608  0.00  0.00     0.097 A 
ATOM      7  C   UNL d   1      32.725  16.921 -23.122  0.00  0.00     0.118 A 
ATOM      8  C   UNL d   1      31.745  16.021 -23.121  0.00  0.00     0.118 A 
ATOM      9  O   UNL d   1      30.698  18.143 -24.903  0.00  0.00    -0.245 OA
ATOM     10  O   UNL d   1      32.248  15.454 -22.527  0.00  0.00    -0.217 OA
ATOM     11  O   UNL d   1      33.241  16.318 -22.501  0.00  0.00    -0.217 OA
ENDROOT
BRANCH   3  12
ATOM     12  C   UNL d   1      30.188  16.546 -24.250  0.00  0.00     0.068 A 
ATOM     13  C   UNL d   1      29.512  16.736 -23.819  0.00  0.00     0.021 A 
ATOM     14  C   UNL d   1      28.800  16.357 -23.971  0.00  0.00     0.073 A 
ATOM     15  C   UNL d   1      28.762  15.781 -24.560  0.00  0.00     0.004 A 
ATOM     16  C   UNL d   1      29.436  15.583 -24.998  0.00  0.00     0.001 A 
ATOM     17  C   UNL d   1      30.150  15.969 -24.839  0.00  0.00     0.018 A 
BRANCH  14  18
ATOM     18  C   UNL d   1      28.122  16.549 -23.538  0.00  0.00     0.419 C 
ATOM     19  F   UNL d   1      27.503  16.719 -23.142  0.00  0.00    -0.166 F 
ATOM     20  F   UNL d   1      27.652  16.048 -23.011  0.00  0.00    -0.166 F 
ATOM     21  F   UNL d   1      27.695  17.296 -23.491  0.00  0.00    -0.166 F 
ENDBRANCH  14  18
ENDBRANCH   3  12
BRANCH   2  22
ATOM     22  C   UNL d   1      32.337  18.520 -24.253  0.00  0.00     0.068 A 
ATOM     23  C   UNL d   1      32.319  19.153 -23.724  0.00  0.00     0.016 A 
ATOM     24  C   UNL d   1      31.861  19.115 -23.041  0.00  0.00     0.002 C 
ATOM     25  C   UNL d   1      32.770  19.829 -23.891  0.00  0.00     0.001 A 
ATOM     26  C   UNL d   1      33.228  19.866 -24.574  0.00  0.00     0.000 A 
ATOM     27  C   UNL d   1      33.241  19.231 -25.097  0.00  0.00     0.002 A 
ATOM     28  C   UNL d   1      32.795  18.559 -24.935  0.00  0.00     0.018 A 
ENDBRANCH   2  22
TORSDOF 3
ENDMDL
MODEL 2
REMARK VINA RESULT:      -0.6      2.399      4.185
REMARK  3 active torsions:
REMARK  status: ('A' for Active; 'I' for Inactive)
REMARK    1  A    between atoms: C_11  and  N_2 
REMARK    2  A    between atoms: C_9  and  N_3 
REMARK    3  A    between atoms: C_10  and  C_12 
ROOT
ATOM      1  C   UNL d   1      30.985  17.947 -23.662  0.00  0.00     0.339 A 
ATOM      2  N   UNL d   1      30.724  17.216 -23.936  0.00  0.00    -0.258 N 
ATOM      3  N   UNL d   1      31.796  18.016 -23.822  0.00  0.00    -0.258 N 
ATOM      4  S   UNL d   1      32.425  16.199 -24.804  0.00  0.00     0.214 S 
ATOM      5  C   UNL d   1      31.379  16.819 -24.273  0.00  0.00     0.097 A 
ATOM      6  C   UNL d   1      32.037  17.321 -24.198  0.00  0.00     0.097 A 
ATOM      7  C   UNL d   1      31.624  16.131 -24.646  0.00  0.00     0.118 A 
ATOM      8  C   UNL d   1      32.685  16.927 -24.531  0.00  0.00     0.118 A 
ATOM      9  O   UNL d   1      30.519  18.521 -23.289  0.00  0.00    -0.245 OA
ATOM     10  O   UNL d   1      33.241  16.270 -24.964  0.00  0.00    -0.217 OA
ATOM     11  O   UNL d   1      32.217  15.453 -25.097  0.00  0.00    -0.217 OA
ENDROOT
BRANCH   3  12
ATOM     12  C   UNL d   1      32.278  18.663 -23.639  0.00  0.00     0.068 A 
ATOM     13  C   UNL d   1      32.379  18.897 -22.857  0.00  0.00     0.021 A 
ATOM     14  C   UNL d   1      32.857  19.538 -22.671  0.00  0.00     0.073 A 
ATOM     15  C   UNL d   1      33.239  19.950 -23.275  0.00  0.00     0.004 A 
ATOM     16  C   UNL d   1      33.144  19.721 -24.064  0.00  0.00     0.001 A 
ATOM     17  C   UNL d   1      32.661  19.075 -24.244  0.00  0.00     0.018 A 
BRANCH  14  18
ATOM     18  C   UNL d   1      32.957  19.773 -21.884  0.00  0.00     0.419 C 
ATOM     19  F   UNL d   1      33.047  19.992 -21.168  0.00  0.00    -0.166 F 
ATOM     20  F   UNL d   1      32.868  20.561 -21.535  0.00  0.00    -0.166 F 
ATOM     21  F   UNL d   1      33.176  19.304 -21.196  0.00  0.00    -0.166 F 
ENDBRANCH  14  18
ENDBRANCH   3  12
BRANCH   2  22
ATOM     22  C   UNL d   1      29.952  16.918 -23.890  0.00  0.00     0.068 A 
ATOM     23  C   UNL d   1      29.394  17.138 -24.455  0.00  0.00     0.016 A 
ATOM     24  C   UNL d   1      29.596  17.652 -25.066  0.00  0.00     0.002 C 
ATOM     25  C   UNL d   1      28.624  16.834 -24.399  0.00  0.00     0.001 A 
ATOM     26  C   UNL d   1      28.422  16.321 -23.788  0.00  0.00     0.000 A 
ATOM     27  C   UNL d   1      28.984  16.106 -23.228  0.00  0.00     0.002 A 
ATOM     28  C   UNL d   1      29.749  16.405 -23.280  0.00  0.00     0.018 A 
ENDBRANCH   2  22
TORSDOF 3
ENDMDL
MODEL 3
REMARK VINA RESULT:       1.2      3.673      5.160
REMARK  3 active torsions:
REMARK  status: ('A' for Active; 'I' for Inactive)
REMARK    1  A    between atoms: C_11  and  N_2 
REMARK    2  A    between atoms: C_9  and  N_3 
REMARK    3  A    between atoms: C_10  and  C_12 
ROOT
ATOM      1  C   UNL d   1      32.621  20.956 -21.563  0.00  0.00     0.339 A 
ATOM      2  N   UNL d   1      32.675  21.776 -21.598  0.00  0.00    -0.258 N 
ATOM      3  N   UNL d   1      32.752  20.648 -22.322  0.00  0.00    -0.258 N 
ATOM      4  S   UNL d   1      33.108  22.313 -23.649  0.00  0.00     0.214 S 
ATOM      5  C   UNL d   1      32.843  21.989 -22.390  0.00  0.00     0.097 A 
ATOM      6  C   UNL d   1      32.888  21.285 -22.830  0.00  0.00     0.097 A 
ATOM      7  C   UNL d   1      32.979  22.618 -22.900  0.00  0.00     0.118 A 
ATOM      8  C   UNL d   1      33.054  21.497 -23.613  0.00  0.00     0.118 A 
ATOM      9  O   UNL d   1      32.462  20.508 -20.885  0.00  0.00    -0.245 OA
ATOM     10  O   UNL d   1      33.240  22.002 -24.412  0.00  0.00    -0.217 OA
ATOM     11  O   UNL d   1      33.174  23.134 -23.742  0.00  0.00    -0.217 OA
ENDROOT
BRANCH   3  12
ATOM     12  C   UNL d   1      32.747  19.849 -22.535  0.00  0.00     0.068 A 
ATOM     13  C   UNL d   1      32.252  19.583 -23.136  0.00  0.00     0.021 A 
ATOM     14  C   UNL d   1      32.244  18.791 -23.351  0.00  0.00     0.073 A 
ATOM     15  C   UNL d   1      32.738  18.258 -22.960  0.00  0.00     0.004 A 
ATOM     16  C   UNL d   1      33.238  18.516 -22.354  0.00  0.00     0.001 A 
ATOM     17  C   UNL d   1      33.241  19.315 -22.143  0.00  0.00     0.018 A 
BRANCH  14  18
ATOM     18  C   UNL d   1      31.747  18.525 -23.956  0.00  0.00     0.419 C 
ATOM     19  F   UNL d   1      31.289  18.281 -24.504  0.00  0.00    -0.166 F 
ATOM     20  F   UNL d   1      30.965  18.156 -23.896  0.00  0.00    -0.166 F 
ATOM     21  F   UNL d   1      31.864  18.540 -24.809  0.00  0.00    -0.166 F 
ENDBRANCH  14  18
ENDBRANCH   3  12
BRANCH   2  22
ATOM     22  C   UNL d   1      32.582  22.305 -20.967  0.00  0.00     0.068 A 
ATOM     23  C   UNL d   1      31.834  22.601 -20.787  0.00  0.00     0.016 A 
ATOM     24  C   UNL d   1      31.177  22.375 -21.229  0.00  0.00     0.002 C 
ATOM     25  C   UNL d   1      31.752  23.129 -20.153  0.00  0.00     0.001 A 
ATOM     26  C   UNL d   1      32.409  23.355 -19.711  0.00  0.00     0.000 A 
ATOM     27  C   UNL d   1      33.153  23.056 -19.897  0.00  0.00     0.002 A 
ATOM     28  C   UNL d   1      33.238  22.531 -20.525  0.00  0.00     0.018 A 
ENDBRANCH   2  22
TORSDOF 3
ENDMDL
