MODEL 1
REMARK VINA RESULT:      62.0      0.000      0.000
REMARK  3 active torsions:
REMARK  status: ('A' for Active; 'I' for Inactive)
REMARK    1  A    between atoms: C_10  and  C_3 
REMARK    2  A    between atoms: O_13  and  C_10 
REMARK    3  A    between atoms: C_12  and  O_13 
ROOT
ATOM      1  C   UNL d   1      61.341  45.297  49.992  0.00  0.00     0.002 A 
ATOM      2  C   UNL d   1      61.334  46.020  50.390  0.00  0.00     0.025 A 
ATOM      3  C   UNL d   1      61.690  45.245  49.234  0.00  0.00     0.000 A 
ATOM      4  C   UNL d   1      62.026  45.915  48.887  0.00  0.00     0.002 A 
ATOM      5  C   UNL d   1      61.668  46.687  50.046  0.00  0.00     0.100 A 
ATOM      6  C   UNL d   1      62.017  46.634  49.288  0.00  0.00     0.025 A 
ATOM      7  C   UNL d   1      61.010  44.631  50.332  0.00  0.00     0.000 A 
ATOM      8  C   UNL d   1      61.700  44.527  48.833  0.00  0.00     0.000 A 
ATOM      9  C   UNL d   1      61.015  43.909  49.938  0.00  0.00     0.000 A 
ATOM     10  C   UNL d   1      61.364  43.857  49.181  0.00  0.00     0.000 A 
ENDROOT
BRANCH   5  11
ATOM     11  O   UNL d   1      61.662  47.413  50.444  0.00  0.00    -0.304 OA
BRANCH  11  12
ATOM     12  C   UNL d   1      61.199  48.036  50.147  0.00  0.00     0.142 C 
BRANCH  12  13
ATOM     13  C   UNL d   1      60.932  48.631  50.652  0.00  0.00     0.115 A 
ATOM     14  N   UNL d   1      61.137  48.729  51.446  0.00  0.00    -0.217 NA
ATOM     15  C   UNL d   1      60.740  49.395  51.733  0.00  0.00     0.215 A 
ATOM     16  S   UNL d   1      60.288  49.708  51.110  0.00  0.00    -0.045 SA
ATOM     17  N   UNL d   1      60.788  49.691  52.500  0.00  0.00    -0.120 N 
ATOM     18  C   UNL d   1      60.404  49.239  50.442  0.00  0.00     0.060 A 
ENDBRANCH  12  13
ENDBRANCH  11  12
ENDBRANCH   5  11
TORSDOF 3
ENDMDL
MODEL 2
REMARK VINA RESULT:      64.4      5.452      6.765
REMARK  3 active torsions:
REMARK  status: ('A' for Active; 'I' for Inactive)
REMARK    1  A    between atoms: C_10  and  C_3 
REMARK    2  A    between atoms: O_13  and  C_10 
REMARK    3  A    between atoms: C_12  and  O_13 
ROOT
ATOM      1  C   UNL d   1      56.861  48.915  54.842  0.00  0.00     0.002 A 
ATOM      2  C   UNL d   1      56.423  48.918  54.144  0.00  0.00     0.025 A 
ATOM      3  C   UNL d   1      57.598  49.310  54.871  0.00  0.00     0.000 A 
ATOM      4  C   UNL d   1      57.884  49.701  54.201  0.00  0.00     0.002 A 
ATOM      5  C   UNL d   1      56.705  49.306  53.477  0.00  0.00     0.100 A 
ATOM      6  C   UNL d   1      57.442  49.701  53.506  0.00  0.00     0.025 A 
ATOM      7  C   UNL d   1      56.583  48.530  55.507  0.00  0.00     0.000 A 
ATOM      8  C   UNL d   1      58.039  49.310  55.564  0.00  0.00     0.000 A 
ATOM      9  C   UNL d   1      57.017  48.525  56.206  0.00  0.00     0.000 A 
ATOM     10  C   UNL d   1      57.754  48.919  56.234  0.00  0.00     0.000 A 
ENDROOT
BRANCH   5  11
ATOM     11  O   UNL d   1      56.267  49.310  52.775  0.00  0.00    -0.304 OA
BRANCH  11  12
ATOM     12  C   UNL d   1      56.567  49.708  52.110  0.00  0.00     0.142 C 
BRANCH  12  13
ATOM     13  C   UNL d   1      56.541  49.350  51.367  0.00  0.00     0.115 A 
ATOM     14  N   UNL d   1      56.204  49.667  50.682  0.00  0.00    -0.217 NA
ATOM     15  C   UNL d   1      56.305  49.120  50.070  0.00  0.00     0.215 A 
ATOM     16  S   UNL d   1      56.706  48.463  50.383  0.00  0.00    -0.045 SA
ATOM     17  N   UNL d   1      56.051  49.215  49.293  0.00  0.00    -0.120 N 
ATOM     18  C   UNL d   1      56.853  48.602  51.181  0.00  0.00     0.060 A 
ENDBRANCH  12  13
ENDBRANCH  11  12
ENDBRANCH   5  11
TORSDOF 3
ENDMDL
