MODEL 1
REMARK VINA RESULT:      -6.2      0.000      0.000
REMARK  7 active torsions:
REMARK  status: ('A' for Active; 'I' for Inactive)
REMARK    1  A    between atoms: C_4  and  S_1 
REMARK    2  A    between atoms: N_10  and  S_1 
REMARK    3  A    between atoms: C_3  and  C_2 
REMARK       I    between atoms: N_6  and  C_3 
REMARK    4  A    between atoms: C_16  and  N_6 
REMARK    5  A    between atoms: C_19  and  N_10 
REMARK    6  A    between atoms: C_12  and  C_24 
REMARK    7  A    between atoms: C_24  and  C_19 
ROOT
ATOM      1  C   UNL d   1     -45.572  12.723  22.771  0.00  0.00     0.086 A 
ATOM      2  C   UNL d   1     -44.349  12.367  22.129  0.00  0.00     0.106 A 
ATOM      3  C   UNL d   1     -44.962  12.903  22.249  0.00  0.00     0.020 A 
ATOM      4  C   UNL d   1     -45.569  12.002  23.177  0.00  0.00     0.145 A 
ATOM      5  C   UNL d   1     -44.346  11.650  22.533  0.00  0.00     0.015 A 
ATOM      6  C   UNL d   1     -44.957  11.467  23.058  0.00  0.00     0.030 A 
ATOM      7  F   UNL d   1     -46.173  11.817  23.698  0.00  0.00    -0.204 F 
ENDROOT
BRANCH   2   8
ATOM      8  S   UNL d   1     -43.735  12.545  21.606  0.00  0.00     0.285 S 
ATOM      9  O   UNL d   1     -43.202  12.171  22.108  0.00  0.00    -0.198 OA
ATOM     10  O   UNL d   1     -44.266  12.920  21.101  0.00  0.00    -0.198 OA
BRANCH   8  11
ATOM     11  N   UNL d   1     -43.128  12.724  21.083  0.00  0.00    -0.157 NA
BRANCH  11  12
ATOM     12  C   UNL d   1     -42.581  13.330  21.277  0.00  0.00     0.112 C 
BRANCH  12  13
ATOM     13  C   UNL d   1     -42.016  13.570  20.740  0.00  0.00     0.021 C 
BRANCH  13  14
ATOM     14  C   UNL d   1     -41.489  14.160  20.927  0.00  0.00     0.002 A 
ATOM     15  C   UNL d   1     -41.674  14.960  20.777  0.00  0.00     0.000 A 
ATOM     16  C   UNL d   1     -41.137  15.561  20.967  0.00  0.00     0.000 A 
ATOM     17  C   UNL d   1     -40.400  15.378  21.312  0.00  0.00     0.000 A 
ATOM     18  C   UNL d   1     -40.218  14.577  21.461  0.00  0.00     0.000 A 
ATOM     19  C   UNL d   1     -40.755  13.977  21.271  0.00  0.00     0.000 A 
ENDBRANCH  13  14
ENDBRANCH  12  13
ENDBRANCH  11  12
ENDBRANCH   8  11
ENDBRANCH   2   8
BRANCH   1  20
ATOM     20  C   UNL d   1     -46.189  13.248  22.899  0.00  0.00     0.281 C 
ATOM     21  N   UNL d   1     -46.821  13.266  22.360  0.00  0.00    -0.208 NA
ATOM     22  O   UNL d   1     -46.191  13.752  23.547  0.00  0.00    -0.265 OA
BRANCH  21  23
ATOM     23  C   UNL d   1     -47.440  13.790  22.485  0.00  0.00     0.085 A 
ATOM     24  C   UNL d   1     -47.316  14.593  22.427  0.00  0.00     0.019 A 
ATOM     25  C   UNL d   1     -47.947  15.111  22.556  0.00  0.00     0.002 A 
ATOM     26  C   UNL d   1     -48.699  14.828  22.741  0.00  0.00     0.000 A 
ATOM     27  C   UNL d   1     -48.815  14.012  22.798  0.00  0.00     0.002 A 
ATOM     28  C   UNL d   1     -49.326  15.343  22.869  0.00  0.00     0.000 C 
ATOM     29  C   UNL d   1     -48.190  13.492  22.671  0.00  0.00     0.019 A 
ENDBRANCH  21  23
ENDBRANCH   1  20
TORSDOF 7
ENDMDL
MODEL 2
REMARK VINA RESULT:      -5.0      1.324      5.960
REMARK  7 active torsions:
REMARK  status: ('A' for Active; 'I' for Inactive)
REMARK    1  A    between atoms: C_4  and  S_1 
REMARK    2  A    between atoms: N_10  and  S_1 
REMARK    3  A    between atoms: C_3  and  C_2 
REMARK       I    between atoms: N_6  and  C_3 
REMARK    4  A    between atoms: C_16  and  N_6 
REMARK    5  A    between atoms: C_19  and  N_10 
REMARK    6  A    between atoms: C_12  and  C_24 
REMARK    7  A    between atoms: C_24  and  C_19 
ROOT
ATOM      1  C   UNL d   1     -43.558  12.746  21.743  0.00  0.00     0.086 A 
ATOM      2  C   UNL d   1     -44.911  12.831  22.189  0.00  0.00     0.106 A 
ATOM      3  C   UNL d   1     -44.279  13.142  21.761  0.00  0.00     0.020 A 
ATOM      4  C   UNL d   1     -43.467  12.033  22.155  0.00  0.00     0.145 A 
ATOM      5  C   UNL d   1     -44.821  12.123  22.599  0.00  0.00     0.015 A 
ATOM      6  C   UNL d   1     -44.097  11.724  22.581  0.00  0.00     0.030 A 
ATOM      7  F   UNL d   1     -42.753  11.635  22.140  0.00  0.00    -0.204 F 
ENDROOT
BRANCH   2   8
ATOM      8  S   UNL d   1     -45.636  13.227  22.210  0.00  0.00     0.285 S 
ATOM      9  O   UNL d   1     -45.791  12.974  21.443  0.00  0.00    -0.198 OA
ATOM     10  O   UNL d   1     -45.482  13.482  22.977  0.00  0.00    -0.198 OA
BRANCH   8  11
ATOM     11  N   UNL d   1     -46.355  13.622  22.234  0.00  0.00    -0.157 NA
BRANCH  11  12
ATOM     12  C   UNL d   1     -47.069  13.181  22.227  0.00  0.00     0.112 C 
BRANCH  12  13
ATOM     13  C   UNL d   1     -47.788  13.548  22.340  0.00  0.00     0.021 C 
BRANCH  13  14
ATOM     14  C   UNL d   1     -48.484  13.140  22.240  0.00  0.00     0.002 A 
ATOM     15  C   UNL d   1     -48.922  13.211  21.533  0.00  0.00     0.000 A 
ATOM     16  C   UNL d   1     -49.630  12.795  21.431  0.00  0.00     0.000 A 
ATOM     17  C   UNL d   1     -49.920  12.298  22.034  0.00  0.00     0.000 A 
ATOM     18  C   UNL d   1     -49.481  12.228  22.740  0.00  0.00     0.000 A 
ATOM     19  C   UNL d   1     -48.772  12.644  22.841  0.00  0.00     0.000 A 
ENDBRANCH  13  14
ENDBRANCH  12  13
ENDBRANCH  11  12
ENDBRANCH   8  11
ENDBRANCH   2   8
BRANCH   1  20
ATOM     20  C   UNL d   1     -42.921  13.044  21.321  0.00  0.00     0.281 C 
ATOM     21  N   UNL d   1     -42.463  13.649  21.659  0.00  0.00    -0.208 NA
ATOM     22  O   UNL d   1     -42.733  12.756  20.576  0.00  0.00    -0.265 OA
BRANCH  21  23
ATOM     23  C   UNL d   1     -41.825  13.950  21.239  0.00  0.00     0.085 A 
ATOM     24  C   UNL d   1     -41.941  14.519  20.668  0.00  0.00     0.019 A 
ATOM     25  C   UNL d   1     -41.291  14.815  20.252  0.00  0.00     0.002 A 
ATOM     26  C   UNL d   1     -40.528  14.542  20.406  0.00  0.00     0.000 A 
ATOM     27  C   UNL d   1     -40.420  13.964  20.986  0.00  0.00     0.002 A 
ATOM     28  C   UNL d   1     -39.882  14.835  19.992  0.00  0.00     0.000 C 
ATOM     29  C   UNL d   1     -41.064  13.667  21.404  0.00  0.00     0.019 A 
ENDBRANCH  21  23
ENDBRANCH   1  20
TORSDOF 7
ENDMDL
MODEL 3
REMARK VINA RESULT:      -4.8      2.688      6.500
REMARK  7 active torsions:
REMARK  status: ('A' for Active; 'I' for Inactive)
REMARK    1  A    between atoms: C_4  and  S_1 
REMARK    2  A    between atoms: N_10  and  S_1 
REMARK    3  A    between atoms: C_3  and  C_2 
REMARK       I    between atoms: N_6  and  C_3 
REMARK    4  A    between atoms: C_16  and  N_6 
REMARK    5  A    between atoms: C_19  and  N_10 
REMARK    6  A    between atoms: C_12  and  C_24 
REMARK    7  A    between atoms: C_24  and  C_19 
ROOT
ATOM      1  C   UNL d   1     -40.994  14.172  20.383  0.00  0.00     0.086 A 
ATOM      2  C   UNL d   1     -42.031  13.521  21.116  0.00  0.00     0.106 A 
ATOM      3  C   UNL d   1     -41.735  13.813  20.405  0.00  0.00     0.020 A 
ATOM      4  C   UNL d   1     -40.546  14.239  21.076  0.00  0.00     0.145 A 
ATOM      5  C   UNL d   1     -41.586  13.588  21.805  0.00  0.00     0.015 A 
ATOM      6  C   UNL d   1     -40.842  13.948  21.784  0.00  0.00     0.030 A 
ATOM      7  F   UNL d   1     -39.809  14.595  21.060  0.00  0.00    -0.204 F 
ENDROOT
BRANCH   2   8
ATOM      8  S   UNL d   1     -42.773  13.160  21.142  0.00  0.00     0.285 S 
ATOM      9  O   UNL d   1     -43.129  13.891  21.018  0.00  0.00    -0.198 OA
ATOM     10  O   UNL d   1     -42.421  12.427  21.266  0.00  0.00    -0.198 OA
BRANCH   8  11
ATOM     11  N   UNL d   1     -43.510  12.798  21.167  0.00  0.00    -0.157 NA
BRANCH  11  12
ATOM     12  C   UNL d   1     -44.106  13.109  21.669  0.00  0.00     0.112 C 
BRANCH  12  13
ATOM     13  C   UNL d   1     -44.832  12.743  21.731  0.00  0.00     0.021 C 
BRANCH  13  14
ATOM     14  C   UNL d   1     -45.398  13.027  22.241  0.00  0.00     0.002 A 
ATOM     15  C   UNL d   1     -45.664  13.816  22.185  0.00  0.00     0.000 A 
ATOM     16  C   UNL d   1     -46.241  14.105  22.704  0.00  0.00     0.000 A 
ATOM     17  C   UNL d   1     -46.567  13.613  23.293  0.00  0.00     0.000 A 
ATOM     18  C   UNL d   1     -46.300  12.824  23.346  0.00  0.00     0.000 A 
ATOM     19  C   UNL d   1     -45.723  12.535  22.827  0.00  0.00     0.000 A 
ENDBRANCH  13  14
ENDBRANCH  12  13
ENDBRANCH  11  12
ENDBRANCH   8  11
ENDBRANCH   2   8
BRANCH   1  20
ATOM     20  C   UNL d   1     -40.687  14.467  19.682  0.00  0.00     0.281 C 
ATOM     21  N   UNL d   1     -40.540  13.942  19.055  0.00  0.00    -0.208 NA
ATOM     22  O   UNL d   1     -40.526  15.266  19.593  0.00  0.00    -0.265 OA
BRANCH  21  23
ATOM     23  C   UNL d   1     -40.234  14.234  18.352  0.00  0.00     0.085 A 
ATOM     24  C   UNL d   1     -39.445  14.132  18.174  0.00  0.00     0.019 A 
ATOM     25  C   UNL d   1     -39.148  14.431  17.464  0.00  0.00     0.002 A 
ATOM     26  C   UNL d   1     -39.636  14.830  16.932  0.00  0.00     0.000 A 
ATOM     27  C   UNL d   1     -40.434  14.929  17.121  0.00  0.00     0.002 A 
ATOM     28  C   UNL d   1     -39.340  15.127  16.226  0.00  0.00     0.000 C 
ATOM     29  C   UNL d   1     -40.735  14.634  17.828  0.00  0.00     0.019 A 
ENDBRANCH  21  23
ENDBRANCH   1  20
TORSDOF 7
ENDMDL
MODEL 4
REMARK VINA RESULT:      -4.5      2.088      3.048
REMARK  7 active torsions:
REMARK  status: ('A' for Active; 'I' for Inactive)
REMARK    1  A    between atoms: C_4  and  S_1 
REMARK    2  A    between atoms: N_10  and  S_1 
REMARK    3  A    between atoms: C_3  and  C_2 
REMARK       I    between atoms: N_6  and  C_3 
REMARK    4  A    between atoms: C_16  and  N_6 
REMARK    5  A    between atoms: C_19  and  N_10 
REMARK    6  A    between atoms: C_12  and  C_24 
REMARK    7  A    between atoms: C_24  and  C_19 
ROOT
ATOM      1  C   UNL d   1     -48.400  12.233  23.259  0.00  0.00     0.086 A 
ATOM      2  C   UNL d   1     -47.105  11.674  23.475  0.00  0.00     0.106 A 
ATOM      3  C   UNL d   1     -47.581  12.310  23.257  0.00  0.00     0.020 A 
ATOM      4  C   UNL d   1     -48.748  11.514  23.480  0.00  0.00     0.145 A 
ATOM      5  C   UNL d   1     -47.450  10.960  23.694  0.00  0.00     0.015 A 
ATOM      6  C   UNL d   1     -48.273  10.880  23.697  0.00  0.00     0.030 A 
ATOM      7  F   UNL d   1     -49.562  11.432  23.484  0.00  0.00    -0.204 F 
ENDROOT
BRANCH   2   8
ATOM      8  S   UNL d   1     -46.283  11.748  23.474  0.00  0.00     0.285 S 
ATOM      9  O   UNL d   1     -46.358  12.539  23.687  0.00  0.00    -0.198 OA
ATOM     10  O   UNL d   1     -46.205  10.958  23.260  0.00  0.00    -0.198 OA
BRANCH   8  11
ATOM     11  N   UNL d   1     -45.465  11.819  23.471  0.00  0.00    -0.157 NA
BRANCH  11  12
ATOM     12  C   UNL d   1     -45.071  12.034  22.762  0.00  0.00     0.112 C 
BRANCH  12  13
ATOM     13  C   UNL d   1     -44.269  11.913  22.678  0.00  0.00     0.021 C 
BRANCH  13  14
ATOM     14  C   UNL d   1     -43.841  12.329  22.125  0.00  0.00     0.002 A 
ATOM     15  C   UNL d   1     -44.182  12.976  21.723  0.00  0.00     0.000 A 
ATOM     16  C   UNL d   1     -43.746  13.400  21.161  0.00  0.00     0.000 A 
ATOM     17  C   UNL d   1     -42.959  13.187  20.985  0.00  0.00     0.000 A 
ATOM     18  C   UNL d   1     -42.622  12.540  21.388  0.00  0.00     0.000 A 
ATOM     19  C   UNL d   1     -43.057  12.116  21.951  0.00  0.00     0.000 A 
ENDBRANCH  13  14
ENDBRANCH  12  13
ENDBRANCH  11  12
ENDBRANCH   8  11
ENDBRANCH   2   8
BRANCH   1  20
ATOM     20  C   UNL d   1     -48.886  12.859  23.045  0.00  0.00     0.281 C 
ATOM     21  N   UNL d   1     -49.144  13.387  23.632  0.00  0.00    -0.208 NA
ATOM     22  O   UNL d   1     -49.116  12.969  22.265  0.00  0.00    -0.265 OA
BRANCH  21  23
ATOM     23  C   UNL d   1     -49.629  14.014  23.421  0.00  0.00     0.085 A 
ATOM     24  C   UNL d   1     -50.438  13.955  23.507  0.00  0.00     0.019 A 
ATOM     25  C   UNL d   1     -50.916  14.593  23.291  0.00  0.00     0.002 A 
ATOM     26  C   UNL d   1     -50.588  15.288  22.990  0.00  0.00     0.000 A 
ATOM     27  C   UNL d   1     -49.769  15.338  22.907  0.00  0.00     0.002 A 
ATOM     28  C   UNL d   1     -51.064  15.921  22.776  0.00  0.00     0.000 C 
ATOM     29  C   UNL d   1     -49.288  14.705  23.120  0.00  0.00     0.019 A 
ENDBRANCH  21  23
ENDBRANCH   1  20
TORSDOF 7
ENDMDL
MODEL 5
REMARK VINA RESULT:      -3.6      1.723      2.218
REMARK  7 active torsions:
REMARK  status: ('A' for Active; 'I' for Inactive)
REMARK    1  A    between atoms: C_4  and  S_1 
REMARK    2  A    between atoms: N_10  and  S_1 
REMARK    3  A    between atoms: C_3  and  C_2 
REMARK       I    between atoms: N_6  and  C_3 
REMARK    4  A    between atoms: C_16  and  N_6 
REMARK    5  A    between atoms: C_19  and  N_10 
REMARK    6  A    between atoms: C_12  and  C_24 
REMARK    7  A    between atoms: C_24  and  C_19 
ROOT
ATOM      1  C   UNL d   1     -44.186  12.869  21.867  0.00  0.00     0.086 A 
ATOM      2  C   UNL d   1     -42.837  13.170  21.513  0.00  0.00     0.106 A 
ATOM      3  C   UNL d   1     -43.630  13.391  21.559  0.00  0.00     0.020 A 
ATOM      4  C   UNL d   1     -43.950  12.120  22.131  0.00  0.00     0.145 A 
ATOM      5  C   UNL d   1     -42.602  12.426  21.776  0.00  0.00     0.015 A 
ATOM      6  C   UNL d   1     -43.160  11.901  22.085  0.00  0.00     0.030 A 
ATOM      7  F   UNL d   1     -44.499  11.597  22.439  0.00  0.00    -0.204 F 
ENDROOT
BRANCH   2   8
ATOM      8  S   UNL d   1     -42.277  13.692  21.204  0.00  0.00     0.285 S 
ATOM      9  O   UNL d   1     -41.714  13.093  21.223  0.00  0.00    -0.198 OA
ATOM     10  O   UNL d   1     -42.838  14.294  21.185  0.00  0.00    -0.198 OA
BRANCH   8  11
ATOM     11  N   UNL d   1     -41.722  14.214  20.897  0.00  0.00    -0.157 NA
BRANCH  11  12
ATOM     12  C   UNL d   1     -41.350  14.038  20.167  0.00  0.00     0.112 C 
BRANCH  12  13
ATOM     13  C   UNL d   1     -40.811  14.555  19.838  0.00  0.00     0.021 C 
BRANCH  13  14
ATOM     14  C   UNL d   1     -40.477  14.402  19.112  0.00  0.00     0.002 A 
ATOM     15  C   UNL d   1     -39.756  13.986  19.055  0.00  0.00     0.000 A 
ATOM     16  C   UNL d   1     -39.415  13.830  18.316  0.00  0.00     0.000 A 
ATOM     17  C   UNL d   1     -39.788  14.085  17.615  0.00  0.00     0.000 A 
ATOM     18  C   UNL d   1     -40.509  14.500  17.675  0.00  0.00     0.000 A 
ATOM     19  C   UNL d   1     -40.849  14.656  18.414  0.00  0.00     0.000 A 
ENDBRANCH  13  14
ENDBRANCH  12  13
ENDBRANCH  11  12
ENDBRANCH   8  11
ENDBRANCH   2   8
BRANCH   1  20
ATOM     20  C   UNL d   1     -44.979  13.076  21.919  0.00  0.00     0.281 C 
ATOM     21  N   UNL d   1     -45.254  13.441  22.612  0.00  0.00    -0.208 NA
ATOM     22  O   UNL d   1     -45.497  12.928  21.301  0.00  0.00    -0.265 OA
BRANCH  21  23
ATOM     23  C   UNL d   1     -46.046  13.650  22.667  0.00  0.00     0.085 A 
ATOM     24  C   UNL d   1     -46.611  13.082  22.815  0.00  0.00     0.019 A 
ATOM     25  C   UNL d   1     -47.405  13.304  22.868  0.00  0.00     0.002 A 
ATOM     26  C   UNL d   1     -47.634  14.091  22.774  0.00  0.00     0.000 A 
ATOM     27  C   UNL d   1     -47.054  14.659  22.625  0.00  0.00     0.002 A 
ATOM     28  C   UNL d   1     -48.423  14.311  22.827  0.00  0.00     0.000 C 
ATOM     29  C   UNL d   1     -46.262  14.443  22.571  0.00  0.00     0.019 A 
ENDBRANCH  21  23
ENDBRANCH   1  20
TORSDOF 7
ENDMDL
