MODEL 1
REMARK VINA RESULT:      71.2      0.000      0.000
REMARK  5 active torsions:
REMARK  status: ('A' for Active; 'I' for Inactive)
REMARK    1  A    between atoms: C_7  and  C_1 
REMARK    2  A    between atoms: C_12  and  N_2 
REMARK    3  A    between atoms: C_8  and  C_7 
REMARK    4  A    between atoms: O_25  and  C_20 
REMARK    5  A    between atoms: C_26  and  O_25 
ROOT
ATOM      1  N   UNL d   1      60.647  48.217  50.697  0.00  0.00    -0.242 N 
ATOM      2  C   UNL d   1      61.080  48.917  50.551  0.00  0.00     0.267 A 
ATOM      3  C   UNL d   1      59.919  48.436  51.024  0.00  0.00     0.267 A 
ATOM      4  C   UNL d   1      59.901  49.256  51.081  0.00  0.00     0.062 A 
ATOM      5  C   UNL d   1      60.617  49.556  50.789  0.00  0.00     0.066 A 
ATOM      6  O   UNL d   1      61.838  48.953  50.225  0.00  0.00    -0.267 OA
ATOM      7  O   UNL d   1      59.320  47.918  51.253  0.00  0.00    -0.267 OA
ENDROOT
BRANCH   4   8
ATOM      8  C   UNL d   1      59.284  49.702  51.374  0.00  0.00     0.018 C 
BRANCH   8   9
ATOM      9  C   UNL d   1      58.605  49.703  50.900  0.00  0.00     0.045 A 
ATOM     10  N   UNL d   1      58.570  49.702  50.079  0.00  0.00    -0.308 N 
ATOM     11  C   UNL d   1      57.780  49.703  49.852  0.00  0.00     0.060 A 
ATOM     12  C   UNL d   1      59.217  49.699  49.578  0.00  0.00     0.099 C 
ATOM     13  C   UNL d   1      57.421  49.703  49.115  0.00  0.00     0.017 A 
ATOM     14  C   UNL d   1      57.320  49.705  50.537  0.00  0.00    -0.002 A 
ATOM     15  C   UNL d   1      56.602  49.705  49.055  0.00  0.00     0.002 A 
ATOM     16  C   UNL d   1      56.142  49.707  49.749  0.00  0.00    -0.000 A 
ATOM     17  C   UNL d   1      56.501  49.707  50.486  0.00  0.00    -0.003 A 
ATOM     18  C   UNL d   1      57.831  49.705  51.185  0.00  0.00     0.054 A 
ATOM     19  C   UNL d   1      57.010  49.707  51.336  0.00  0.00     0.010 C 
ATOM     20  C   UNL d   1      57.552  49.706  51.971  0.00  0.00     0.010 C 
ENDBRANCH   8   9
ENDBRANCH   4   8
BRANCH   1  21
ATOM     21  C   UNL d   1      60.902  47.455  50.541  0.00  0.00     0.070 A 
ATOM     22  C   UNL d   1      61.635  47.324  50.190  0.00  0.00     0.020 A 
ATOM     23  C   UNL d   1      61.892  46.549  50.033  0.00  0.00     0.026 A 
ATOM     24  C   UNL d   1      61.412  45.907  50.229  0.00  0.00     0.100 A 
ATOM     25  C   UNL d   1      60.673  46.036  50.583  0.00  0.00     0.026 A 
ATOM     26  C   UNL d   1      60.417  46.806  50.740  0.00  0.00     0.020 A 
BRANCH  24  27
ATOM     27  O   UNL d   1      61.662  45.136  50.076  0.00  0.00    -0.305 OA
BRANCH  27  28
ATOM     28  C   UNL d   1      61.802  44.890  49.305  0.00  0.00     0.123 C 
ATOM     29  C   UNL d   1      61.427  44.221  49.007  0.00  0.00     0.029 C 
ENDBRANCH  27  28
ENDBRANCH  24  27
ENDBRANCH   1  21
TORSDOF 5
ENDMDL
MODEL 2
REMARK VINA RESULT:      74.1      0.817      1.453
REMARK  5 active torsions:
REMARK  status: ('A' for Active; 'I' for Inactive)
REMARK    1  A    between atoms: C_7  and  C_1 
REMARK    2  A    between atoms: C_12  and  N_2 
REMARK    3  A    between atoms: C_8  and  C_7 
REMARK    4  A    between atoms: O_25  and  C_20 
REMARK    5  A    between atoms: C_26  and  O_25 
ROOT
ATOM      1  N   UNL d   1      60.912  47.773  50.783  0.00  0.00    -0.242 N 
ATOM      2  C   UNL d   1      60.880  47.898  51.608  0.00  0.00     0.267 A 
ATOM      3  C   UNL d   1      60.597  48.443  50.415  0.00  0.00     0.267 A 
ATOM      4  C   UNL d   1      60.373  48.975  51.001  0.00  0.00     0.062 A 
ATOM      5  C   UNL d   1      60.547  48.642  51.740  0.00  0.00     0.066 A 
ATOM      6  O   UNL d   1      61.139  47.367  52.186  0.00  0.00    -0.267 OA
ATOM      7  O   UNL d   1      60.522  48.555  49.601  0.00  0.00    -0.267 OA
ENDROOT
BRANCH   4   8
ATOM      8  C   UNL d   1      60.037  49.708  50.879  0.00  0.00     0.018 C 
BRANCH   8   9
ATOM      9  C   UNL d   1      59.210  49.705  50.846  0.00  0.00     0.045 A 
ATOM     10  N   UNL d   1      58.685  49.703  51.479  0.00  0.00    -0.308 N 
ATOM     11  C   UNL d   1      57.918  49.701  51.181  0.00  0.00     0.060 A 
ATOM     12  C   UNL d   1      58.897  49.703  52.269  0.00  0.00     0.099 C 
ATOM     13  C   UNL d   1      57.187  49.698  51.551  0.00  0.00     0.017 A 
ATOM     14  C   UNL d   1      57.967  49.702  50.358  0.00  0.00    -0.002 A 
ATOM     15  C   UNL d   1      56.498  49.697  51.104  0.00  0.00     0.002 A 
ATOM     16  C   UNL d   1      56.551  49.698  50.273  0.00  0.00    -0.000 A 
ATOM     17  C   UNL d   1      57.283  49.700  49.903  0.00  0.00    -0.003 A 
ATOM     18  C   UNL d   1      58.765  49.705  50.151  0.00  0.00     0.054 A 
ATOM     19  C   UNL d   1      58.203  49.704  49.534  0.00  0.00     0.010 C 
ATOM     20  C   UNL d   1      59.018  49.706  49.356  0.00  0.00     0.010 C 
ENDBRANCH   8   9
ENDBRANCH   4   8
BRANCH   1  21
ATOM     21  C   UNL d   1      61.205  47.104  50.411  0.00  0.00     0.070 A 
ATOM     22  C   UNL d   1      61.857  47.157  49.912  0.00  0.00     0.020 A 
ATOM     23  C   UNL d   1      62.152  46.476  49.536  0.00  0.00     0.026 A 
ATOM     24  C   UNL d   1      61.791  45.745  49.661  0.00  0.00     0.100 A 
ATOM     25  C   UNL d   1      61.133  45.690  50.164  0.00  0.00     0.026 A 
ATOM     26  C   UNL d   1      60.840  46.365  50.538  0.00  0.00     0.020 A 
BRANCH  24  27
ATOM     27  O   UNL d   1      62.079  45.068  49.291  0.00  0.00    -0.305 OA
BRANCH  27  28
ATOM     28  C   UNL d   1      62.206  44.380  49.721  0.00  0.00     0.123 C 
ATOM     29  C   UNL d   1      62.179  43.645  49.350  0.00  0.00     0.029 C 
ENDBRANCH  27  28
ENDBRANCH  24  27
ENDBRANCH   1  21
TORSDOF 5
ENDMDL
