MODEL 1
REMARK VINA RESULT:      -2.9      0.000      0.000
REMARK  7 active torsions:
REMARK  status: ('A' for Active; 'I' for Inactive)
REMARK    1  A    between atoms: S_2  and  C_1 
REMARK    2  A    between atoms: C_6  and  S_2 
REMARK    3  A    between atoms: C_24  and  C_16 
REMARK    4  A    between atoms: C_25  and  C_24 
REMARK    5  A    between atoms: C_28  and  C_25 
REMARK    6  A    between atoms: C_26  and  C_27 
REMARK    7  A    between atoms: C_27  and  C_28 
ROOT
ATOM      1  C   UNL d   1      32.843  20.567 -22.467  0.00  0.00     0.151 A 
ATOM      2  C   UNL d   1      33.063  20.878 -23.198  0.00  0.00     0.311 A 
ATOM      3  C   UNL d   1      32.669  19.766 -22.394  0.00  0.00     0.019 A 
ATOM      4  O   UNL d   1      33.109  20.388 -23.858  0.00  0.00    -0.272 OA
ATOM      5  C   UNL d   1      32.935  19.585 -23.785  0.00  0.00     0.106 A 
ATOM      6  C   UNL d   1      32.715  19.275 -23.054  0.00  0.00     0.024 A 
ATOM      7  C   UNL d   1      32.981  19.095 -24.445  0.00  0.00     0.067 A 
ATOM      8  C   UNL d   1      32.806  18.281 -24.378  0.00  0.00     0.198 A 
ATOM      9  C   UNL d   1      32.541  18.474 -22.981  0.00  0.00     0.005 A 
ATOM     10  C   UNL d   1      32.586  17.971 -23.646  0.00  0.00     0.039 A 
ATOM     11  O   UNL d   1      33.240  21.694 -23.273  0.00  0.00    -0.258 OA
ATOM     12  O   UNL d   1      32.852  17.791 -25.038  0.00  0.00    -0.286 OA
ENDROOT
BRANCH   1  13
ATOM     13  S   UNL d   1      32.798  21.069 -21.802  0.00  0.00     0.215 S 
ATOM     14  O   UNL d   1      33.240  20.519 -21.357  0.00  0.00    -0.217 OA
ATOM     15  O   UNL d   1      32.359  21.618 -22.243  0.00  0.00    -0.217 OA
BRANCH  13  16
ATOM     16  C   UNL d   1      32.758  21.560 -21.143  0.00  0.00     0.089 A 
ATOM     17  C   UNL d   1      32.307  22.253 -21.171  0.00  0.00     0.025 A 
ATOM     18  C   UNL d   1      32.264  22.752 -20.508  0.00  0.00     0.086 A 
ATOM     19 CL   UNL d   1      31.814  23.442 -20.538  0.00  0.00    -0.080 Cl
ATOM     20  C   UNL d   1      32.672  22.554 -19.819  0.00  0.00     0.151 A 
ATOM     21  C   UNL d   1      33.120  21.864 -19.789  0.00  0.00     0.031 A 
ATOM     22  F   UNL d   1      32.629  23.049 -19.158  0.00  0.00    -0.203 F 
ATOM     23  C   UNL d   1      33.161  21.373 -20.448  0.00  0.00     0.014 A 
ENDBRANCH  13  16
ENDBRANCH   1  13
BRANCH  10  24
ATOM     24  C   UNL d   1      32.412  17.163 -23.577  0.00  0.00     0.003 C 
BRANCH  24  25
ATOM     25  C   UNL d   1      31.630  16.900 -23.589  0.00  0.00     0.000 C 
BRANCH  25  26
ATOM     26  C   UNL d   1      31.462  16.093 -23.594  0.00  0.00     0.000 C 
BRANCH  26  27
ATOM     27  C   UNL d   1      30.741  15.811 -23.307  0.00  0.00     0.000 C 
BRANCH  27  28
ATOM     28  C   UNL d   1      30.029  16.028 -23.668  0.00  0.00     0.000 C 
ATOM     29  C   UNL d   1      29.530  15.453 -23.975  0.00  0.00     0.000 C 
ENDBRANCH  27  28
ENDBRANCH  26  27
ENDBRANCH  25  26
ENDBRANCH  24  25
ENDBRANCH  10  24
TORSDOF 7
ENDMDL
MODEL 2
REMARK VINA RESULT:      -2.8      0.961      1.416
REMARK  7 active torsions:
REMARK  status: ('A' for Active; 'I' for Inactive)
REMARK    1  A    between atoms: S_2  and  C_1 
REMARK    2  A    between atoms: C_6  and  S_2 
REMARK    3  A    between atoms: C_24  and  C_16 
REMARK    4  A    between atoms: C_25  and  C_24 
REMARK    5  A    between atoms: C_28  and  C_25 
REMARK    6  A    between atoms: C_26  and  C_27 
REMARK    7  A    between atoms: C_27  and  C_28 
ROOT
ATOM      1  C   UNL d   1      32.976  21.506 -21.922  0.00  0.00     0.151 A 
ATOM      2  C   UNL d   1      33.149  21.952 -22.595  0.00  0.00     0.311 A 
ATOM      3  C   UNL d   1      32.888  20.690 -21.980  0.00  0.00     0.019 A 
ATOM      4  O   UNL d   1      33.234  21.581 -23.325  0.00  0.00    -0.272 OA
ATOM      5  C   UNL d   1      33.146  20.764 -23.382  0.00  0.00     0.106 A 
ATOM      6  C   UNL d   1      32.973  20.319 -22.710  0.00  0.00     0.024 A 
ATOM      7  C   UNL d   1      33.230  20.394 -24.112  0.00  0.00     0.067 A 
ATOM      8  C   UNL d   1      33.142  19.566 -24.177  0.00  0.00     0.198 A 
ATOM      9  C   UNL d   1      32.885  19.503 -22.767  0.00  0.00     0.005 A 
ATOM     10  C   UNL d   1      32.970  19.120 -23.504  0.00  0.00     0.039 A 
ATOM     11  O   UNL d   1      33.238  22.783 -22.537  0.00  0.00    -0.258 OA
ATOM     12  O   UNL d   1      33.227  19.195 -24.907  0.00  0.00    -0.286 OA
ENDROOT
BRANCH   1  13
ATOM     13  S   UNL d   1      32.892  21.888 -21.186  0.00  0.00     0.215 S 
ATOM     14  O   UNL d   1      33.239  22.577 -21.504  0.00  0.00    -0.217 OA
ATOM     15  O   UNL d   1      32.546  21.204 -20.867  0.00  0.00    -0.217 OA
BRANCH  13  16
ATOM     16  C   UNL d   1      32.811  22.271 -20.461  0.00  0.00     0.089 A 
ATOM     17  C   UNL d   1      33.066  21.899 -19.767  0.00  0.00     0.025 A 
ATOM     18  C   UNL d   1      32.987  22.282 -19.034  0.00  0.00     0.086 A 
ATOM     19 CL   UNL d   1      33.241  21.911 -18.344  0.00  0.00    -0.080 Cl
ATOM     20  C   UNL d   1      32.652  23.035 -18.999  0.00  0.00     0.151 A 
ATOM     21  C   UNL d   1      32.399  23.406 -19.689  0.00  0.00     0.031 A 
ATOM     22  F   UNL d   1      32.573  23.417 -18.270  0.00  0.00    -0.203 F 
ATOM     23  C   UNL d   1      32.479  23.024 -20.413  0.00  0.00     0.014 A 
ENDBRANCH  13  16
ENDBRANCH   1  13
BRANCH  10  24
ATOM     24  C   UNL d   1      32.882  18.297 -23.566  0.00  0.00     0.003 C 
BRANCH  24  25
ATOM     25  C   UNL d   1      32.187  17.930 -23.318  0.00  0.00     0.000 C 
BRANCH  25  26
ATOM     26  C   UNL d   1      32.107  17.112 -23.370  0.00  0.00     0.000 C 
BRANCH  26  27
ATOM     27  C   UNL d   1      31.360  16.762 -23.407  0.00  0.00     0.000 C 
BRANCH  27  28
ATOM     28  C   UNL d   1      31.269  15.987 -23.682  0.00  0.00     0.000 C 
ATOM     29  C   UNL d   1      30.524  15.645 -23.713  0.00  0.00     0.000 C 
ENDBRANCH  27  28
ENDBRANCH  26  27
ENDBRANCH  25  26
ENDBRANCH  24  25
ENDBRANCH  10  24
TORSDOF 7
ENDMDL
MODEL 3
REMARK VINA RESULT:      -1.8      2.682      5.487
REMARK  7 active torsions:
REMARK  status: ('A' for Active; 'I' for Inactive)
REMARK    1  A    between atoms: S_2  and  C_1 
REMARK    2  A    between atoms: C_6  and  S_2 
REMARK    3  A    between atoms: C_24  and  C_16 
REMARK    4  A    between atoms: C_25  and  C_24 
REMARK    5  A    between atoms: C_28  and  C_25 
REMARK    6  A    between atoms: C_26  and  C_27 
REMARK    7  A    between atoms: C_27  and  C_28 
ROOT
ATOM      1  C   UNL d   1      33.197  19.695 -23.433  0.00  0.00     0.151 A 
ATOM      2  C   UNL d   1      33.180  19.994 -24.202  0.00  0.00     0.311 A 
ATOM      3  C   UNL d   1      33.213  20.210 -22.791  0.00  0.00     0.019 A 
ATOM      4  O   UNL d   1      33.177  20.807 -24.329  0.00  0.00    -0.272 OA
ATOM      5  C   UNL d   1      33.193  21.322 -23.686  0.00  0.00     0.106 A 
ATOM      6  C   UNL d   1      33.211  21.024 -22.917  0.00  0.00     0.024 A 
ATOM      7  C   UNL d   1      33.191  22.136 -23.813  0.00  0.00     0.067 A 
ATOM      8  C   UNL d   1      33.206  22.663 -23.166  0.00  0.00     0.198 A 
ATOM      9  C   UNL d   1      33.226  21.538 -22.276  0.00  0.00     0.005 A 
ATOM     10  C   UNL d   1      33.224  22.364 -22.397  0.00  0.00     0.039 A 
ATOM     11  O   UNL d   1      33.164  19.471 -24.857  0.00  0.00    -0.258 OA
ATOM     12  O   UNL d   1      33.204  23.476 -23.293  0.00  0.00    -0.286 OA
ENDROOT
BRANCH   1  13
ATOM     13  S   UNL d   1      33.200  18.870 -23.312  0.00  0.00     0.215 S 
ATOM     14  O   UNL d   1      33.178  18.750 -24.137  0.00  0.00    -0.217 OA
ATOM     15  O   UNL d   1      33.221  18.988 -22.490  0.00  0.00    -0.217 OA
BRANCH  13  16
ATOM     16  C   UNL d   1      33.201  18.055 -23.199  0.00  0.00     0.089 A 
ATOM     17  C   UNL d   1      33.177  17.548 -23.852  0.00  0.00     0.025 A 
ATOM     18  C   UNL d   1      33.179  16.724 -23.743  0.00  0.00     0.086 A 
ATOM     19 CL   UNL d   1      33.154  16.221 -24.394  0.00  0.00    -0.080 Cl
ATOM     20  C   UNL d   1      33.205  16.412 -22.980  0.00  0.00     0.151 A 
ATOM     21  C   UNL d   1      33.230  16.916 -22.329  0.00  0.00     0.031 A 
ATOM     22  F   UNL d   1      33.207  15.592 -22.870  0.00  0.00    -0.203 F 
ATOM     23  C   UNL d   1      33.228  17.731 -22.441  0.00  0.00     0.014 A 
ENDBRANCH  13  16
ENDBRANCH   1  13
BRANCH  10  24
ATOM     24  C   UNL d   1      33.239  22.886 -21.752  0.00  0.00     0.003 C 
BRANCH  24  25
ATOM     25  C   UNL d   1      33.182  22.601 -20.980  0.00  0.00     0.000 C 
BRANCH  25  26
ATOM     26  C   UNL d   1      33.064  23.121 -20.353  0.00  0.00     0.000 C 
BRANCH  26  27
ATOM     27  C   UNL d   1      33.082  22.851 -19.573  0.00  0.00     0.000 C 
BRANCH  27  28
ATOM     28  C   UNL d   1      33.209  23.376 -18.946  0.00  0.00     0.000 C 
ATOM     29  C   UNL d   1      32.636  23.475 -18.366  0.00  0.00     0.000 C 
ENDBRANCH  27  28
ENDBRANCH  26  27
ENDBRANCH  25  26
ENDBRANCH  24  25
ENDBRANCH  10  24
TORSDOF 7
ENDMDL
MODEL 4
REMARK VINA RESULT:      -1.5      1.048      1.721
REMARK  7 active torsions:
REMARK  status: ('A' for Active; 'I' for Inactive)
REMARK    1  A    between atoms: S_2  and  C_1 
REMARK    2  A    between atoms: C_6  and  S_2 
REMARK    3  A    between atoms: C_24  and  C_16 
REMARK    4  A    between atoms: C_25  and  C_24 
REMARK    5  A    between atoms: C_28  and  C_25 
REMARK    6  A    between atoms: C_26  and  C_27 
REMARK    7  A    between atoms: C_27  and  C_28 
ROOT
ATOM      1  C   UNL d   1      32.630  19.190 -23.148  0.00  0.00     0.151 A 
ATOM      2  C   UNL d   1      32.874  19.280 -23.931  0.00  0.00     0.311 A 
ATOM      3  C   UNL d   1      32.270  18.491 -22.906  0.00  0.00     0.019 A 
ATOM      4  O   UNL d   1      32.759  18.670 -24.472  0.00  0.00    -0.272 OA
ATOM      5  C   UNL d   1      32.398  17.970 -24.229  0.00  0.00     0.106 A 
ATOM      6  C   UNL d   1      32.154  17.880 -23.446  0.00  0.00     0.024 A 
ATOM      7  C   UNL d   1      32.283  17.360 -24.770  0.00  0.00     0.067 A 
ATOM      8  C   UNL d   1      31.919  16.648 -24.530  0.00  0.00     0.198 A 
ATOM      9  C   UNL d   1      31.795  17.181 -23.204  0.00  0.00     0.005 A 
ATOM     10  C   UNL d   1      31.674  16.559 -23.747  0.00  0.00     0.039 A 
ATOM     11  O   UNL d   1      33.241  19.992 -24.180  0.00  0.00    -0.258 OA
ATOM     12  O   UNL d   1      31.803  16.038 -25.070  0.00  0.00    -0.286 OA
ENDROOT
BRANCH   1  13
ATOM     13  S   UNL d   1      32.750  19.812 -22.606  0.00  0.00     0.215 S 
ATOM     14  O   UNL d   1      32.452  20.356 -23.165  0.00  0.00    -0.217 OA
ATOM     15  O   UNL d   1      33.047  19.273 -22.049  0.00  0.00    -0.217 OA
BRANCH  13  16
ATOM     16  C   UNL d   1      32.866  20.430 -22.075  0.00  0.00     0.089 A 
ATOM     17  C   UNL d   1      32.789  21.214 -22.331  0.00  0.00     0.025 A 
ATOM     18  C   UNL d   1      32.905  21.841 -21.799  0.00  0.00     0.086 A 
ATOM     19 CL   UNL d   1      32.829  22.620 -22.055  0.00  0.00    -0.080 Cl
ATOM     20  C   UNL d   1      33.098  21.681 -21.012  0.00  0.00     0.151 A 
ATOM     21  C   UNL d   1      33.175  20.902 -20.757  0.00  0.00     0.031 A 
ATOM     22  F   UNL d   1      33.214  22.305 -20.482  0.00  0.00    -0.203 F 
ATOM     23  C   UNL d   1      33.059  20.284 -21.287  0.00  0.00     0.014 A 
ENDBRANCH  13  16
ENDBRANCH   1  13
BRANCH  10  24
ATOM     24  C   UNL d   1      31.312  15.852 -23.506  0.00  0.00     0.003 C 
BRANCH  24  25
ATOM     25  C   UNL d   1      30.798  15.843 -22.861  0.00  0.00     0.000 C 
BRANCH  25  26
ATOM     26  C   UNL d   1      30.074  15.453 -22.912  0.00  0.00     0.000 C 
BRANCH  26  27
ATOM     27  C   UNL d   1      29.370  15.848 -22.741  0.00  0.00     0.000 C 
BRANCH  27  28
ATOM     28  C   UNL d   1      28.666  15.646 -23.126  0.00  0.00     0.000 C 
ATOM     29  C   UNL d   1      27.944  15.891 -22.824  0.00  0.00     0.000 C 
ENDBRANCH  27  28
ENDBRANCH  26  27
ENDBRANCH  25  26
ENDBRANCH  24  25
ENDBRANCH  10  24
TORSDOF 7
ENDMDL
