MODEL 1
REMARK VINA RESULT:      44.8      0.000      0.000
REMARK  1 active torsions:
REMARK  status: ('A' for Active; 'I' for Inactive)
REMARK    1  A    between atoms: C_7  and  C_5 
ROOT
ATOM      1  C   UNL d   1      60.898  49.686  51.539  0.00  0.00     0.110 A 
ATOM      2  C   UNL d   1      61.677  49.693  52.628  0.00  0.00     0.332 A 
ATOM      3  C   UNL d   1      61.684  49.695  51.295  0.00  0.00     0.060 A 
ATOM      4  S   UNL d   1      62.166  49.699  51.963  0.00  0.00    -0.018 SA
ATOM      5  C   UNL d   1      60.283  49.680  50.989  0.00  0.00     0.027 A 
ATOM      6  O   UNL d   1      60.892  49.684  52.367  0.00  0.00    -0.268 OA
ATOM      7  C   UNL d   1      61.854  49.699  50.474  0.00  0.00     0.051 A 
ATOM      8  C   UNL d   1      60.453  49.684  50.182  0.00  0.00     0.044 A 
ATOM      9  O   UNL d   1      61.922  49.694  53.418  0.00  0.00    -0.251 OA
ATOM     10  C   UNL d   1      61.239  49.693  49.924  0.00  0.00     0.196 A 
ATOM     11  O   UNL d   1      61.408  49.696  49.113  0.00  0.00    -0.286 OA
ENDROOT
BRANCH   5  12
ATOM     12  C   UNL d   1      59.497  49.671  51.246  0.00  0.00     0.004 A 
ATOM     13  C   UNL d   1      58.883  49.662  50.696  0.00  0.00     0.030 A 
ATOM     14  C   UNL d   1      58.097  49.653  50.954  0.00  0.00     0.140 A 
ATOM     15  F   UNL d   1      57.477  49.645  50.405  0.00  0.00    -0.204 F 
ATOM     16  C   UNL d   1      57.927  49.653  51.761  0.00  0.00     0.030 A 
ATOM     17  C   UNL d   1      58.541  49.661  52.311  0.00  0.00     0.002 A 
ATOM     18  C   UNL d   1      59.327  49.671  52.053  0.00  0.00     0.000 A 
ENDBRANCH   5  12
TORSDOF 1
ENDMDL
MODEL 2
REMARK VINA RESULT:      47.4      1.773      2.933
REMARK  1 active torsions:
REMARK  status: ('A' for Active; 'I' for Inactive)
REMARK    1  A    between atoms: C_7  and  C_5 
ROOT
ATOM      1  C   UNL d   1      59.150  49.706  51.971  0.00  0.00     0.110 A 
ATOM      2  C   UNL d   1      59.212  49.705  53.309  0.00  0.00     0.332 A 
ATOM      3  C   UNL d   1      58.381  49.706  52.266  0.00  0.00     0.060 A 
ATOM      4  S   UNL d   1      58.416  49.705  53.089  0.00  0.00    -0.018 SA
ATOM      5  C   UNL d   1      59.293  49.707  51.159  0.00  0.00     0.027 A 
ATOM      6  O   UNL d   1      59.666  49.706  52.619  0.00  0.00    -0.268 OA
ATOM      7  C   UNL d   1      57.740  49.707  51.726  0.00  0.00     0.051 A 
ATOM      8  C   UNL d   1      58.660  49.708  50.630  0.00  0.00     0.044 A 
ATOM      9  O   UNL d   1      59.508  49.704  54.082  0.00  0.00    -0.251 OA
ATOM     10  C   UNL d   1      57.883  49.707  50.914  0.00  0.00     0.196 A 
ATOM     11  O   UNL d   1      57.249  49.708  50.381  0.00  0.00    -0.286 OA
ENDROOT
BRANCH   5  12
ATOM     12  C   UNL d   1      60.069  49.707  50.875  0.00  0.00     0.004 A 
ATOM     13  C   UNL d   1      60.212  49.708  50.063  0.00  0.00     0.030 A 
ATOM     14  C   UNL d   1      60.989  49.708  49.779  0.00  0.00     0.140 A 
ATOM     15  F   UNL d   1      61.137  49.708  48.965  0.00  0.00    -0.204 F 
ATOM     16  C   UNL d   1      61.622  49.708  50.308  0.00  0.00     0.030 A 
ATOM     17  C   UNL d   1      61.479  49.708  51.120  0.00  0.00     0.002 A 
ATOM     18  C   UNL d   1      60.702  49.707  51.404  0.00  0.00     0.000 A 
ENDBRANCH   5  12
TORSDOF 1
ENDMDL
