MODEL 1
REMARK VINA RESULT:      71.9      0.000      0.000
REMARK  8 active torsions:
REMARK  status: ('A' for Active; 'I' for Inactive)
REMARK    1  A    between atoms: C_7  and  C_3 
REMARK    2  A    between atoms: C_9  and  C_4 
REMARK    3  A    between atoms: O_13  and  C_7 
REMARK    4  A    between atoms: O_15  and  C_12 
REMARK    5  A    between atoms: C_26  and  O_13 
REMARK    6  A    between atoms: O_25  and  C_14 
REMARK    7  A    between atoms: C_16  and  O_15 
REMARK    8  A    between atoms: C_28  and  O_25 
ROOT
ATOM      1  N   UNL d   1      45.411 -14.985  37.085  0.00  0.00    -0.254 N 
ATOM      2  C   UNL d   1      46.199 -14.901  37.316  0.00  0.00     0.182 A 
ATOM      3  C   UNL d   1      45.319 -16.196  37.829  0.00  0.00     0.097 A 
ATOM      4  C   UNL d   1      44.970 -15.631  37.340  0.00  0.00     0.075 A 
ATOM      5  N   UNL d   1      46.545 -15.467  37.804  0.00  0.00    -0.222 NA
ATOM      6  C   UNL d   1      46.106 -16.116  38.063  0.00  0.00     0.090 A 
ATOM      7  C   UNL d   1      45.059 -14.420  36.595  0.00  0.00     0.267 A 
ATOM      8  S   UNL d   1      46.634 -14.260  37.061  0.00  0.00    -0.049 SA
ATOM      9  C   UNL d   1      45.508 -13.773  36.342  0.00  0.00     0.068 A 
ATOM     10  O   UNL d   1      44.272 -14.500  36.361  0.00  0.00    -0.267 OA
ATOM     11  C   UNL d   1      46.296 -13.693  36.575  0.00  0.00     0.043 A 
ATOM     12  C   UNL d   1      46.451 -16.679  38.549  0.00  0.00     0.021 C 
ENDROOT
BRANCH   4  13
ATOM     13  C   UNL d   1      44.182 -15.711  37.107  0.00  0.00     0.019 A 
ATOM     14  C   UNL d   1      43.615 -15.194  37.400  0.00  0.00     0.028 A 
ATOM     15  C   UNL d   1      42.828 -15.274  37.167  0.00  0.00     0.123 A 
ATOM     16  C   UNL d   1      42.610 -15.877  36.636  0.00  0.00     0.126 A 
ATOM     17  C   UNL d   1      43.186 -16.397  36.343  0.00  0.00     0.027 A 
ATOM     18  C   UNL d   1      43.973 -16.313  36.579  0.00  0.00     0.004 A 
BRANCH  15  19
ATOM     19  O   UNL d   1      42.257 -14.758  37.458  0.00  0.00    -0.303 OA
BRANCH  19  20
ATOM     20  C   UNL d   1      42.475 -14.132  37.949  0.00  0.00     0.123 C 
ATOM     21  C   UNL d   1      41.948 -13.847  38.513  0.00  0.00     0.029 C 
ENDBRANCH  19  20
ENDBRANCH  15  19
BRANCH  16  22
ATOM     22  O   UNL d   1      41.824 -15.960  36.400  0.00  0.00    -0.271 OA
BRANCH  22  23
ATOM     23  C   UNL d   1      41.379 -16.597  36.669  0.00  0.00     0.300 C 
ATOM     24  O   UNL d   1      41.702 -17.120  37.218  0.00  0.00    -0.259 OA
ATOM     25  C   UNL d   1      40.613 -16.712  36.391  0.00  0.00     0.074 C 
ENDBRANCH  22  23
ENDBRANCH  16  22
ENDBRANCH   4  13
BRANCH   3  26
ATOM     26  C   UNL d   1      44.876 -16.843  38.084  0.00  0.00     0.303 C 
ATOM     27  O   UNL d   1      44.762 -17.494  37.592  0.00  0.00    -0.259 OA
BRANCH  26  28
ATOM     28  O   UNL d   1      44.546 -16.833  38.843  0.00  0.00    -0.273 OA
BRANCH  28  29
ATOM     29  C   UNL d   1      44.843 -17.337  39.429  0.00  0.00     0.103 C 
ATOM     30  C   UNL d   1      45.136 -18.081  39.232  0.00  0.00     0.027 C 
ATOM     31  C   UNL d   1      44.847 -17.092  40.217  0.00  0.00     0.027 C 
ENDBRANCH  28  29
ENDBRANCH  26  28
ENDBRANCH   3  26
TORSDOF 8
ENDMDL
MODEL 2
REMARK VINA RESULT:      73.0      5.676      7.576
REMARK  8 active torsions:
REMARK  status: ('A' for Active; 'I' for Inactive)
REMARK    1  A    between atoms: C_7  and  C_3 
REMARK    2  A    between atoms: C_9  and  C_4 
REMARK    3  A    between atoms: O_13  and  C_7 
REMARK    4  A    between atoms: O_15  and  C_12 
REMARK    5  A    between atoms: C_26  and  O_13 
REMARK    6  A    between atoms: O_25  and  C_14 
REMARK    7  A    between atoms: C_16  and  O_15 
REMARK    8  A    between atoms: C_28  and  O_25 
ROOT
ATOM      1  N   UNL d   1      44.196 -14.924  44.507  0.00  0.00    -0.254 N 
ATOM      2  C   UNL d   1      43.782 -14.211  44.525  0.00  0.00     0.182 A 
ATOM      3  C   UNL d   1      45.367 -14.236  44.077  0.00  0.00     0.097 A 
ATOM      4  C   UNL d   1      44.989 -14.939  44.283  0.00  0.00     0.075 A 
ATOM      5  N   UNL d   1      44.163 -13.511  44.318  0.00  0.00    -0.222 NA
ATOM      6  C   UNL d   1      44.956 -13.521  44.093  0.00  0.00     0.090 A 
ATOM      7  C   UNL d   1      43.819 -15.630  44.714  0.00  0.00     0.267 A 
ATOM      8  S   UNL d   1      42.997 -14.200  44.747  0.00  0.00    -0.049 SA
ATOM      9  C   UNL d   1      43.023 -15.608  44.938  0.00  0.00     0.068 A 
ATOM     10  O   UNL d   1      44.230 -16.346  44.697  0.00  0.00    -0.267 OA
ATOM     11  C   UNL d   1      42.612 -14.893  44.955  0.00  0.00     0.043 A 
ATOM     12  C   UNL d   1      45.335 -12.823  43.887  0.00  0.00     0.021 C 
ENDROOT
BRANCH   4  13
ATOM     13  C   UNL d   1      45.399 -15.655  44.267  0.00  0.00     0.019 A 
ATOM     14  C   UNL d   1      45.423 -16.096  43.574  0.00  0.00     0.028 A 
ATOM     15  C   UNL d   1      45.834 -16.811  43.557  0.00  0.00     0.123 A 
ATOM     16  C   UNL d   1      46.223 -17.084  44.241  0.00  0.00     0.126 A 
ATOM     17  C   UNL d   1      46.196 -16.635  44.938  0.00  0.00     0.027 A 
ATOM     18  C   UNL d   1      45.784 -15.920  44.950  0.00  0.00     0.004 A 
BRANCH  15  19
ATOM     19  O   UNL d   1      45.860 -17.256  42.866  0.00  0.00    -0.303 OA
BRANCH  19  20
ATOM     20  C   UNL d   1      46.137 -16.918  42.166  0.00  0.00     0.123 C 
ATOM     21  C   UNL d   1      46.172 -17.367  41.477  0.00  0.00     0.029 C 
ENDBRANCH  19  20
ENDBRANCH  15  19
BRANCH  16  22
ATOM     22  O   UNL d   1      46.635 -17.799  44.228  0.00  0.00    -0.271 OA
BRANCH  22  23
ATOM     23  C   UNL d   1      46.224 -18.510  44.222  0.00  0.00     0.300 C 
ATOM     24  O   UNL d   1      45.463 -18.541  43.906  0.00  0.00    -0.259 OA
ATOM     25  C   UNL d   1      46.570 -19.190  44.530  0.00  0.00     0.074 C 
ENDBRANCH  22  23
ENDBRANCH  16  22
ENDBRANCH   4  13
BRANCH   3  26
ATOM     26  C   UNL d   1      46.160 -14.252  43.853  0.00  0.00     0.303 C 
ATOM     27  O   UNL d   1      46.646 -14.882  44.071  0.00  0.00    -0.259 OA
BRANCH  26  28
ATOM     28  O   UNL d   1      46.467 -13.628  43.405  0.00  0.00    -0.273 OA
BRANCH  28  29
ATOM     29  C   UNL d   1      46.192 -13.498  42.634  0.00  0.00     0.103 C 
ATOM     30  C   UNL d   1      46.639 -13.737  41.985  0.00  0.00     0.027 C 
ATOM     31  C   UNL d   1      45.465 -13.127  42.516  0.00  0.00     0.027 C 
ENDBRANCH  28  29
ENDBRANCH  26  28
ENDBRANCH   3  26
TORSDOF 8
ENDMDL
