MODEL 1
REMARK VINA RESULT:      -7.0      0.000      0.000
REMARK  8 active torsions:
REMARK  status: ('A' for Active; 'I' for Inactive)
REMARK    1  A    between atoms: S_3  and  C_1 
REMARK    2  A    between atoms: C_7  and  C_2 
REMARK    3  A    between atoms: N_9  and  S_3 
REMARK    4  A    between atoms: C_8  and  C_6 
REMARK    5  A    between atoms: O_21  and  C_7 
REMARK    6  A    between atoms: O_22  and  C_8 
REMARK    7  A    between atoms: C_14  and  N_9 
REMARK    8  A    between atoms: C_10  and  C_14 
ROOT
ATOM      1  C   UNL d   1      52.661  33.118  53.622  0.00  0.00     0.140 A 
ATOM      2  C   UNL d   1      52.996  32.379  53.510  0.00  0.00     0.082 A 
ATOM      3  C   UNL d   1      53.673  32.325  53.985  0.00  0.00     0.018 A 
ATOM      4  S   UNL d   1      53.134  33.512  54.164  0.00  0.00    -0.069 SA
ATOM      5  C   UNL d   1      53.743  33.017  54.373  0.00  0.00     0.093 A 
ATOM      6  C   UNL d   1      54.183  31.701  54.059  0.00  0.00     0.001 C 
ENDROOT
BRANCH   1   7
ATOM      7  S   UNL d   1      51.986  33.311  53.216  0.00  0.00     0.291 S 
ATOM      8  O   UNL d   1      52.451  33.621  52.591  0.00  0.00    -0.198 OA
ATOM      9  O   UNL d   1      51.526  33.018  53.806  0.00  0.00    -0.198 OA
BRANCH   7  10
ATOM     10  N   UNL d   1      51.307  33.512  52.793  0.00  0.00    -0.156 NA
BRANCH  10  11
ATOM     11  C   UNL d   1      50.947  34.250  52.896  0.00  0.00     0.119 C 
BRANCH  11  12
ATOM     12  C   UNL d   1      50.246  34.424  52.498  0.00  0.00     0.049 A 
ATOM     13  S   UNL d   1      49.573  34.812  52.790  0.00  0.00    -0.085 SA
ATOM     14  C   UNL d   1      49.016  34.859  52.196  0.00  0.00     0.035 A 
ATOM     15  C   UNL d   1      49.332  34.501  51.523  0.00  0.00     0.007 A 
ATOM     16  C   UNL d   1      50.093  34.234  51.714  0.00  0.00     0.009 A 
ENDBRANCH  11  12
ENDBRANCH  10  11
ENDBRANCH   7  10
ENDBRANCH   1   7
BRANCH   2  17
ATOM     17  C   UNL d   1      52.719  31.773  53.010  0.00  0.00     0.297 C 
ATOM     18  O   UNL d   1      52.833  31.827  52.198  0.00  0.00    -0.259 OA
BRANCH  17  19
ATOM     19  O   UNL d   1      52.331  31.120  53.340  0.00  0.00    -0.296 OA
ATOM     20  C   UNL d   1      52.346  30.398  52.958  0.00  0.00     0.185 C 
ENDBRANCH  17  19
ENDBRANCH   2  17
BRANCH   5  21
ATOM     21  C   UNL d   1      54.366  33.195  54.922  0.00  0.00     0.302 C 
ATOM     22  O   UNL d   1      54.319  32.885  55.671  0.00  0.00    -0.259 OA
BRANCH  21  23
ATOM     23  O   UNL d   1      55.003  33.675  54.692  0.00  0.00    -0.295 OA
ATOM     24  C   UNL d   1      55.493  34.024  55.256  0.00  0.00     0.185 C 
ENDBRANCH  21  23
ENDBRANCH   5  21
TORSDOF 8
ENDMDL
MODEL 2
REMARK VINA RESULT:      -6.8      1.267      2.497
REMARK  8 active torsions:
REMARK  status: ('A' for Active; 'I' for Inactive)
REMARK    1  A    between atoms: S_3  and  C_1 
REMARK    2  A    between atoms: C_7  and  C_2 
REMARK    3  A    between atoms: N_9  and  S_3 
REMARK    4  A    between atoms: C_8  and  C_6 
REMARK    5  A    between atoms: O_21  and  C_7 
REMARK    6  A    between atoms: O_22  and  C_8 
REMARK    7  A    between atoms: C_14  and  N_9 
REMARK    8  A    between atoms: C_10  and  C_14 
ROOT
ATOM      1  C   UNL d   1      51.817  33.450  53.013  0.00  0.00     0.140 A 
ATOM      2  C   UNL d   1      52.526  33.750  53.288  0.00  0.00     0.082 A 
ATOM      3  C   UNL d   1      53.054  33.120  53.390  0.00  0.00     0.018 A 
ATOM      4  S   UNL d   1      51.913  32.638  52.947  0.00  0.00    -0.069 SA
ATOM      5  C   UNL d   1      52.669  32.455  53.180  0.00  0.00     0.093 A 
ATOM      6  C   UNL d   1      53.820  33.145  53.651  0.00  0.00     0.001 C 
ENDROOT
BRANCH   1   7
ATOM      7  S   UNL d   1      51.203  33.959  52.867  0.00  0.00     0.291 S 
ATOM      8  O   UNL d   1      50.874  33.778  53.617  0.00  0.00    -0.198 OA
ATOM      9  O   UNL d   1      51.504  34.144  52.145  0.00  0.00    -0.198 OA
BRANCH   7  10
ATOM     10  N   UNL d   1      50.573  34.474  52.731  0.00  0.00    -0.156 NA
BRANCH  10  11
ATOM     11  C   UNL d   1      49.834  34.187  52.492  0.00  0.00     0.119 C 
BRANCH  11  12
ATOM     12  C   UNL d   1      49.224  34.715  52.320  0.00  0.00     0.049 A 
ATOM     13  S   UNL d   1      48.892  35.293  52.814  0.00  0.00    -0.085 SA
ATOM     14  C   UNL d   1      48.304  35.683  52.406  0.00  0.00     0.035 A 
ATOM     15  C   UNL d   1      48.258  35.355  51.650  0.00  0.00     0.007 A 
ATOM     16  C   UNL d   1      48.830  34.756  51.601  0.00  0.00     0.009 A 
ENDBRANCH  11  12
ENDBRANCH  10  11
ENDBRANCH   7  10
ENDBRANCH   1   7
BRANCH   2  17
ATOM     17  C   UNL d   1      52.707  34.548  53.445  0.00  0.00     0.297 C 
ATOM     18  O   UNL d   1      52.918  35.050  52.830  0.00  0.00    -0.259 OA
BRANCH  17  19
ATOM     19  O   UNL d   1      52.671  34.827  54.224  0.00  0.00    -0.296 OA
ATOM     20  C   UNL d   1      53.035  35.531  54.425  0.00  0.00     0.185 C 
ENDBRANCH  17  19
ENDBRANCH   2  17
BRANCH   5  21
ATOM     21  C   UNL d   1      53.011  31.678  53.202  0.00  0.00     0.302 C 
ATOM     22  O   UNL d   1      53.516  31.497  53.812  0.00  0.00    -0.259 OA
BRANCH  21  23
ATOM     23  O   UNL d   1      52.830  31.122  52.613  0.00  0.00    -0.295 OA
ATOM     24  C   UNL d   1      52.978  30.319  52.730  0.00  0.00     0.185 C 
ENDBRANCH  21  23
ENDBRANCH   5  21
TORSDOF 8
ENDMDL
MODEL 3
REMARK VINA RESULT:      -6.7      1.696      4.325
REMARK  8 active torsions:
REMARK  status: ('A' for Active; 'I' for Inactive)
REMARK    1  A    between atoms: S_3  and  C_1 
REMARK    2  A    between atoms: C_7  and  C_2 
REMARK    3  A    between atoms: N_9  and  S_3 
REMARK    4  A    between atoms: C_8  and  C_6 
REMARK    5  A    between atoms: O_21  and  C_7 
REMARK    6  A    between atoms: O_22  and  C_8 
REMARK    7  A    between atoms: C_14  and  N_9 
REMARK    8  A    between atoms: C_10  and  C_14 
ROOT
ATOM      1  C   UNL d   1      52.730  32.575  53.278  0.00  0.00     0.140 A 
ATOM      2  C   UNL d   1      53.155  33.254  53.442  0.00  0.00     0.082 A 
ATOM      3  C   UNL d   1      52.708  33.907  53.195  0.00  0.00     0.018 A 
ATOM      4  S   UNL d   1      52.025  32.814  52.932  0.00  0.00    -0.069 SA
ATOM      5  C   UNL d   1      52.029  33.624  52.890  0.00  0.00     0.093 A 
ATOM      6  C   UNL d   1      52.900  34.692  53.243  0.00  0.00     0.001 C 
ENDROOT
BRANCH   1   7
ATOM      7  S   UNL d   1      53.049  31.854  53.468  0.00  0.00     0.291 S 
ATOM      8  O   UNL d   1      53.298  31.754  52.672  0.00  0.00    -0.198 OA
ATOM      9  O   UNL d   1      52.818  31.933  54.233  0.00  0.00    -0.198 OA
BRANCH   7  10
ATOM     10  N   UNL d   1      53.379  31.119  53.648  0.00  0.00    -0.156 NA
BRANCH  10  11
ATOM     11  C   UNL d   1      52.926  30.428  53.597  0.00  0.00     0.119 C 
BRANCH  11  12
ATOM     12  C   UNL d   1      53.182  29.740  53.975  0.00  0.00     0.049 A 
ATOM     13  S   UNL d   1      52.955  29.450  54.718  0.00  0.00    -0.085 SA
ATOM     14  C   UNL d   1      53.354  28.753  54.861  0.00  0.00     0.035 A 
ATOM     15  C   UNL d   1      53.835  28.596  54.210  0.00  0.00     0.007 A 
ATOM     16  C   UNL d   1      53.726  29.210  53.664  0.00  0.00     0.009 A 
ENDBRANCH  11  12
ENDBRANCH  10  11
ENDBRANCH   7  10
ENDBRANCH   1   7
BRANCH   2  17
ATOM     17  C   UNL d   1      53.908  33.303  53.795  0.00  0.00     0.297 C 
ATOM     18  O   UNL d   1      54.582  33.164  53.346  0.00  0.00    -0.259 OA
BRANCH  17  19
ATOM     19  O   UNL d   1      53.968  33.492  54.599  0.00  0.00    -0.296 OA
ATOM     20  C   UNL d   1      54.695  33.673  54.924  0.00  0.00     0.185 C 
ENDBRANCH  17  19
ENDBRANCH   2  17
BRANCH   5  21
ATOM     21  C   UNL d   1      51.409  34.111  52.571  0.00  0.00     0.302 C 
ATOM     22  O   UNL d   1      51.497  34.398  51.817  0.00  0.00    -0.259 OA
BRANCH  21  23
ATOM     23  O   UNL d   1      50.736  34.284  53.024  0.00  0.00    -0.295 OA
ATOM     24  C   UNL d   1      50.042  34.547  52.664  0.00  0.00     0.185 C 
ENDBRANCH  21  23
ENDBRANCH   5  21
TORSDOF 8
ENDMDL
MODEL 4
REMARK VINA RESULT:      -5.0      1.726      3.614
REMARK  8 active torsions:
REMARK  status: ('A' for Active; 'I' for Inactive)
REMARK    1  A    between atoms: S_3  and  C_1 
REMARK    2  A    between atoms: C_7  and  C_2 
REMARK    3  A    between atoms: N_9  and  S_3 
REMARK    4  A    between atoms: C_8  and  C_6 
REMARK    5  A    between atoms: O_21  and  C_7 
REMARK    6  A    between atoms: O_22  and  C_8 
REMARK    7  A    between atoms: C_14  and  N_9 
REMARK    8  A    between atoms: C_10  and  C_14 
ROOT
ATOM      1  C   UNL d   1      52.728  33.497  53.695  0.00  0.00     0.140 A 
ATOM      2  C   UNL d   1      52.105  33.963  53.443  0.00  0.00     0.082 A 
ATOM      3  C   UNL d   1      52.187  34.714  53.784  0.00  0.00     0.018 A 
ATOM      4  S   UNL d   1      53.189  33.963  54.188  0.00  0.00    -0.069 SA
ATOM      5  C   UNL d   1      52.846  34.698  54.231  0.00  0.00     0.093 A 
ATOM      6  C   UNL d   1      51.705  35.359  53.698  0.00  0.00     0.001 C 
ENDROOT
BRANCH   1   7
ATOM      7  S   UNL d   1      52.776  32.729  53.436  0.00  0.00     0.291 S 
ATOM      8  O   UNL d   1      53.338  32.959  52.857  0.00  0.00    -0.198 OA
ATOM      9  O   UNL d   1      52.239  32.492  53.985  0.00  0.00    -0.198 OA
BRANCH   7  10
ATOM     10  N   UNL d   1      52.834  31.953  53.164  0.00  0.00    -0.156 NA
BRANCH  10  11
ATOM     11  C   UNL d   1      53.380  31.427  53.495  0.00  0.00     0.119 C 
BRANCH  11  12
ATOM     12  C   UNL d   1      53.254  30.613  53.439  0.00  0.00     0.049 A 
ATOM     13  S   UNL d   1      52.853  30.198  52.843  0.00  0.00    -0.085 SA
ATOM     14  C   UNL d   1      52.867  29.402  53.022  0.00  0.00     0.035 A 
ATOM     15  C   UNL d   1      53.278  29.307  53.731  0.00  0.00     0.007 A 
ATOM     16  C   UNL d   1      53.515  30.060  53.986  0.00  0.00     0.009 A 
ENDBRANCH  11  12
ENDBRANCH  10  11
ENDBRANCH   7  10
ENDBRANCH   1   7
BRANCH   2  17
ATOM     17  C   UNL d   1      51.485  33.741  52.933  0.00  0.00     0.297 C 
ATOM     18  O   UNL d   1      50.846  33.313  53.224  0.00  0.00    -0.259 OA
BRANCH  17  19
ATOM     19  O   UNL d   1      51.520  33.956  52.134  0.00  0.00    -0.296 OA
ATOM     20  C   UNL d   1      50.831  34.034  51.700  0.00  0.00     0.185 C 
ENDBRANCH  17  19
ENDBRANCH   2  17
BRANCH   5  21
ATOM     21  C   UNL d   1      53.136  35.358  54.680  0.00  0.00     0.302 C 
ATOM     22  O   UNL d   1      53.171  35.287  55.488  0.00  0.00    -0.259 OA
BRANCH  21  23
ATOM     23  O   UNL d   1      53.374  36.054  54.297  0.00  0.00    -0.295 OA
ATOM     24  C   UNL d   1      53.626  36.709  54.730  0.00  0.00     0.185 C 
ENDBRANCH  21  23
ENDBRANCH   5  21
TORSDOF 8
ENDMDL
