MODEL 1
REMARK VINA RESULT:      -5.9      0.000      0.000
REMARK  4 active torsions:
REMARK  status: ('A' for Active; 'I' for Inactive)
REMARK    1  A    between atoms: S_2  and  C_1 
REMARK    2  A    between atoms: C_10  and  S_2 
REMARK    3  A    between atoms: N_7  and  C_5 
REMARK    4  A    between atoms: C_11  and  N_7 
ROOT
ATOM      1  C   UNL d   1      57.730  -0.281  30.791  0.00  0.00     0.187 A 
ATOM      2  N   UNL d   1      57.700  -0.741  30.111  0.00  0.00    -0.208 NA
ATOM      3  C   UNL d   1      58.431   0.155  30.782  0.00  0.00     0.118 A 
ATOM      4  C   UNL d   1      58.383  -0.590  29.680  0.00  0.00     0.196 A 
ATOM      5  S   UNL d   1      58.828  -0.045  30.088  0.00  0.00    -0.035 SA
ATOM      6 CL   UNL d   1      58.682   0.682  31.351  0.00  0.00    -0.073 Cl
ENDROOT
BRANCH   1   7
ATOM      7  S   UNL d   1      57.157  -0.257  31.386  0.00  0.00     0.228 S 
ATOM      8  O   UNL d   1      57.428  -1.000  31.606  0.00  0.00    -0.216 OA
ATOM      9  O   UNL d   1      56.892   0.487  31.159  0.00  0.00    -0.216 OA
BRANCH   7  10
ATOM     10  C   UNL d   1      56.613  -0.309  32.003  0.00  0.00     0.089 A 
ATOM     11  C   UNL d   1      56.403  -1.053  32.311  0.00  0.00     0.011 A 
ATOM     12  C   UNL d   1      55.853  -1.101  32.934  0.00  0.00     0.001 A 
ATOM     13  C   UNL d   1      55.516  -0.415  33.248  0.00  0.00     0.000 A 
ATOM     14  C   UNL d   1      55.732   0.330  32.934  0.00  0.00     0.001 A 
ATOM     15  C   UNL d   1      56.276   0.381  32.316  0.00  0.00     0.011 A 
ENDBRANCH   7  10
ENDBRANCH   1   7
BRANCH   4  16
ATOM     16  N   UNL d   1      58.578  -0.934  28.958  0.00  0.00    -0.221 NA
BRANCH  16  17
ATOM     17  C   UNL d   1      58.967  -1.658  28.942  0.00  0.00     0.087 A 
ATOM     18  C   UNL d   1      58.537  -2.347  28.890  0.00  0.00     0.061 A 
ATOM     19  C   UNL d   1      58.920  -3.072  28.875  0.00  0.00     0.197 A 
ATOM     20  O   UNL d   1      58.483  -3.765  28.822  0.00  0.00    -0.286 OA
ATOM     21  C   UNL d   1      59.744  -3.103  28.912  0.00  0.00     0.042 A 
ATOM     22  C   UNL d   1      60.176  -2.402  28.964  0.00  0.00     0.005 A 
ATOM     23  C   UNL d   1      59.792  -1.679  28.980  0.00  0.00     0.019 A 
ENDBRANCH  16  17
ENDBRANCH   4  16
TORSDOF 4
ENDMDL
MODEL 2
REMARK VINA RESULT:      -5.0      1.243      1.583
REMARK  4 active torsions:
REMARK  status: ('A' for Active; 'I' for Inactive)
REMARK    1  A    between atoms: S_2  and  C_1 
REMARK    2  A    between atoms: C_10  and  S_2 
REMARK    3  A    between atoms: N_7  and  C_5 
REMARK    4  A    between atoms: C_11  and  N_7 
ROOT
ATOM      1  C   UNL d   1      57.421   0.131  31.449  0.00  0.00     0.187 A 
ATOM      2  N   UNL d   1      57.342   0.012  30.641  0.00  0.00    -0.208 NA
ATOM      3  C   UNL d   1      58.159   0.470  31.594  0.00  0.00     0.118 A 
ATOM      4  C   UNL d   1      58.032   0.278  30.283  0.00  0.00     0.196 A 
ATOM      5  S   UNL d   1      58.529   0.557  30.863  0.00  0.00    -0.035 SA
ATOM      6 CL   UNL d   1      58.464   0.680  32.320  0.00  0.00    -0.073 Cl
ENDROOT
BRANCH   1   7
ATOM      7  S   UNL d   1      56.859  -0.057  32.025  0.00  0.00     0.228 S 
ATOM      8  O   UNL d   1      56.358   0.461  31.630  0.00  0.00    -0.216 OA
ATOM      9  O   UNL d   1      57.366  -0.573  32.413  0.00  0.00    -0.216 OA
BRANCH   7  10
ATOM     10  C   UNL d   1      56.245  -0.191  32.559  0.00  0.00     0.089 A 
ATOM     11  C   UNL d   1      56.013  -0.969  32.740  0.00  0.00     0.011 A 
ATOM     12  C   UNL d   1      55.393  -1.099  33.280  0.00  0.00     0.001 A 
ATOM     13  C   UNL d   1      55.008  -0.462  33.637  0.00  0.00     0.000 A 
ATOM     14  C   UNL d   1      55.247   0.319  33.451  0.00  0.00     0.001 A 
ATOM     15  C   UNL d   1      55.861   0.452  32.916  0.00  0.00     0.011 A 
ENDBRANCH   7  10
ENDBRANCH   1   7
BRANCH   4  16
ATOM     16  N   UNL d   1      58.187   0.262  29.474  0.00  0.00    -0.221 NA
BRANCH  16  17
ATOM     17  C   UNL d   1      58.738  -0.269  29.174  0.00  0.00     0.087 A 
ATOM     18  C   UNL d   1      59.522  -0.055  29.128  0.00  0.00     0.061 A 
ATOM     19  C   UNL d   1      60.076  -0.581  28.830  0.00  0.00     0.197 A 
ATOM     20  O   UNL d   1      60.866  -0.362  28.785  0.00  0.00    -0.286 OA
ATOM     21  C   UNL d   1      59.838  -1.329  28.575  0.00  0.00     0.042 A 
ATOM     22  C   UNL d   1      59.042  -1.541  28.623  0.00  0.00     0.005 A 
ATOM     23  C   UNL d   1      58.490  -1.015  28.921  0.00  0.00     0.019 A 
ENDBRANCH  16  17
ENDBRANCH   4  16
TORSDOF 4
ENDMDL
MODEL 3
REMARK VINA RESULT:      -4.6      1.230      4.275
REMARK  4 active torsions:
REMARK  status: ('A' for Active; 'I' for Inactive)
REMARK    1  A    between atoms: S_2  and  C_1 
REMARK    2  A    between atoms: C_10  and  S_2 
REMARK    3  A    between atoms: N_7  and  C_5 
REMARK    4  A    between atoms: C_11  and  N_7 
ROOT
ATOM      1  C   UNL d   1      58.504  -0.525  29.845  0.00  0.00     0.187 A 
ATOM      2  N   UNL d   1      57.773  -0.523  30.217  0.00  0.00    -0.208 NA
ATOM      3  C   UNL d   1      58.849   0.219  29.940  0.00  0.00     0.118 A 
ATOM      4  C   UNL d   1      57.663   0.223  30.543  0.00  0.00     0.196 A 
ATOM      5  S   UNL d   1      58.318   0.675  30.375  0.00  0.00    -0.035 SA
ATOM      6 CL   UNL d   1      59.576   0.457  29.658  0.00  0.00    -0.073 Cl
ENDROOT
BRANCH   1   7
ATOM      7  S   UNL d   1      58.842  -1.162  29.442  0.00  0.00     0.228 S 
ATOM      8  O   UNL d   1      59.106  -1.419  30.176  0.00  0.00    -0.216 OA
ATOM      9  O   UNL d   1      58.575  -0.898  28.712  0.00  0.00    -0.216 OA
BRANCH   7  10
ATOM     10  C   UNL d   1      59.208  -1.825  29.115  0.00  0.00     0.089 A 
ATOM     11  C   UNL d   1      60.010  -1.794  28.896  0.00  0.00     0.011 A 
ATOM     12  C   UNL d   1      60.374  -2.465  28.567  0.00  0.00     0.001 A 
ATOM     13  C   UNL d   1      59.945  -3.162  28.456  0.00  0.00     0.000 A 
ATOM     14  C   UNL d   1      59.139  -3.187  28.678  0.00  0.00     0.001 A 
ATOM     15  C   UNL d   1      58.774  -2.523  29.005  0.00  0.00     0.011 A 
ENDBRANCH   7  10
ENDBRANCH   1   7
BRANCH   4  16
ATOM     16  N   UNL d   1      57.000   0.466  30.968  0.00  0.00    -0.221 NA
BRANCH  16  17
ATOM     17  C   UNL d   1      56.872   0.178  31.727  0.00  0.00     0.087 A 
ATOM     18  C   UNL d   1      56.478  -0.527  31.830  0.00  0.00     0.061 A 
ATOM     19  C   UNL d   1      56.348  -0.819  32.585  0.00  0.00     0.197 A 
ATOM     20  O   UNL d   1      55.950  -1.530  32.686  0.00  0.00    -0.286 OA
ATOM     21  C   UNL d   1      56.617  -0.399  33.242  0.00  0.00     0.042 A 
ATOM     22  C   UNL d   1      57.017   0.315  33.132  0.00  0.00     0.005 A 
ATOM     23  C   UNL d   1      57.146   0.606  32.378  0.00  0.00     0.019 A 
ENDBRANCH  16  17
ENDBRANCH   4  16
TORSDOF 4
ENDMDL
MODEL 4
REMARK VINA RESULT:      -4.4      1.974      2.644
REMARK  4 active torsions:
REMARK  status: ('A' for Active; 'I' for Inactive)
REMARK    1  A    between atoms: S_2  and  C_1 
REMARK    2  A    between atoms: C_10  and  S_2 
REMARK    3  A    between atoms: N_7  and  C_5 
REMARK    4  A    between atoms: C_11  and  N_7 
ROOT
ATOM      1  C   UNL d   1      56.594   0.120  32.308  0.00  0.00     0.187 A 
ATOM      2  N   UNL d   1      56.878   0.682  31.781  0.00  0.00    -0.208 NA
ATOM      3  C   UNL d   1      56.731  -0.630  31.991  0.00  0.00     0.118 A 
ATOM      4  C   UNL d   1      57.191   0.281  31.136  0.00  0.00     0.196 A 
ATOM      5  S   UNL d   1      57.102  -0.518  31.263  0.00  0.00    -0.035 SA
ATOM      6 CL   UNL d   1      56.536  -1.345  32.331  0.00  0.00    -0.073 Cl
ENDROOT
BRANCH   1   7
ATOM      7  S   UNL d   1      56.232   0.274  33.035  0.00  0.00     0.228 S 
ATOM      8  O   UNL d   1      55.524   0.091  32.662  0.00  0.00    -0.216 OA
ATOM      9  O   UNL d   1      56.945   0.455  33.400  0.00  0.00    -0.216 OA
BRANCH   7  10
ATOM     10  C   UNL d   1      55.798   0.409  33.722  0.00  0.00     0.089 A 
ATOM     11  C   UNL d   1      56.189   0.517  34.448  0.00  0.00     0.011 A 
ATOM     12  C   UNL d   1      55.747   0.653  35.139  0.00  0.00     0.001 A 
ATOM     13  C   UNL d   1      54.922   0.682  35.109  0.00  0.00     0.000 A 
ATOM     14  C   UNL d   1      54.534   0.573  34.375  0.00  0.00     0.001 A 
ATOM     15  C   UNL d   1      54.970   0.438  33.688  0.00  0.00     0.011 A 
ENDBRANCH   7  10
ENDBRANCH   1   7
BRANCH   4  16
ATOM     16  N   UNL d   1      57.536   0.633  30.476  0.00  0.00    -0.221 NA
BRANCH  16  17
ATOM     17  C   UNL d   1      58.246   0.343  30.182  0.00  0.00     0.087 A 
ATOM     18  C   UNL d   1      58.951   0.640  30.461  0.00  0.00     0.061 A 
ATOM     19  C   UNL d   1      59.662   0.354  30.171  0.00  0.00     0.197 A 
ATOM     20  O   UNL d   1      60.371   0.657  30.454  0.00  0.00    -0.286 OA
ATOM     21  C   UNL d   1      59.665  -0.236  29.596  0.00  0.00     0.042 A 
ATOM     22  C   UNL d   1      58.948  -0.535  29.316  0.00  0.00     0.005 A 
ATOM     23  C   UNL d   1      58.238  -0.249  29.606  0.00  0.00     0.019 A 
ENDBRANCH  16  17
ENDBRANCH   4  16
TORSDOF 4
ENDMDL
MODEL 5
REMARK VINA RESULT:      -4.3      1.270      4.500
REMARK  4 active torsions:
REMARK  status: ('A' for Active; 'I' for Inactive)
REMARK    1  A    between atoms: S_2  and  C_1 
REMARK    2  A    between atoms: C_10  and  S_2 
REMARK    3  A    between atoms: N_7  and  C_5 
REMARK    4  A    between atoms: C_11  and  N_7 
ROOT
ATOM      1  C   UNL d   1      58.142  -0.358  30.491  0.00  0.00     0.187 A 
ATOM      2  N   UNL d   1      58.060  -0.469  31.301  0.00  0.00    -0.208 NA
ATOM      3  C   UNL d   1      57.777   0.354  30.286  0.00  0.00     0.118 A 
ATOM      4  C   UNL d   1      57.643   0.173  31.598  0.00  0.00     0.196 A 
ATOM      5  S   UNL d   1      57.471   0.674  30.981  0.00  0.00    -0.035 SA
ATOM      6 CL   UNL d   1      57.728   0.677  29.540  0.00  0.00    -0.073 Cl
ENDROOT
BRANCH   1   7
ATOM      7  S   UNL d   1      58.525  -0.869  29.967  0.00  0.00     0.228 S 
ATOM      8  O   UNL d   1      59.220  -0.492  30.189  0.00  0.00    -0.216 OA
ATOM      9  O   UNL d   1      57.825  -1.240  29.751  0.00  0.00    -0.216 OA
BRANCH   7  10
ATOM     10  C   UNL d   1      58.979  -1.340  29.466  0.00  0.00     0.089 A 
ATOM     11  C   UNL d   1      58.715  -2.101  29.258  0.00  0.00     0.011 A 
ATOM     12  C   UNL d   1      59.177  -2.574  28.752  0.00  0.00     0.001 A 
ATOM     13  C   UNL d   1      59.895  -2.292  28.455  0.00  0.00     0.000 A 
ATOM     14  C   UNL d   1      60.154  -1.525  28.668  0.00  0.00     0.001 A 
ATOM     15  C   UNL d   1      59.699  -1.054  29.170  0.00  0.00     0.011 A 
ENDBRANCH   7  10
ENDBRANCH   1   7
BRANCH   4  16
ATOM     16  N   UNL d   1      57.438   0.285  32.388  0.00  0.00    -0.221 NA
BRANCH  16  17
ATOM     17  C   UNL d   1      56.731  -0.020  32.674  0.00  0.00     0.087 A 
ATOM     18  C   UNL d   1      56.097   0.477  32.797  0.00  0.00     0.061 A 
ATOM     19  C   UNL d   1      55.389   0.177  33.082  0.00  0.00     0.197 A 
ATOM     20  O   UNL d   1      54.752   0.681  33.205  0.00  0.00    -0.286 OA
ATOM     21  C   UNL d   1      55.318  -0.628  33.244  0.00  0.00     0.042 A 
ATOM     22  C   UNL d   1      55.963  -1.127  33.118  0.00  0.00     0.005 A 
ATOM     23  C   UNL d   1      56.669  -0.828  32.834  0.00  0.00     0.019 A 
ENDBRANCH  16  17
ENDBRANCH   4  16
TORSDOF 4
ENDMDL
