MODEL 1
REMARK VINA RESULT:      48.4      0.000      0.000
REMARK  5 active torsions:
REMARK  status: ('A' for Active; 'I' for Inactive)
REMARK    1  A    between atoms: C_12  and  N_4 
REMARK    2  A    between atoms: C_10  and  N_6 
REMARK    3  A    between atoms: C_11  and  C_10 
REMARK       I    between atoms: N_14  and  C_11 
REMARK    4  A    between atoms: C_16  and  N_14 
REMARK    5  A    between atoms: C_17  and  C_16 
ROOT
ATOM      1  C   UNL d   1     -51.021  24.937  33.330  0.00  0.00     0.172 A 
ATOM      2  C   UNL d   1     -50.223  24.725  33.320  0.00  0.00     0.113 A 
ATOM      3  N   UNL d   1     -51.238  25.728  33.335  0.00  0.00    -0.206 NA
ATOM      4  N   UNL d   1     -51.464  24.235  33.333  0.00  0.00    -0.212 N 
ATOM      5  C   UNL d   1     -49.643  25.305  33.316  0.00  0.00     0.271 A 
ATOM      6  N   UNL d   1     -49.857  26.104  33.321  0.00  0.00    -0.251 N 
ATOM      7  N   UNL d   1     -50.938  23.608  33.325  0.00  0.00    -0.162 NA
ATOM      8  C   UNL d   1     -50.655  26.316  33.330  0.00  0.00     0.187 A 
ATOM      9  C   UNL d   1     -50.188  23.896  33.317  0.00  0.00     0.129 A 
ATOM     10  O   UNL d   1     -48.846  25.093  33.306  0.00  0.00    -0.266 OA
ENDROOT
BRANCH   6  11
ATOM     11  C   UNL d   1     -49.273  26.700  33.316  0.00  0.00     0.147 C 
BRANCH  11  12
ATOM     12  C   UNL d   1     -49.436  27.447  33.643  0.00  0.00     0.297 C 
ATOM     13  N   UNL d   1     -48.915  27.763  34.198  0.00  0.00    -0.205 NA
ATOM     14  O   UNL d   1     -50.106  27.853  33.411  0.00  0.00    -0.264 OA
BRANCH  13  15
ATOM     15  C   UNL d   1     -49.079  28.510  34.525  0.00  0.00     0.102 C 
BRANCH  15  16
ATOM     16  C   UNL d   1     -48.486  28.899  34.934  0.00  0.00     0.019 A 
ATOM     17  C   UNL d   1     -48.564  29.686  35.137  0.00  0.00     0.002 A 
ATOM     18  C   UNL d   1     -47.959  30.076  35.552  0.00  0.00     0.000 A 
ATOM     19  C   UNL d   1     -47.279  29.654  35.755  0.00  0.00     0.000 A 
ATOM     20  C   UNL d   1     -47.194  28.866  35.556  0.00  0.00     0.000 A 
ATOM     21  C   UNL d   1     -47.800  28.478  35.140  0.00  0.00     0.002 A 
ENDBRANCH  15  16
ENDBRANCH  13  15
ENDBRANCH  11  12
ENDBRANCH   6  11
BRANCH   4  22
ATOM     22  C   UNL d   1     -52.273  24.143  33.342  0.00  0.00     0.085 A 
ATOM     23  C   UNL d   1     -52.605  23.380  33.387  0.00  0.00     0.019 A 
ATOM     24  C   UNL d   1     -53.419  23.294  33.395  0.00  0.00     0.002 A 
ATOM     25  C   UNL d   1     -53.919  23.971  33.359  0.00  0.00     0.000 A 
ATOM     26  C   UNL d   1     -53.582  24.709  33.315  0.00  0.00     0.002 A 
ATOM     27  C   UNL d   1     -52.765  24.805  33.306  0.00  0.00     0.019 A 
ENDBRANCH   4  22
TORSDOF 5
ENDMDL
