MODEL 1
REMARK VINA RESULT:      47.5      0.000      0.000
REMARK  4 active torsions:
REMARK  status: ('A' for Active; 'I' for Inactive)
REMARK    1  A    between atoms: C_4  and  C_1 
REMARK    2  A    between atoms: C_7  and  C_4 
REMARK    3  A    between atoms: N_10  and  C_7 
REMARK    4  A    between atoms: C_11  and  N_10 
ROOT
ATOM      1  C   UNL d   1      59.823  49.545  50.619  0.00  0.00     0.122 C 
ATOM      2  C   UNL d   1      60.035  49.622  49.829  0.00  0.00     0.106 C 
ATOM      3  N   UNL d   1      60.248  49.700  49.039  0.00  0.00    -0.191 NA
ENDROOT
BRANCH   1   4
ATOM      4  C   UNL d   1      60.399  49.579  51.207  0.00  0.00     0.159 A 
ATOM      5  N   UNL d   1      61.216  49.578  51.090  0.00  0.00    -0.226 NA
ATOM      6  C   UNL d   1      61.578  49.619  51.823  0.00  0.00     0.099 A 
ATOM      7  C   UNL d   1      62.376  49.636  52.049  0.00  0.00     0.021 A 
ATOM      8  C   UNL d   1      60.989  49.647  52.398  0.00  0.00     0.083 A 
ATOM      9  C   UNL d   1      62.573  49.680  52.850  0.00  0.00     0.002 A 
ATOM     10  C   UNL d   1      61.984  49.708  53.426  0.00  0.00     0.002 A 
ATOM     11  C   UNL d   1      61.192  49.691  53.205  0.00  0.00     0.019 A 
ATOM     12  N   UNL d   1      60.260  49.623  52.023  0.00  0.00    -0.287 N 
ATOM     13  C   UNL d   1      59.515  49.638  52.385  0.00  0.00     0.101 C 
ENDBRANCH   1   4
BRANCH   1  14
ATOM     14  C   UNL d   1      59.034  49.432  50.822  0.00  0.00     0.114 C 
BRANCH  14  15
ATOM     15  N   UNL d   1      58.550  48.960  50.350  0.00  0.00    -0.225 NA
BRANCH  15  16
ATOM     16  C   UNL d   1      57.731  49.063  50.368  0.00  0.00     0.163 A 
ATOM     17  N   UNL d   1      57.385  49.575  50.913  0.00  0.00    -0.225 NA
ATOM     18  C   UNL d   1      56.567  49.675  50.928  0.00  0.00     0.101 A 
ATOM     19  C   UNL d   1      56.094  49.260  50.393  0.00  0.00     0.021 A 
ATOM     20  C   UNL d   1      56.441  48.740  49.838  0.00  0.00     0.005 A 
ATOM     21  C   UNL d   1      57.263  48.646  49.831  0.00  0.00     0.039 A 
ENDBRANCH  15  16
ENDBRANCH  14  15
ENDBRANCH   1  14
TORSDOF 4
ENDMDL
MODEL 2
REMARK VINA RESULT:      49.7      0.864      4.325
REMARK  4 active torsions:
REMARK  status: ('A' for Active; 'I' for Inactive)
REMARK    1  A    between atoms: C_4  and  C_1 
REMARK    2  A    between atoms: C_7  and  C_4 
REMARK    3  A    between atoms: N_10  and  C_7 
REMARK    4  A    between atoms: C_11  and  N_10 
ROOT
ATOM      1  C   UNL d   1      59.602  49.543  50.493  0.00  0.00     0.122 C 
ATOM      2  C   UNL d   1      59.991  49.479  49.772  0.00  0.00     0.106 C 
ATOM      3  N   UNL d   1      60.381  49.415  49.051  0.00  0.00    -0.191 NA
ENDROOT
BRANCH   1   4
ATOM      4  C   UNL d   1      58.779  49.580  50.516  0.00  0.00     0.159 A 
ATOM      5  N   UNL d   1      58.310  49.591  51.195  0.00  0.00    -0.226 NA
ATOM      6  C   UNL d   1      57.526  49.630  50.962  0.00  0.00     0.099 A 
ATOM      7  C   UNL d   1      56.819  49.656  51.394  0.00  0.00     0.021 A 
ATOM      8  C   UNL d   1      57.504  49.643  50.139  0.00  0.00     0.083 A 
ATOM      9  C   UNL d   1      56.096  49.694  50.994  0.00  0.00     0.002 A 
ATOM     10  C   UNL d   1      56.074  49.707  50.170  0.00  0.00     0.002 A 
ATOM     11  C   UNL d   1      56.774  49.682  49.739  0.00  0.00     0.019 A 
ATOM     12  N   UNL d   1      58.274  49.612  49.859  0.00  0.00    -0.287 N 
ATOM     13  C   UNL d   1      58.515  49.613  49.066  0.00  0.00     0.101 C 
ENDBRANCH   1   4
BRANCH   1  14
ATOM     14  C   UNL d   1      60.035  49.569  51.192  0.00  0.00     0.114 C 
BRANCH  14  15
ATOM     15  N   UNL d   1      60.804  49.275  51.212  0.00  0.00    -0.225 NA
BRANCH  15  16
ATOM     16  C   UNL d   1      61.160  49.102  51.937  0.00  0.00     0.163 A 
ATOM     17  N   UNL d   1      61.383  49.708  52.449  0.00  0.00    -0.225 NA
ATOM     18  C   UNL d   1      61.737  49.531  53.171  0.00  0.00     0.101 A 
ATOM     19  C   UNL d   1      61.869  48.743  53.381  0.00  0.00     0.021 A 
ATOM     20  C   UNL d   1      61.644  48.125  52.865  0.00  0.00     0.005 A 
ATOM     21  C   UNL d   1      61.289  48.313  52.142  0.00  0.00     0.039 A 
ENDBRANCH  15  16
ENDBRANCH  14  15
ENDBRANCH   1  14
TORSDOF 4
ENDMDL
