MODEL 1
REMARK VINA RESULT:      -8.1      0.000      0.000
REMARK  4 active torsions:
REMARK  status: ('A' for Active; 'I' for Inactive)
REMARK    1  A    between atoms: C_8  and  C_1 
REMARK    2  A    between atoms: C_3  and  C_2 
REMARK    3  A    between atoms: O_14  and  C_8 
REMARK    4  A    between atoms: C_16  and  O_14 
ROOT
ATOM      1  C   UNL d   1      53.176  33.077  53.416  0.00  0.00     0.091 A 
ATOM      2  C   UNL d   1      52.717  32.419  53.225  0.00  0.00     0.036 A 
ATOM      3  C   UNL d   1      52.755  33.764  53.229  0.00  0.00     0.138 A 
ATOM      4  C   UNL d   1      52.012  32.721  52.919  0.00  0.00     0.039 A 
ATOM      5  S   UNL d   1      52.041  33.525  52.925  0.00  0.00    -0.065 SA
ATOM      6  N   UNL d   1      53.021  34.550  53.337  0.00  0.00    -0.141 N 
ENDROOT
BRANCH   2   7
ATOM      7  C   UNL d   1      52.984  31.671  53.345  0.00  0.00     0.101 A 
ATOM      8  O   UNL d   1      53.502  31.155  53.672  0.00  0.00    -0.307 OA
ATOM      9  C   UNL d   1      53.289  30.423  53.445  0.00  0.00     0.100 A 
ATOM     10  C   UNL d   1      53.693  29.729  53.672  0.00  0.00     0.027 C 
ATOM     11  C   UNL d   1      52.641  30.444  52.975  0.00  0.00     0.027 A 
ATOM     12  C   UNL d   1      52.458  31.255  52.921  0.00  0.00     0.027 A 
ENDBRANCH   2   7
BRANCH   1  13
ATOM     13  C   UNL d   1      53.925  33.071  53.738  0.00  0.00     0.302 C 
ATOM     14  O   UNL d   1      54.580  32.960  53.295  0.00  0.00    -0.259 OA
BRANCH  13  15
ATOM     15  O   UNL d   1      54.007  33.187  54.567  0.00  0.00    -0.271 OA
BRANCH  15  16
ATOM     16  C   UNL d   1      54.732  33.336  54.869  0.00  0.00     0.126 C 
ATOM     17  C   UNL d   1      54.814  33.455  55.698  0.00  0.00     0.029 C 
ENDBRANCH  15  16
ENDBRANCH  13  15
ENDBRANCH   1  13
TORSDOF 4
ENDMDL
MODEL 2
REMARK VINA RESULT:      -7.9      1.531      2.426
REMARK  4 active torsions:
REMARK  status: ('A' for Active; 'I' for Inactive)
REMARK    1  A    between atoms: C_8  and  C_1 
REMARK    2  A    between atoms: C_3  and  C_2 
REMARK    3  A    between atoms: O_14  and  C_8 
REMARK    4  A    between atoms: C_16  and  O_14 
ROOT
ATOM      1  C   UNL d   1      52.957  34.053  53.863  0.00  0.00     0.091 A 
ATOM      2  C   UNL d   1      53.329  33.365  54.126  0.00  0.00     0.036 A 
ATOM      3  C   UNL d   1      53.173  34.681  54.356  0.00  0.00     0.138 A 
ATOM      4  C   UNL d   1      53.772  33.589  54.786  0.00  0.00     0.039 A 
ATOM      5  S   UNL d   1      53.674  34.376  54.918  0.00  0.00    -0.065 SA
ATOM      6  N   UNL d   1      52.919  35.475  54.283  0.00  0.00    -0.141 N 
ENDROOT
BRANCH   2   7
ATOM      7  C   UNL d   1      53.223  32.661  53.752  0.00  0.00     0.101 A 
ATOM      8  O   UNL d   1      52.860  32.207  53.201  0.00  0.00    -0.307 OA
ATOM      9  C   UNL d   1      53.167  31.475  53.251  0.00  0.00     0.100 A 
ATOM     10  C   UNL d   1      52.933  30.838  52.767  0.00  0.00     0.027 C 
ATOM     11  C   UNL d   1      53.726  31.436  53.824  0.00  0.00     0.027 A 
ATOM     12  C   UNL d   1      53.749  32.208  54.135  0.00  0.00     0.027 A 
ENDBRANCH   2   7
BRANCH   1  13
ATOM     13  C   UNL d   1      52.457  34.123  53.224  0.00  0.00     0.302 C 
ATOM     14  O   UNL d   1      52.725  34.227  52.479  0.00  0.00    -0.259 OA
BRANCH  13  15
ATOM     15  O   UNL d   1      51.627  34.082  53.358  0.00  0.00    -0.271 OA
BRANCH  15  16
ATOM     16  C   UNL d   1      51.128  34.297  52.771  0.00  0.00     0.126 C 
ATOM     17  C   UNL d   1      50.298  34.216  52.889  0.00  0.00     0.029 C 
ENDBRANCH  15  16
ENDBRANCH  13  15
ENDBRANCH   1  13
TORSDOF 4
ENDMDL
MODEL 3
REMARK VINA RESULT:      -7.8      1.499      2.944
REMARK  4 active torsions:
REMARK  status: ('A' for Active; 'I' for Inactive)
REMARK    1  A    between atoms: C_8  and  C_1 
REMARK    2  A    between atoms: C_3  and  C_2 
REMARK    3  A    between atoms: O_14  and  C_8 
REMARK    4  A    between atoms: C_16  and  O_14 
ROOT
ATOM      1  C   UNL d   1      53.678  33.370  54.162  0.00  0.00     0.091 A 
ATOM      2  C   UNL d   1      53.105  33.958  54.091  0.00  0.00     0.036 A 
ATOM      3  C   UNL d   1      54.130  33.514  54.841  0.00  0.00     0.138 A 
ATOM      4  C   UNL d   1      53.218  34.460  54.737  0.00  0.00     0.039 A 
ATOM      5  S   UNL d   1      53.831  34.188  55.181  0.00  0.00    -0.065 SA
ATOM      6  N   UNL d   1      54.769  33.049  55.115  0.00  0.00    -0.141 N 
ENDROOT
BRANCH   2   7
ATOM      7  C   UNL d   1      52.582  33.963  53.480  0.00  0.00     0.101 A 
ATOM      8  O   UNL d   1      52.294  33.654  52.800  0.00  0.00    -0.307 OA
ATOM      9  C   UNL d   1      51.678  34.102  52.572  0.00  0.00     0.100 A 
ATOM     10  C   UNL d   1      51.228  33.960  51.884  0.00  0.00     0.027 C 
ATOM     11  C   UNL d   1      51.553  34.702  53.087  0.00  0.00     0.027 A 
ATOM     12  C   UNL d   1      52.143  34.598  53.666  0.00  0.00     0.027 A 
ENDBRANCH   2   7
BRANCH   1  13
ATOM     13  C   UNL d   1      53.797  32.741  53.658  0.00  0.00     0.302 C 
ATOM     14  O   UNL d   1      54.235  32.802  52.993  0.00  0.00    -0.259 OA
BRANCH  13  15
ATOM     15  O   UNL d   1      53.442  32.001  53.847  0.00  0.00    -0.271 OA
BRANCH  15  16
ATOM     16  C   UNL d   1      53.681  31.345  53.457  0.00  0.00     0.126 C 
ATOM     17  C   UNL d   1      53.272  30.621  53.587  0.00  0.00     0.029 C 
ENDBRANCH  15  16
ENDBRANCH  13  15
ENDBRANCH   1  13
TORSDOF 4
ENDMDL
MODEL 4
REMARK VINA RESULT:      -7.7      1.454      2.499
REMARK  4 active torsions:
REMARK  status: ('A' for Active; 'I' for Inactive)
REMARK    1  A    between atoms: C_8  and  C_1 
REMARK    2  A    between atoms: C_3  and  C_2 
REMARK    3  A    between atoms: O_14  and  C_8 
REMARK    4  A    between atoms: C_16  and  O_14 
ROOT
ATOM      1  C   UNL d   1      53.395  31.928  53.412  0.00  0.00     0.091 A 
ATOM      2  C   UNL d   1      52.639  32.110  53.137  0.00  0.00     0.036 A 
ATOM      3  C   UNL d   1      53.499  31.107  53.393  0.00  0.00     0.138 A 
ATOM      4  C   UNL d   1      52.288  31.385  52.953  0.00  0.00     0.039 A 
ATOM      5  S   UNL d   1      52.807  30.791  53.108  0.00  0.00    -0.065 SA
ATOM      6  N   UNL d   1      54.188  30.692  53.625  0.00  0.00    -0.141 N 
ENDROOT
BRANCH   2   7
ATOM      7  C   UNL d   1      52.379  32.869  53.093  0.00  0.00     0.101 A 
ATOM      8  O   UNL d   1      52.518  33.657  53.059  0.00  0.00    -0.307 OA
ATOM      9  C   UNL d   1      51.813  34.025  53.020  0.00  0.00     0.100 A 
ATOM     10  C   UNL d   1      51.722  34.853  52.977  0.00  0.00     0.027 C 
ATOM     11  C   UNL d   1      51.212  33.496  53.027  0.00  0.00     0.027 A 
ATOM     12  C   UNL d   1      51.594  32.757  53.074  0.00  0.00     0.027 A 
ENDBRANCH   2   7
BRANCH   1  13
ATOM     13  C   UNL d   1      53.962  32.456  53.664  0.00  0.00     0.302 C 
ATOM     14  O   UNL d   1      54.460  32.823  53.159  0.00  0.00    -0.259 OA
BRANCH  13  15
ATOM     15  O   UNL d   1      54.021  32.619  54.488  0.00  0.00    -0.271 OA
BRANCH  15  16
ATOM     16  C   UNL d   1      54.642  33.045  54.756  0.00  0.00     0.126 C 
ATOM     17  C   UNL d   1      54.627  33.338  55.545  0.00  0.00     0.029 C 
ENDBRANCH  15  16
ENDBRANCH  13  15
ENDBRANCH   1  13
TORSDOF 4
ENDMDL
MODEL 5
REMARK VINA RESULT:      -7.5      1.605      3.120
REMARK  4 active torsions:
REMARK  status: ('A' for Active; 'I' for Inactive)
REMARK    1  A    between atoms: C_8  and  C_1 
REMARK    2  A    between atoms: C_3  and  C_2 
REMARK    3  A    between atoms: O_14  and  C_8 
REMARK    4  A    between atoms: C_16  and  O_14 
ROOT
ATOM      1  C   UNL d   1      53.048  31.989  53.333  0.00  0.00     0.091 A 
ATOM      2  C   UNL d   1      53.610  32.049  53.934  0.00  0.00     0.036 A 
ATOM      3  C   UNL d   1      52.959  31.193  53.126  0.00  0.00     0.138 A 
ATOM      4  C   UNL d   1      53.858  31.276  54.085  0.00  0.00     0.039 A 
ATOM      5  S   UNL d   1      53.465  30.770  53.599  0.00  0.00    -0.065 SA
ATOM      6  N   UNL d   1      52.443  30.892  52.540  0.00  0.00    -0.141 N 
ENDROOT
BRANCH   2   7
ATOM      7  C   UNL d   1      53.814  32.760  54.250  0.00  0.00     0.101 A 
ATOM      8  O   UNL d   1      53.823  33.560  54.228  0.00  0.00    -0.307 OA
ATOM      9  C   UNL d   1      54.208  33.815  54.876  0.00  0.00     0.100 A 
ATOM     10  C   UNL d   1      54.335  34.619  55.056  0.00  0.00     0.027 C 
ATOM     11  C   UNL d   1      54.452  33.199  55.326  0.00  0.00     0.027 A 
ATOM     12  C   UNL d   1      54.191  32.528  54.908  0.00  0.00     0.027 A 
ENDBRANCH   2   7
BRANCH   1  13
ATOM     13  C   UNL d   1      52.637  32.602  52.988  0.00  0.00     0.302 C 
ATOM     14  O   UNL d   1      52.932  33.026  52.379  0.00  0.00    -0.259 OA
BRANCH  13  15
ATOM     15  O   UNL d   1      51.874  32.793  53.288  0.00  0.00    -0.271 OA
BRANCH  15  16
ATOM     16  C   UNL d   1      51.417  33.311  52.884  0.00  0.00     0.126 C 
ATOM     17  C   UNL d   1      50.693  33.570  53.227  0.00  0.00     0.029 C 
ENDBRANCH  15  16
ENDBRANCH  13  15
ENDBRANCH   1  13
TORSDOF 4
ENDMDL
MODEL 6
REMARK VINA RESULT:      -7.2      1.114      2.833
REMARK  4 active torsions:
REMARK  status: ('A' for Active; 'I' for Inactive)
REMARK    1  A    between atoms: C_8  and  C_1 
REMARK    2  A    between atoms: C_3  and  C_2 
REMARK    3  A    between atoms: O_14  and  C_8 
REMARK    4  A    between atoms: C_16  and  O_14 
ROOT
ATOM      1  C   UNL d   1      52.375  33.404  53.122  0.00  0.00     0.091 A 
ATOM      2  C   UNL d   1      52.615  33.940  53.703  0.00  0.00     0.036 A 
ATOM      3  C   UNL d   1      51.679  33.682  52.770  0.00  0.00     0.138 A 
ATOM      4  C   UNL d   1      52.052  34.544  53.694  0.00  0.00     0.039 A 
ATOM      5  S   UNL d   1      51.496  34.383  53.136  0.00  0.00    -0.065 SA
ATOM      6  N   UNL d   1      51.253  33.304  52.157  0.00  0.00    -0.141 N 
ENDROOT
BRANCH   2   7
ATOM      7  C   UNL d   1      53.278  33.817  54.140  0.00  0.00     0.101 A 
ATOM      8  O   UNL d   1      53.943  33.403  54.304  0.00  0.00    -0.307 OA
ATOM      9  C   UNL d   1      54.296  33.749  54.927  0.00  0.00     0.100 A 
ATOM     10  C   UNL d   1      55.008  33.480  55.268  0.00  0.00     0.027 C 
ATOM     11  C   UNL d   1      53.877  34.384  55.178  0.00  0.00     0.027 A 
ATOM     12  C   UNL d   1      53.225  34.413  54.661  0.00  0.00     0.027 A 
ENDBRANCH   2   7
BRANCH   1  13
ATOM     13  C   UNL d   1      52.749  32.711  52.915  0.00  0.00     0.302 C 
ATOM     14  O   UNL d   1      53.385  32.696  52.431  0.00  0.00    -0.259 OA
BRANCH  13  15
ATOM     15  O   UNL d   1      52.453  31.987  53.224  0.00  0.00    -0.271 OA
BRANCH  15  16
ATOM     16  C   UNL d   1      52.716  31.297  52.918  0.00  0.00     0.126 C 
ATOM     17  C   UNL d   1      52.505  30.574  53.295  0.00  0.00     0.029 C 
ENDBRANCH  15  16
ENDBRANCH  13  15
ENDBRANCH   1  13
TORSDOF 4
ENDMDL
MODEL 7
REMARK VINA RESULT:      -6.5      1.533      2.120
REMARK  4 active torsions:
REMARK  status: ('A' for Active; 'I' for Inactive)
REMARK    1  A    between atoms: C_8  and  C_1 
REMARK    2  A    between atoms: C_3  and  C_2 
REMARK    3  A    between atoms: O_14  and  C_8 
REMARK    4  A    between atoms: C_16  and  O_14 
ROOT
ATOM      1  C   UNL d   1      51.944  33.897  53.189  0.00  0.00     0.091 A 
ATOM      2  C   UNL d   1      52.222  33.120  53.198  0.00  0.00     0.036 A 
ATOM      3  C   UNL d   1      51.124  33.889  53.078  0.00  0.00     0.138 A 
ATOM      4  C   UNL d   1      51.556  32.644  53.090  0.00  0.00     0.039 A 
ATOM      5  S   UNL d   1      50.904  33.110  53.019  0.00  0.00    -0.065 SA
ATOM      6  N   UNL d   1      50.626  34.560  53.035  0.00  0.00    -0.141 N 
ENDROOT
BRANCH   2   7
ATOM      7  C   UNL d   1      53.002  32.954  53.297  0.00  0.00     0.101 A 
ATOM      8  O   UNL d   1      53.768  33.183  53.338  0.00  0.00    -0.307 OA
ATOM      9  C   UNL d   1      54.207  32.533  53.475  0.00  0.00     0.100 A 
ATOM     10  C   UNL d   1      55.037  32.541  53.554  0.00  0.00     0.027 C 
ATOM     11  C   UNL d   1      53.746  31.880  53.525  0.00  0.00     0.027 A 
ATOM     12  C   UNL d   1      52.974  32.169  53.409  0.00  0.00     0.027 A 
ENDBRANCH   2   7
BRANCH   1  13
ATOM     13  C   UNL d   1      52.389  34.574  53.275  0.00  0.00     0.302 C 
ATOM     14  O   UNL d   1      52.741  34.936  52.656  0.00  0.00    -0.259 OA
BRANCH  13  15
ATOM     15  O   UNL d   1      52.478  34.902  54.045  0.00  0.00    -0.271 OA
BRANCH  15  16
ATOM     16  C   UNL d   1      52.861  35.599  54.129  0.00  0.00     0.126 C 
ATOM     17  C   UNL d   1      52.974  35.913  54.902  0.00  0.00     0.029 C 
ENDBRANCH  15  16
ENDBRANCH  13  15
ENDBRANCH   1  13
TORSDOF 4
ENDMDL
MODEL 8
REMARK VINA RESULT:      -6.3      1.841      2.597
REMARK  4 active torsions:
REMARK  status: ('A' for Active; 'I' for Inactive)
REMARK    1  A    between atoms: C_8  and  C_1 
REMARK    2  A    between atoms: C_3  and  C_2 
REMARK    3  A    between atoms: O_14  and  C_8 
REMARK    4  A    between atoms: C_16  and  O_14 
ROOT
ATOM      1  C   UNL d   1      53.812  33.549  54.388  0.00  0.00     0.091 A 
ATOM      2  C   UNL d   1      53.449  33.067  53.825  0.00  0.00     0.036 A 
ATOM      3  C   UNL d   1      54.601  33.315  54.475  0.00  0.00     0.138 A 
ATOM      4  C   UNL d   1      54.033  32.539  53.574  0.00  0.00     0.039 A 
ATOM      5  S   UNL d   1      54.718  32.693  53.967  0.00  0.00    -0.065 SA
ATOM      6  N   UNL d   1      55.162  33.660  54.991  0.00  0.00    -0.141 N 
ENDROOT
BRANCH   2   7
ATOM      7  C   UNL d   1      52.677  33.164  53.623  0.00  0.00     0.101 A 
ATOM      8  O   UNL d   1      51.971  33.530  53.709  0.00  0.00    -0.307 OA
ATOM      9  C   UNL d   1      51.463  33.200  53.192  0.00  0.00     0.100 A 
ATOM     10  C   UNL d   1      50.666  33.431  53.111  0.00  0.00     0.027 C 
ATOM     11  C   UNL d   1      51.821  32.623  52.767  0.00  0.00     0.027 A 
ATOM     12  C   UNL d   1      52.601  32.613  53.057  0.00  0.00     0.027 A 
ENDBRANCH   2   7
BRANCH   1  13
ATOM     13  C   UNL d   1      53.466  34.159  54.802  0.00  0.00     0.302 C 
ATOM     14  O   UNL d   1      53.068  34.043  55.484  0.00  0.00    -0.259 OA
BRANCH  13  15
ATOM     15  O   UNL d   1      53.532  34.940  54.495  0.00  0.00    -0.271 OA
BRANCH  15  16
ATOM     16  C   UNL d   1      53.266  35.554  54.934  0.00  0.00     0.126 C 
ATOM     17  C   UNL d   1      53.273  36.327  54.602  0.00  0.00     0.029 C 
ENDBRANCH  15  16
ENDBRANCH  13  15
ENDBRANCH   1  13
TORSDOF 4
ENDMDL
