MODEL 1
REMARK VINA RESULT:      -6.1      0.000      0.000
REMARK  4 active torsions:
REMARK  status: ('A' for Active; 'I' for Inactive)
REMARK    1  A    between atoms: C_6  and  C_1 
REMARK    2  A    between atoms: C_8  and  C_5 
REMARK    3  A    between atoms: C_9  and  C_8 
REMARK    4  A    between atoms: C_13  and  C_9 
ROOT
ATOM      1  C   UNL d   1     -41.575-122.260 -53.201  0.00  0.00     0.210 A 
ATOM      2  N   UNL d   1     -41.151-121.648 -52.841  0.00  0.00    -0.120 NA
ATOM      3  O   UNL d   1     -41.795-122.790 -52.646  0.00  0.00    -0.268 OA
ATOM      4  N   UNL d   1     -41.123-121.833 -52.036  0.00  0.00    -0.121 NA
ATOM      5  C   UNL d   1     -41.503-122.520 -51.877  0.00  0.00     0.205 A 
ENDROOT
BRANCH   5   6
ATOM      6  C   UNL d   1     -41.575-122.856 -51.131  0.00  0.00     0.046 C 
BRANCH   6   7
ATOM      7  C   UNL d   1     -41.857-122.409 -50.510  0.00  0.00     0.004 C 
BRANCH   7   8
ATOM      8  C   UNL d   1     -42.018-122.761 -49.778  0.00  0.00     0.000 A 
ATOM      9  C   UNL d   1     -42.800-122.751 -49.464  0.00  0.00     0.002 A 
ATOM     10  C   UNL d   1     -42.959-123.104 -48.730  0.00  0.00     0.030 A 
ATOM     11  C   UNL d   1     -42.347-123.463 -48.314  0.00  0.00     0.140 A 
ATOM     12  C   UNL d   1     -41.564-123.475 -48.624  0.00  0.00     0.030 A 
ATOM     13  F   UNL d   1     -42.506-123.817 -47.578  0.00  0.00    -0.204 F 
ATOM     14  C   UNL d   1     -41.421-123.122 -49.350  0.00  0.00     0.002 A 
ENDBRANCH   7   8
ENDBRANCH   6   7
ENDBRANCH   5   6
BRANCH   1  15
ATOM     15  C   UNL d   1     -41.749-122.320 -54.010  0.00  0.00     0.072 A 
ATOM     16  S   UNL d   1     -41.481-122.901 -54.535  0.00  0.00    -0.083 SA
ATOM     17  C   UNL d   1     -41.795-122.739 -55.282  0.00  0.00     0.035 A 
ATOM     18  C   UNL d   1     -42.257-122.059 -55.221  0.00  0.00     0.008 A 
ATOM     19  C   UNL d   1     -42.228-121.800 -54.429  0.00  0.00     0.011 A 
ENDBRANCH   1  15
TORSDOF 4
ENDMDL
MODEL 2
REMARK VINA RESULT:      -5.8      2.455      4.962
REMARK  4 active torsions:
REMARK  status: ('A' for Active; 'I' for Inactive)
REMARK    1  A    between atoms: C_6  and  C_1 
REMARK    2  A    between atoms: C_8  and  C_5 
REMARK    3  A    between atoms: C_9  and  C_8 
REMARK    4  A    between atoms: C_13  and  C_9 
ROOT
ATOM      1  C   UNL d   1     -41.652-122.601 -50.623  0.00  0.00     0.210 A 
ATOM      2  N   UNL d   1     -41.293-121.856 -50.634  0.00  0.00    -0.120 NA
ATOM      3  O   UNL d   1     -41.699-122.882 -51.368  0.00  0.00    -0.268 OA
ATOM      4  N   UNL d   1     -41.123-121.697 -51.427  0.00  0.00    -0.121 NA
ATOM      5  C   UNL d   1     -41.354-122.296 -51.905  0.00  0.00     0.205 A 
ENDROOT
BRANCH   5   6
ATOM      6  C   UNL d   1     -41.263-122.309 -52.721  0.00  0.00     0.046 C 
BRANCH   6   7
ATOM      7  C   UNL d   1     -41.850-122.627 -53.190  0.00  0.00     0.004 C 
BRANCH   7   8
ATOM      8  C   UNL d   1     -41.928-122.395 -53.981  0.00  0.00     0.000 A 
ATOM      9  C   UNL d   1     -42.534-121.856 -54.209  0.00  0.00     0.002 A 
ATOM     10  C   UNL d   1     -42.610-121.625 -55.002  0.00  0.00     0.030 A 
ATOM     11  C   UNL d   1     -42.089-121.927 -55.562  0.00  0.00     0.140 A 
ATOM     12  C   UNL d   1     -41.481-122.467 -55.338  0.00  0.00     0.030 A 
ATOM     13  F   UNL d   1     -42.165-121.697 -56.358  0.00  0.00    -0.204 F 
ATOM     14  C   UNL d   1     -41.418-122.686 -54.552  0.00  0.00     0.002 A 
ENDBRANCH   7   8
ENDBRANCH   6   7
ENDBRANCH   5   6
BRANCH   1  15
ATOM     15  C   UNL d   1     -41.923-123.000 -49.947  0.00  0.00     0.072 A 
ATOM     16  S   UNL d   1     -41.520-123.578 -49.514  0.00  0.00    -0.083 SA
ATOM     17  C   UNL d   1     -42.004-123.817 -48.889  0.00  0.00     0.035 A 
ATOM     18  C   UNL d   1     -42.706-123.389 -48.934  0.00  0.00     0.008 A 
ATOM     19  C   UNL d   1     -42.655-122.881 -49.593  0.00  0.00     0.011 A 
ENDBRANCH   1  15
TORSDOF 4
ENDMDL
