MODEL 1
REMARK VINA RESULT:      -4.1      0.000      0.000
REMARK  7 active torsions:
REMARK  status: ('A' for Active; 'I' for Inactive)
REMARK    1  A    between atoms: C_7  and  C_1 
REMARK    2  A    between atoms: C_10  and  C_2 
REMARK    3  A    between atoms: S_12  and  C_5 
REMARK    4  A    between atoms: C_11  and  C_6 
REMARK    5  A    between atoms: O_15  and  C_7 
REMARK    6  A    between atoms: C_21  and  S_12 
REMARK    7  A    between atoms: C_22  and  O_15 
ROOT
ATOM      1  C   UNL d   1     -48.626  13.422  22.982  0.00  0.00     0.082 A 
ATOM      2  C   UNL d   1     -48.507  14.257  22.987  0.00  0.00     0.087 A 
ATOM      3  C   UNL d   1     -47.233  13.205  23.005  0.00  0.00     0.092 A 
ATOM      4  N   UNL d   1     -47.714  14.553  23.001  0.00  0.00    -0.238 NA
ATOM      5  C   UNL d   1     -47.095  14.018  23.009  0.00  0.00     0.120 A 
ATOM      6  C   UNL d   1     -47.992  12.908  22.991  0.00  0.00     0.020 A 
ATOM      7  C   UNL d   1     -46.580  12.668  23.014  0.00  0.00     0.103 C 
ATOM      8  N   UNL d   1     -45.928  12.128  23.023  0.00  0.00    -0.191 NA
ENDROOT
BRANCH   6   9
ATOM      9  C   UNL d   1     -48.130  12.094  22.987  0.00  0.00     0.020 A 
ATOM     10  C   UNL d   1     -48.149  11.691  22.268  0.00  0.00     0.099 A 
ATOM     11  N   UNL d   1     -48.286  10.877  22.264  0.00  0.00    -0.242 NA
ATOM     12  C   UNL d   1     -48.405  10.467  22.978  0.00  0.00     0.099 A 
ATOM     13  C   UNL d   1     -48.383  10.886  23.689  0.00  0.00     0.021 A 
ATOM     14  C   UNL d   1     -48.246  11.699  23.694  0.00  0.00     0.003 A 
ENDBRANCH   6   9
BRANCH   5  15
ATOM     15  S   UNL d   1     -46.299  14.329  23.023  0.00  0.00    -0.067 SA
BRANCH  15  16
ATOM     16  C   UNL d   1     -46.110  15.028  22.605  0.00  0.00     0.037 C 
ATOM     17  C   UNL d   1     -45.369  15.126  22.281  0.00  0.00     0.007 C 
ENDBRANCH  15  16
ENDBRANCH   5  15
BRANCH   1  18
ATOM     18  C   UNL d   1     -49.420  13.126  22.969  0.00  0.00     0.302 C 
ATOM     19  O   UNL d   1     -49.790  12.990  23.696  0.00  0.00    -0.259 OA
BRANCH  18  20
ATOM     20  O   UNL d   1     -49.785  12.988  22.268  0.00  0.00    -0.271 OA
BRANCH  20  21
ATOM     21  C   UNL d   1     -50.552  12.672  22.245  0.00  0.00     0.126 C 
ATOM     22  C   UNL d   1     -50.965  12.621  21.532  0.00  0.00     0.029 C 
ENDBRANCH  20  21
ENDBRANCH  18  20
ENDBRANCH   1  18
BRANCH   2  23
ATOM     23  C   UNL d   1     -49.140  14.775  22.978  0.00  0.00     0.018 A 
ATOM     24  C   UNL d   1     -49.518  14.968  23.665  0.00  0.00     0.002 A 
ATOM     25  C   UNL d   1     -50.160  15.491  23.662  0.00  0.00     0.000 A 
ATOM     26  C   UNL d   1     -50.419  15.822  22.952  0.00  0.00     0.000 A 
ATOM     27  C   UNL d   1     -50.021  15.619  22.235  0.00  0.00     0.000 A 
ATOM     28  C   UNL d   1     -49.392  15.101  22.263  0.00  0.00     0.002 A 
ENDBRANCH   2  23
TORSDOF 7
ENDMDL
MODEL 2
REMARK VINA RESULT:      -3.4      1.167      3.103
REMARK  7 active torsions:
REMARK  status: ('A' for Active; 'I' for Inactive)
REMARK    1  A    between atoms: C_7  and  C_1 
REMARK    2  A    between atoms: C_10  and  C_2 
REMARK    3  A    between atoms: S_12  and  C_5 
REMARK    4  A    between atoms: C_11  and  C_6 
REMARK    5  A    between atoms: O_15  and  C_7 
REMARK    6  A    between atoms: C_21  and  S_12 
REMARK    7  A    between atoms: C_22  and  O_15 
ROOT
ATOM      1  C   UNL d   1     -48.275  13.294  22.823  0.00  0.00     0.082 A 
ATOM      2  C   UNL d   1     -48.607  12.549  23.043  0.00  0.00     0.087 A 
ATOM      3  C   UNL d   1     -46.976  12.815  23.095  0.00  0.00     0.092 A 
ATOM      4  N   UNL d   1     -48.085  11.931  23.294  0.00  0.00    -0.238 NA
ATOM      5  C   UNL d   1     -47.281  12.080  23.313  0.00  0.00     0.120 A 
ATOM      6  C   UNL d   1     -47.468  13.418  22.851  0.00  0.00     0.020 A 
ATOM      7  C   UNL d   1     -46.143  12.948  23.122  0.00  0.00     0.103 C 
ATOM      8  N   UNL d   1     -45.307  13.085  23.148  0.00  0.00    -0.191 NA
ENDROOT
BRANCH   6   9
ATOM      9  C   UNL d   1     -47.163  14.153  22.633  0.00  0.00     0.020 A 
ATOM     10  C   UNL d   1     -46.861  14.654  23.213  0.00  0.00     0.099 A 
ATOM     11  N   UNL d   1     -46.556  15.389  22.994  0.00  0.00    -0.242 NA
ATOM     12  C   UNL d   1     -46.554  15.622  22.196  0.00  0.00     0.099 A 
ATOM     13  C   UNL d   1     -46.861  15.109  21.626  0.00  0.00     0.021 A 
ATOM     14  C   UNL d   1     -47.165  14.374  21.845  0.00  0.00     0.003 A 
ENDBRANCH   6   9
BRANCH   5  15
ATOM     15  S   UNL d   1     -46.765  11.448  23.568  0.00  0.00    -0.067 SA
BRANCH  15  16
ATOM     16  C   UNL d   1     -47.059  10.671  23.658  0.00  0.00     0.037 C 
ATOM     17  C   UNL d   1     -46.546  10.039  23.698  0.00  0.00     0.007 C 
ENDBRANCH  15  16
ENDBRANCH   5  15
BRANCH   1  18
ATOM     18  C   UNL d   1     -48.796  13.912  22.573  0.00  0.00     0.302 C 
ATOM     19  O   UNL d   1     -49.005  13.936  21.772  0.00  0.00    -0.259 OA
BRANCH  18  20
ATOM     20  O   UNL d   1     -49.070  14.446  23.104  0.00  0.00    -0.271 OA
BRANCH  20  21
ATOM     21  C   UNL d   1     -49.609  15.035  22.874  0.00  0.00     0.126 C 
ATOM     22  C   UNL d   1     -49.913  15.566  23.427  0.00  0.00     0.029 C 
ENDBRANCH  20  21
ENDBRANCH  18  20
ENDBRANCH   1  18
BRANCH   2  23
ATOM     23  C   UNL d   1     -49.414  12.421  23.016  0.00  0.00     0.018 A 
ATOM     24  C   UNL d   1     -49.847  12.409  23.698  0.00  0.00     0.002 A 
ATOM     25  C   UNL d   1     -50.665  12.280  23.676  0.00  0.00     0.000 A 
ATOM     26  C   UNL d   1     -51.046  12.163  22.954  0.00  0.00     0.000 A 
ATOM     27  C   UNL d   1     -50.589  12.176  22.243  0.00  0.00     0.000 A 
ATOM     28  C   UNL d   1     -49.785  12.305  22.288  0.00  0.00     0.002 A 
ENDBRANCH   2  23
TORSDOF 7
ENDMDL
MODEL 3
REMARK VINA RESULT:      -2.8      1.509      2.977
REMARK  7 active torsions:
REMARK  status: ('A' for Active; 'I' for Inactive)
REMARK    1  A    between atoms: C_7  and  C_1 
REMARK    2  A    between atoms: C_10  and  C_2 
REMARK    3  A    between atoms: S_12  and  C_5 
REMARK    4  A    between atoms: C_11  and  C_6 
REMARK    5  A    between atoms: O_15  and  C_7 
REMARK    6  A    between atoms: C_21  and  S_12 
REMARK    7  A    between atoms: C_22  and  O_15 
ROOT
ATOM      1  C   UNL d   1     -48.421  13.490  22.704  0.00  0.00     0.082 A 
ATOM      2  C   UNL d   1     -49.252  13.543  22.843  0.00  0.00     0.087 A 
ATOM      3  C   UNL d   1     -48.406  12.165  23.187  0.00  0.00     0.092 A 
ATOM      4  N   UNL d   1     -49.652  12.870  23.165  0.00  0.00    -0.238 NA
ATOM      5  C   UNL d   1     -49.218  12.197  23.329  0.00  0.00     0.120 A 
ATOM      6  C   UNL d   1     -48.009  12.807  22.877  0.00  0.00     0.020 A 
ATOM      7  C   UNL d   1     -47.976  11.460  23.363  0.00  0.00     0.103 C 
ATOM      8  N   UNL d   1     -47.541  10.754  23.540  0.00  0.00    -0.191 NA
ENDROOT
BRANCH   6   9
ATOM      9  C   UNL d   1     -47.197  12.776  22.734  0.00  0.00     0.020 A 
ATOM     10  C   UNL d   1     -46.674  13.023  23.321  0.00  0.00     0.099 A 
ATOM     11  N   UNL d   1     -45.862  12.992  23.178  0.00  0.00    -0.242 NA
ATOM     12  C   UNL d   1     -45.573  12.714  22.449  0.00  0.00     0.099 A 
ATOM     13  C   UNL d   1     -46.111  12.469  21.872  0.00  0.00     0.021 A 
ATOM     14  C   UNL d   1     -46.923  12.500  22.014  0.00  0.00     0.003 A 
ENDBRANCH   6   9
BRANCH   5  15
ATOM     15  S   UNL d   1     -49.633  11.524  23.654  0.00  0.00    -0.067 SA
BRANCH  15  16
ATOM     16  C   UNL d   1     -50.468  11.522  23.698  0.00  0.00     0.037 C 
ATOM     17  C   UNL d   1     -50.878  10.818  23.698  0.00  0.00     0.007 C 
ENDBRANCH  15  16
ENDBRANCH   5  15
BRANCH   1  18
ATOM     18  C   UNL d   1     -48.021  14.164  22.382  0.00  0.00     0.302 C 
ATOM     19  O   UNL d   1     -48.043  14.266  21.561  0.00  0.00    -0.259 OA
BRANCH  18  20
ATOM     20  O   UNL d   1     -47.639  14.674  22.868  0.00  0.00    -0.271 OA
BRANCH  20  21
ATOM     21  C   UNL d   1     -47.129  15.253  22.559  0.00  0.00     0.126 C 
ATOM     22  C   UNL d   1     -46.928  15.918  23.004  0.00  0.00     0.029 C 
ENDBRANCH  20  21
ENDBRANCH  18  20
ENDBRANCH   1  18
BRANCH   2  23
ATOM     23  C   UNL d   1     -49.668  14.227  22.671  0.00  0.00     0.018 A 
ATOM     24  C   UNL d   1     -49.827  14.763  23.253  0.00  0.00     0.002 A 
ATOM     25  C   UNL d   1     -50.247  15.456  23.085  0.00  0.00     0.000 A 
ATOM     26  C   UNL d   1     -50.507  15.605  22.316  0.00  0.00     0.000 A 
ATOM     27  C   UNL d   1     -50.339  15.042  21.710  0.00  0.00     0.000 A 
ATOM     28  C   UNL d   1     -49.923  14.366  21.899  0.00  0.00     0.002 A 
ENDBRANCH   2  23
TORSDOF 7
ENDMDL
MODEL 4
REMARK VINA RESULT:      -2.7      0.849      3.197
REMARK  7 active torsions:
REMARK  status: ('A' for Active; 'I' for Inactive)
REMARK    1  A    between atoms: C_7  and  C_1 
REMARK    2  A    between atoms: C_10  and  C_2 
REMARK    3  A    between atoms: S_12  and  C_5 
REMARK    4  A    between atoms: C_11  and  C_6 
REMARK    5  A    between atoms: O_15  and  C_7 
REMARK    6  A    between atoms: C_21  and  S_12 
REMARK    7  A    between atoms: C_22  and  O_15 
ROOT
ATOM      1  C   UNL d   1     -48.462  13.346  22.843  0.00  0.00     0.082 A 
ATOM      2  C   UNL d   1     -47.897  12.718  22.825  0.00  0.00     0.087 A 
ATOM      3  C   UNL d   1     -47.429  14.301  22.752  0.00  0.00     0.092 A 
ATOM      4  N   UNL d   1     -47.076  12.914  22.768  0.00  0.00    -0.238 NA
ATOM      5  C   UNL d   1     -46.861  13.702  22.733  0.00  0.00     0.120 A 
ATOM      6  C   UNL d   1     -48.223  14.125  22.807  0.00  0.00     0.020 A 
ATOM      7  C   UNL d   1     -47.187  15.110  22.715  0.00  0.00     0.103 C 
ATOM      8  N   UNL d   1     -46.948  15.922  22.677  0.00  0.00    -0.191 NA
ENDROOT
BRANCH   6   9
ATOM      9  C   UNL d   1     -48.790  14.724  22.826  0.00  0.00     0.020 A 
ATOM     10  C   UNL d   1     -49.107  14.959  23.550  0.00  0.00     0.099 A 
ATOM     11  N   UNL d   1     -49.675  15.558  23.569  0.00  0.00    -0.242 NA
ATOM     12  C   UNL d   1     -49.925  15.922  22.864  0.00  0.00     0.099 A 
ATOM     13  C   UNL d   1     -49.598  15.676  22.147  0.00  0.00     0.021 A 
ATOM     14  C   UNL d   1     -49.030  15.077  22.128  0.00  0.00     0.003 A 
ENDBRANCH   6   9
BRANCH   5  15
ATOM     15  S   UNL d   1     -46.029  13.887  22.676  0.00  0.00    -0.067 SA
BRANCH  15  16
ATOM     16  C   UNL d   1     -45.587  13.649  22.007  0.00  0.00     0.037 C 
ATOM     17  C   UNL d   1     -44.904  13.216  22.099  0.00  0.00     0.007 C 
ENDBRANCH  15  16
ENDBRANCH   5  15
BRANCH   1  18
ATOM     18  C   UNL d   1     -49.284  13.150  22.900  0.00  0.00     0.302 C 
ATOM     19  O   UNL d   1     -49.602  13.046  23.657  0.00  0.00    -0.259 OA
BRANCH  18  20
ATOM     20  O   UNL d   1     -49.724  13.070  22.235  0.00  0.00    -0.271 OA
BRANCH  20  21
ATOM     21  C   UNL d   1     -50.533  12.885  22.281  0.00  0.00     0.126 C 
ATOM     22  C   UNL d   1     -50.967  12.720  21.600  0.00  0.00     0.029 C 
ENDBRANCH  20  21
ENDBRANCH  18  20
ENDBRANCH   1  18
BRANCH   2  23
ATOM     23  C   UNL d   1     -48.133  11.935  22.862  0.00  0.00     0.018 A 
ATOM     24  C   UNL d   1     -48.270  11.520  22.183  0.00  0.00     0.002 A 
ATOM     25  C   UNL d   1     -48.509  10.728  22.214  0.00  0.00     0.000 A 
ATOM     26  C   UNL d   1     -48.610  10.355  22.943  0.00  0.00     0.000 A 
ATOM     27  C   UNL d   1     -48.466  10.793  23.651  0.00  0.00     0.000 A 
ATOM     28  C   UNL d   1     -48.231  11.572  23.596  0.00  0.00     0.002 A 
ENDBRANCH   2  23
TORSDOF 7
ENDMDL
MODEL 5
REMARK VINA RESULT:      -1.4      1.478      3.108
REMARK  7 active torsions:
REMARK  status: ('A' for Active; 'I' for Inactive)
REMARK    1  A    between atoms: C_7  and  C_1 
REMARK    2  A    between atoms: C_10  and  C_2 
REMARK    3  A    between atoms: S_12  and  C_5 
REMARK    4  A    between atoms: C_11  and  C_6 
REMARK    5  A    between atoms: O_15  and  C_7 
REMARK    6  A    between atoms: C_21  and  S_12 
REMARK    7  A    between atoms: C_22  and  O_15 
ROOT
ATOM      1  C   UNL d   1     -48.182  13.139  22.971  0.00  0.00     0.082 A 
ATOM      2  C   UNL d   1     -48.047  13.969  23.049  0.00  0.00     0.087 A 
ATOM      3  C   UNL d   1     -49.534  13.305  23.333  0.00  0.00     0.092 A 
ATOM      4  N   UNL d   1     -48.695  14.464  23.279  0.00  0.00    -0.238 NA
ATOM      5  C   UNL d   1     -49.424  14.119  23.416  0.00  0.00     0.120 A 
ATOM      6  C   UNL d   1     -48.919  12.818  23.113  0.00  0.00     0.020 A 
ATOM      7  C   UNL d   1     -50.295  12.968  23.479  0.00  0.00     0.103 C 
ATOM      8  N   UNL d   1     -51.057  12.627  23.624  0.00  0.00    -0.191 NA
ENDROOT
BRANCH   6   9
ATOM      9  C   UNL d   1     -49.029  12.005  23.030  0.00  0.00     0.020 A 
ATOM     10  C   UNL d   1     -49.098  11.680  22.276  0.00  0.00     0.099 A 
ATOM     11  N   UNL d   1     -49.208  10.866  22.194  0.00  0.00    -0.242 NA
ATOM     12  C   UNL d   1     -49.250  10.378  22.866  0.00  0.00     0.099 A 
ATOM     13  C   UNL d   1     -49.179  10.719  23.615  0.00  0.00     0.021 A 
ATOM     14  C   UNL d   1     -49.069  11.532  23.697  0.00  0.00     0.003 A 
ENDBRANCH   6   9
BRANCH   5  15
ATOM     15  S   UNL d   1     -50.069  14.628  23.647  0.00  0.00    -0.067 SA
BRANCH  15  16
ATOM     16  C   UNL d   1     -50.088  15.427  23.400  0.00  0.00     0.037 C 
ATOM     17  C   UNL d   1     -50.684  15.922  23.652  0.00  0.00     0.007 C 
ENDBRANCH  15  16
ENDBRANCH   5  15
BRANCH   1  18
ATOM     18  C   UNL d   1     -47.534  12.645  22.741  0.00  0.00     0.302 C 
ATOM     19  O   UNL d   1     -47.431  12.498  21.933  0.00  0.00    -0.259 OA
BRANCH  18  20
ATOM     20  O   UNL d   1     -47.046  12.337  23.299  0.00  0.00    -0.271 OA
BRANCH  20  21
ATOM     21  C   UNL d   1     -46.418  11.837  23.084  0.00  0.00     0.126 C 
ATOM     22  C   UNL d   1     -46.012  11.402  23.655  0.00  0.00     0.029 C 
ENDBRANCH  20  21
ENDBRANCH  18  20
ENDBRANCH   1  18
BRANCH   2  23
ATOM     23  C   UNL d   1     -47.310  14.294  22.908  0.00  0.00     0.018 A 
ATOM     24  C   UNL d   1     -47.115  14.553  22.168  0.00  0.00     0.002 A 
ATOM     25  C   UNL d   1     -46.370  14.883  22.020  0.00  0.00     0.000 A 
ATOM     26  C   UNL d   1     -45.818  14.949  22.630  0.00  0.00     0.000 A 
ATOM     27  C   UNL d   1     -46.026  14.677  23.402  0.00  0.00     0.000 A 
ATOM     28  C   UNL d   1     -46.766  14.356  23.525  0.00  0.00     0.002 A 
ENDBRANCH   2  23
TORSDOF 7
ENDMDL
