MODEL 1
REMARK VINA RESULT:      22.7      0.000      0.000
REMARK  4 active torsions:
REMARK  status: ('A' for Active; 'I' for Inactive)
REMARK    1  A    between atoms: N_4  and  C_8 
REMARK    2  A    between atoms: C_15  and  C_5 
REMARK    3  A    between atoms: O_17  and  C_15 
REMARK    4  A    between atoms: C_16  and  O_17 
ROOT
ATOM      1  C   UNL d   1     -56.373 -98.757 -44.331  0.00  0.00     0.144 C 
ENDROOT
BRANCH   1   2
ATOM      2  C   UNL d   1     -57.190 -98.757 -44.253  0.00  0.00     0.142 A 
ATOM      3  N   UNL d   1     -57.608 -98.757 -43.545  0.00  0.00    -0.057 NA
ATOM      4  C   UNL d   1     -58.401 -98.757 -43.727  0.00  0.00     0.735 A 
ATOM      5  N   UNL d   1     -58.481 -98.756 -44.548  0.00  0.00    -0.136 N 
ATOM      6  N   UNL d   1     -59.078 -98.757 -43.255  0.00  0.00    -0.059 NA
ATOM      7  C   UNL d   1     -57.729 -98.756 -44.859  0.00  0.00     0.120 A 
ATOM      8  C   UNL d   1     -59.225 -98.756 -44.915  0.00  0.00     0.100 A 
ATOM      9  C   UNL d   1     -59.915 -98.756 -44.424  0.00  0.00     0.041 A 
ATOM     10  C   UNL d   1     -59.828 -98.756 -43.594  0.00  0.00     0.119 A 
ENDBRANCH   1   2
BRANCH   1  11
ATOM     11  O   UNL d   1     -55.957 -99.478 -44.417  0.00  0.00    -0.303 OA
BRANCH  11  12
ATOM     12  C   UNL d   1     -55.542-100.191 -44.498  0.00  0.00     0.102 A 
ATOM     13  C   UNL d   1     -55.389-100.667 -43.833  0.00  0.00     0.048 A 
ATOM     14  C   UNL d   1     -54.978-101.375 -43.907  0.00  0.00     0.129 A 
ATOM     15  C   UNL d   1     -54.711-101.623 -44.658  0.00  0.00     0.024 A 
ATOM     16  C   UNL d   1     -54.863-101.151 -45.321  0.00  0.00     0.004 A 
ATOM     17  C   UNL d   1     -55.275-100.444 -45.237  0.00  0.00     0.025 A 
BRANCH  14  18
ATOM     18  N   UNL d   1     -54.834-101.836 -43.237  0.00  0.00    -0.114 N 
ATOM     19  O   UNL d   1     -54.739-102.655 -43.318  0.00  0.00    -0.532 OA
ATOM     20  O   UNL d   1     -54.784-101.495 -42.497  0.00  0.00    -0.532 OA
ENDBRANCH  14  18
ENDBRANCH  11  12
ENDBRANCH   1  11
TORSDOF 4
ENDMDL
