MODEL 1
REMARK VINA RESULT:      36.2      0.000      0.000
REMARK  4 active torsions:
REMARK  status: ('A' for Active; 'I' for Inactive)
REMARK    1  A    between atoms: C_11  and  C_4 
REMARK    2  A    between atoms: N_10  and  C_5 
REMARK    3  A    between atoms: C_13  and  N_10 
REMARK    4  A    between atoms: C_14  and  C_13 
ROOT
ATOM      1  N   UNL d   1      45.775 -15.564  44.444  0.00  0.00    -0.195 N 
ATOM      2  C   UNL d   1      45.111 -15.075  44.412  0.00  0.00     0.167 A 
ATOM      3  N   UNL d   1      46.428 -15.111  44.251  0.00  0.00    -0.163 NA
ATOM      4  C   UNL d   1      45.356 -14.321  44.200  0.00  0.00     0.055 A 
ATOM      5  C   UNL d   1      45.692 -16.357  44.644  0.00  0.00     0.167 A 
ATOM      6  C   UNL d   1      46.169 -14.341  44.100  0.00  0.00     0.104 A 
ATOM      7  N   UNL d   1      44.366 -15.380  44.581  0.00  0.00    -0.227 NA
ATOM      8  C   UNL d   1      44.943 -16.668  44.816  0.00  0.00     0.058 A 
ATOM      9  C   UNL d   1      44.279 -16.179  44.784  0.00  0.00     0.086 A 
ATOM     10  C   UNL d   1      46.645 -13.702  43.885  0.00  0.00     0.023 C 
ATOM     11  C   UNL d   1      43.522 -16.480  44.954  0.00  0.00     0.021 C 
ENDROOT
BRANCH   5  12
ATOM     12  N   UNL d   1      46.356 -16.847  44.676  0.00  0.00    -0.224 NA
BRANCH  12  13
ATOM     13  C   UNL d   1      46.275 -17.638  44.885  0.00  0.00     0.120 C 
BRANCH  13  14
ATOM     14  C   UNL d   1      46.318 -18.225  44.306  0.00  0.00     0.101 A 
ATOM     15  N   UNL d   1      46.570 -18.030  43.540  0.00  0.00    -0.242 NA
ATOM     16  C   UNL d   1      46.613 -18.619  42.959  0.00  0.00     0.099 A 
ATOM     17  C   UNL d   1      46.405 -19.400  43.147  0.00  0.00     0.021 A 
ATOM     18  C   UNL d   1      46.156 -19.589  43.908  0.00  0.00     0.003 A 
ATOM     19  C   UNL d   1      46.112 -19.000  44.489  0.00  0.00     0.021 A 
ENDBRANCH  13  14
ENDBRANCH  12  13
ENDBRANCH   5  12
BRANCH   4  20
ATOM     20  C   UNL d   1      44.947 -13.614  44.083  0.00  0.00     0.004 A 
ATOM     21  C   UNL d   1      44.604 -13.452  43.345  0.00  0.00     0.000 A 
ATOM     22  C   UNL d   1      44.194 -12.745  43.228  0.00  0.00     0.000 A 
ATOM     23  C   UNL d   1      44.125 -12.199  43.842  0.00  0.00     0.000 A 
ATOM     24  C   UNL d   1      44.470 -12.362  44.581  0.00  0.00     0.000 A 
ATOM     25  C   UNL d   1      44.878 -13.067  44.697  0.00  0.00     0.000 A 
ENDBRANCH   4  20
TORSDOF 4
ENDMDL
MODEL 2
REMARK VINA RESULT:      38.3      1.077      5.007
REMARK  4 active torsions:
REMARK  status: ('A' for Active; 'I' for Inactive)
REMARK    1  A    between atoms: C_11  and  C_4 
REMARK    2  A    between atoms: N_10  and  C_5 
REMARK    3  A    between atoms: C_13  and  N_10 
REMARK    4  A    between atoms: C_14  and  C_13 
ROOT
ATOM      1  N   UNL d   1      45.801 -16.961  44.129  0.00  0.00    -0.195 N 
ATOM      2  C   UNL d   1      46.085 -17.419  43.505  0.00  0.00     0.167 A 
ATOM      3  N   UNL d   1      45.577 -17.468  44.731  0.00  0.00    -0.163 NA
ATOM      4  C   UNL d   1      46.036 -18.209  43.723  0.00  0.00     0.055 A 
ATOM      5  C   UNL d   1      45.785 -16.141  44.064  0.00  0.00     0.167 A 
ATOM      6  C   UNL d   1      45.723 -18.242  44.479  0.00  0.00     0.104 A 
ATOM      7  N   UNL d   1      46.353 -17.058  42.817  0.00  0.00    -0.227 NA
ATOM      8  C   UNL d   1      46.054 -15.773  43.371  0.00  0.00     0.058 A 
ATOM      9  C   UNL d   1      46.338 -16.231  42.747  0.00  0.00     0.086 A 
ATOM     10  C   UNL d   1      45.578 -18.928  44.913  0.00  0.00     0.023 C 
ATOM     11  C   UNL d   1      46.611 -15.873  42.047  0.00  0.00     0.021 C 
ENDROOT
BRANCH   5  12
ATOM     12  N   UNL d   1      45.500 -15.682  44.688  0.00  0.00    -0.224 NA
BRANCH  12  13
ATOM     13  C   UNL d   1      45.927 -15.027  44.946  0.00  0.00     0.120 C 
BRANCH  13  14
ATOM     14  C   UNL d   1      45.654 -14.266  44.782  0.00  0.00     0.101 A 
ATOM     15  N   UNL d   1      46.165 -13.618  44.868  0.00  0.00    -0.242 NA
ATOM     16  C   UNL d   1      45.891 -12.853  44.704  0.00  0.00     0.099 A 
ATOM     17  C   UNL d   1      45.107 -12.741  44.455  0.00  0.00     0.021 A 
ATOM     18  C   UNL d   1      44.604 -13.386  44.370  0.00  0.00     0.003 A 
ATOM     19  C   UNL d   1      44.878 -14.151  44.535  0.00  0.00     0.021 A 
ENDBRANCH  13  14
ENDBRANCH  12  13
ENDBRANCH   5  12
BRANCH   4  20
ATOM     20  C   UNL d   1      46.236 -18.908  43.332  0.00  0.00     0.004 A 
ATOM     21  C   UNL d   1      46.231 -19.628  43.746  0.00  0.00     0.000 A 
ATOM     22  C   UNL d   1      46.430 -20.328  43.355  0.00  0.00     0.000 A 
ATOM     23  C   UNL d   1      46.635 -20.313  42.557  0.00  0.00     0.000 A 
ATOM     24  C   UNL d   1      46.640 -19.591  42.144  0.00  0.00     0.000 A 
ATOM     25  C   UNL d   1      46.441 -18.895  42.534  0.00  0.00     0.000 A 
ENDBRANCH   4  20
TORSDOF 4
ENDMDL
