MODEL 1
REMARK VINA RESULT:       2.4      0.000      0.000
REMARK  2 active torsions:
REMARK  status: ('A' for Active; 'I' for Inactive)
REMARK    1  A    between atoms: N_10  and  C_3 
REMARK    2  A    between atoms: C_12  and  C_5 
ROOT
ATOM      1  N   UNL d   1     -41.866-122.626 -52.191  0.00  0.00    -0.196 N 
ATOM      2  C   UNL d   1     -41.803-122.229 -52.917  0.00  0.00     0.167 A 
ATOM      3  C   UNL d   1     -41.726-122.211 -51.496  0.00  0.00     0.152 A 
ATOM      4  N   UNL d   1     -42.200-123.812 -52.875  0.00  0.00    -0.163 NA
ATOM      5  C   UNL d   1     -41.936-122.619 -53.613  0.00  0.00     0.055 A 
ATOM      6  N   UNL d   1     -41.601-121.426 -52.932  0.00  0.00    -0.227 NA
ATOM      7  C   UNL d   1     -41.527-121.420 -51.508  0.00  0.00     0.052 A 
ATOM      8  C   UNL d   1     -42.137-123.417 -53.597  0.00  0.00     0.104 A 
ATOM      9  C   UNL d   1     -41.464-121.025 -52.230  0.00  0.00     0.086 A 
ATOM     10  C   UNL d   1     -41.390-121.021 -50.795  0.00  0.00     0.004 A 
ATOM     11  C   UNL d   1     -42.273-123.817 -54.283  0.00  0.00     0.023 C 
ATOM     12  C   UNL d   1     -41.263-120.227 -52.246  0.00  0.00     0.019 A 
ATOM     13  C   UNL d   1     -41.186-120.210 -50.816  0.00  0.00     0.000 A 
ATOM     14  C   UNL d   1     -41.123-119.815 -51.538  0.00  0.00     0.002 A 
ENDROOT
BRANCH   3  15
ATOM     15  N   UNL d   1     -41.790-122.611 -50.757  0.00  0.00    -0.286 N 
ATOM     16  C   UNL d   1     -42.512-122.585 -50.331  0.00  0.00     0.101 A 
ATOM     17  C   UNL d   1     -42.576-122.989 -49.585  0.00  0.00     0.100 A 
ATOM     18  N   UNL d   1     -41.922-123.411 -49.276  0.00  0.00    -0.299 N 
ATOM     19  C   UNL d   1     -41.195-123.438 -49.702  0.00  0.00     0.100 A 
ATOM     20  C   UNL d   1     -41.994-123.810 -48.532  0.00  0.00     0.100 C 
ATOM     21  C   UNL d   1     -41.123-123.037 -50.449  0.00  0.00     0.101 A 
ENDBRANCH   3  15
BRANCH   5  22
ATOM     22  C   UNL d   1     -41.873-122.224 -54.335  0.00  0.00     0.004 A 
ATOM     23  C   UNL d   1     -41.212-122.337 -54.796  0.00  0.00     0.000 A 
ATOM     24  C   UNL d   1     -41.149-121.942 -55.518  0.00  0.00     0.000 A 
ATOM     25  C   UNL d   1     -41.748-121.441 -55.767  0.00  0.00     0.000 A 
ATOM     26  C   UNL d   1     -42.410-121.334 -55.296  0.00  0.00     0.000 A 
ATOM     27  C   UNL d   1     -42.473-121.729 -54.574  0.00  0.00     0.000 A 
ENDBRANCH   5  22
TORSDOF 2
ENDMDL
