MODEL 1
REMARK VINA RESULT:      -5.3      0.000      0.000
REMARK  5 active torsions:
REMARK  status: ('A' for Active; 'I' for Inactive)
REMARK    1  A    between atoms: N_2  and  C_1 
REMARK    2  A    between atoms: N_11  and  C_6 
REMARK    3  A    between atoms: C_13  and  N_11 
REMARK    4  A    between atoms: O_20  and  C_14 
REMARK    5  A    between atoms: C_23  and  O_20 
ROOT
ATOM      1  C   UNL d   1     -41.864-122.270 -53.234  0.00  0.00     0.752 A 
ATOM      2  N   UNL d   1     -41.823-122.983 -52.814  0.00  0.00    -0.040 NA
ATOM      3  C   UNL d   1     -41.551-122.990 -52.038  0.00  0.00     0.182 A 
ATOM      4  N   UNL d   1     -41.630-121.565 -52.869  0.00  0.00    -0.059 NA
ATOM      5  C   UNL d   1     -41.317-122.285 -51.672  0.00  0.00     0.059 A 
ATOM      6  C   UNL d   1     -41.357-121.570 -52.089  0.00  0.00     0.103 A 
ATOM      7  C   UNL d   1     -41.123-120.865 -51.723  0.00  0.00     0.021 C 
ENDROOT
BRANCH   3   8
ATOM      8  N   UNL d   1     -41.510-123.699 -51.619  0.00  0.00    -0.226 NA
BRANCH   8   9
ATOM      9  C   UNL d   1     -41.724-123.728 -50.817  0.00  0.00     0.083 A 
ATOM     10  C   UNL d   1     -41.126-123.788 -50.244  0.00  0.00     0.021 A 
ATOM     11  C   UNL d   1     -41.345-123.817 -49.441  0.00  0.00     0.026 A 
ATOM     12  C   UNL d   1     -42.139-123.787 -49.222  0.00  0.00     0.100 A 
ATOM     13  C   UNL d   1     -42.726-123.728 -49.804  0.00  0.00     0.026 A 
ATOM     14  C   UNL d   1     -42.519-123.698 -50.603  0.00  0.00     0.021 A 
BRANCH  12  15
ATOM     15  O   UNL d   1     -42.349-123.817 -48.422  0.00  0.00    -0.305 OA
BRANCH  15  16
ATOM     16  C   UNL d   1     -42.230-123.155 -47.948  0.00  0.00     0.123 C 
ATOM     17  C   UNL d   1     -42.446-123.183 -47.154  0.00  0.00     0.029 C 
ENDBRANCH  15  16
ENDBRANCH  12  15
ENDBRANCH   8   9
ENDBRANCH   3   8
BRANCH   1  18
ATOM     18  N   UNL d   1     -42.108-122.253 -53.936  0.00  0.00    -0.058 N 
ATOM     19  N   UNL d   1     -42.917-121.768 -54.833  0.00  0.00    -0.151 NA
ATOM     20  C   UNL d   1     -42.599-122.220 -55.356  0.00  0.00     0.103 A 
ATOM     21  C   UNL d   1     -42.844-122.203 -56.064  0.00  0.00     0.022 C 
ATOM     22  C   UNL d   1     -42.044-122.675 -55.152  0.00  0.00     0.041 A 
ATOM     23  C   UNL d   1     -41.794-122.699 -54.453  0.00  0.00     0.102 A 
ATOM     24  C   UNL d   1     -41.230-123.164 -54.255  0.00  0.00     0.021 C 
ENDBRANCH   1  18
TORSDOF 5
ENDMDL
MODEL 2
REMARK VINA RESULT:      -3.7      1.884      4.968
REMARK  5 active torsions:
REMARK  status: ('A' for Active; 'I' for Inactive)
REMARK    1  A    between atoms: N_2  and  C_1 
REMARK    2  A    between atoms: N_11  and  C_6 
REMARK    3  A    between atoms: C_13  and  N_11 
REMARK    4  A    between atoms: O_20  and  C_14 
REMARK    5  A    between atoms: C_23  and  O_20 
ROOT
ATOM      1  C   UNL d   1     -41.733-122.766 -50.156  0.00  0.00     0.752 A 
ATOM      2  N   UNL d   1     -41.594-123.283 -50.788  0.00  0.00    -0.040 NA
ATOM      3  C   UNL d   1     -41.304-122.996 -51.502  0.00  0.00     0.182 A 
ATOM      4  N   UNL d   1     -41.579-121.957 -50.247  0.00  0.00    -0.059 NA
ATOM      5  C   UNL d   1     -41.150-122.187 -51.593  0.00  0.00     0.059 A 
ATOM      6  C   UNL d   1     -41.287-121.666 -50.964  0.00  0.00     0.103 A 
ATOM      7  C   UNL d   1     -41.133-120.858 -51.055  0.00  0.00     0.021 C 
ENDROOT
BRANCH   3   8
ATOM      8  N   UNL d   1     -41.165-123.510 -52.130  0.00  0.00    -0.226 NA
BRANCH   8   9
ATOM      9  C   UNL d   1     -41.396-123.306 -52.901  0.00  0.00     0.083 A 
ATOM     10  C   UNL d   1     -41.901-123.817 -53.319  0.00  0.00     0.021 A 
ATOM     11  C   UNL d   1     -42.130-123.608 -54.091  0.00  0.00     0.026 A 
ATOM     12  C   UNL d   1     -41.859-122.909 -54.434  0.00  0.00     0.100 A 
ATOM     13  C   UNL d   1     -41.355-122.408 -54.007  0.00  0.00     0.026 A 
ATOM     14  C   UNL d   1     -41.123-122.606 -53.240  0.00  0.00     0.021 A 
BRANCH  12  15
ATOM     15  O   UNL d   1     -42.090-122.707 -55.203  0.00  0.00    -0.305 OA
BRANCH  15  16
ATOM     16  C   UNL d   1     -42.500-122.005 -55.331  0.00  0.00     0.123 C 
ATOM     17  C   UNL d   1     -42.403-121.606 -56.044  0.00  0.00     0.029 C 
ENDBRANCH  15  16
ENDBRANCH  12  15
ENDBRANCH   8   9
ENDBRANCH   3   8
BRANCH   1  18
ATOM     18  N   UNL d   1     -41.995-123.015 -49.507  0.00  0.00    -0.058 N 
ATOM     19  N   UNL d   1     -41.782-123.549 -48.339  0.00  0.00    -0.151 NA
ATOM     20  C   UNL d   1     -42.528-123.519 -48.195  0.00  0.00     0.103 A 
ATOM     21  C   UNL d   1     -42.794-123.770 -47.541  0.00  0.00     0.022 C 
ATOM     22  C   UNL d   1     -42.986-123.237 -48.713  0.00  0.00     0.041 A 
ATOM     23  C   UNL d   1     -42.733-122.985 -49.365  0.00  0.00     0.102 A 
ATOM     24  C   UNL d   1     -43.204-122.701 -49.884  0.00  0.00     0.021 C 
ENDBRANCH   1  18
TORSDOF 5
ENDMDL
