MODEL 1
REMARK VINA RESULT:      20.6      0.000      0.000
REMARK  4 active torsions:
REMARK  status: ('A' for Active; 'I' for Inactive)
REMARK    1  A    between atoms: C_6  and  N_1 
REMARK    2  A    between atoms: C_11  and  C_6 
REMARK    3  A    between atoms: O_14  and  C_8 
REMARK    4  A    between atoms: O_15  and  C_9 
ROOT
ATOM      1  C   UNL d   1      46.352 -16.397  44.782  0.00  0.00     0.084 C 
ENDROOT
BRANCH   1   2
ATOM      2  N   UNL d   1      45.727 -15.858  44.768  0.00  0.00    -0.268 N 
ATOM      3  C   UNL d   1      44.924 -16.045  44.847  0.00  0.00     0.296 A 
ATOM      4  S   UNL d   1      44.496 -15.334  44.800  0.00  0.00    -0.025 SA
ATOM      5  O   UNL d   1      44.609 -16.800  44.953  0.00  0.00    -0.259 OA
ATOM      6  C   UNL d   1      45.035 -14.719  44.693  0.00  0.00     0.050 A 
ATOM      7  C   UNL d   1      45.795 -15.038  44.672  0.00  0.00     0.073 A 
ATOM      8  C   UNL d   1      44.940 -13.896  44.609  0.00  0.00     0.008 A 
ATOM      9  C   UNL d   1      46.454 -14.553  44.571  0.00  0.00     0.018 A 
ATOM     10  C   UNL d   1      46.354 -13.739  44.488  0.00  0.00     0.002 A 
ATOM     11  C   UNL d   1      45.594 -13.409  44.508  0.00  0.00     0.001 A 
ENDBRANCH   1   2
BRANCH   1  12
ATOM     12  C   UNL d   1      46.327 -17.072  44.300  0.00  0.00     0.020 A 
ATOM     13  C   UNL d   1      46.497 -17.802  44.624  0.00  0.00     0.028 A 
ATOM     14  C   UNL d   1      46.473 -18.472  44.150  0.00  0.00     0.116 A 
ATOM     15  C   UNL d   1      46.277 -18.408  43.342  0.00  0.00     0.116 A 
ATOM     16  C   UNL d   1      46.106 -17.664  43.025  0.00  0.00     0.026 A 
ATOM     17  C   UNL d   1      46.133 -16.992  43.510  0.00  0.00     0.004 A 
BRANCH  14  18
ATOM     18  O   UNL d   1      46.644 -19.212  44.471  0.00  0.00    -0.326 OA
ATOM     19  C   UNL d   1      46.028 -19.717  44.710  0.00  0.00     0.181 C 
ENDBRANCH  14  18
BRANCH  15  20
ATOM     20  O   UNL d   1      46.261 -19.098  42.893  0.00  0.00    -0.326 OA
ATOM     21  C   UNL d   1      46.327 -19.062  42.077  0.00  0.00     0.181 C 
ENDBRANCH  15  20
ENDBRANCH   1  12
TORSDOF 4
ENDMDL
MODEL 2
REMARK VINA RESULT:      23.6      1.464      4.204
REMARK  4 active torsions:
REMARK  status: ('A' for Active; 'I' for Inactive)
REMARK    1  A    between atoms: C_6  and  N_1 
REMARK    2  A    between atoms: C_11  and  C_6 
REMARK    3  A    between atoms: O_14  and  C_8 
REMARK    4  A    between atoms: O_15  and  C_9 
ROOT
ATOM      1  C   UNL d   1      46.101 -17.350  44.880  0.00  0.00     0.084 C 
ENDROOT
BRANCH   1   2
ATOM      2  N   UNL d   1      46.186 -17.757  44.168  0.00  0.00    -0.268 N 
ATOM      3  C   UNL d   1      46.134 -17.426  43.411  0.00  0.00     0.296 A 
ATOM      4  S   UNL d   1      46.255 -18.036  42.860  0.00  0.00    -0.025 SA
ATOM      5  O   UNL d   1      45.987 -16.632  43.237  0.00  0.00    -0.259 OA
ATOM      6  C   UNL d   1      46.380 -18.736  43.280  0.00  0.00     0.050 A 
ATOM      7  C   UNL d   1      46.339 -18.567  44.086  0.00  0.00     0.073 A 
ATOM      8  C   UNL d   1      46.530 -19.518  43.038  0.00  0.00     0.008 A 
ATOM      9  C   UNL d   1      46.444 -19.162  44.647  0.00  0.00     0.018 A 
ATOM     10  C   UNL d   1      46.591 -19.935  44.402  0.00  0.00     0.002 A 
ATOM     11  C   UNL d   1      46.635 -20.114  43.594  0.00  0.00     0.001 A 
ENDBRANCH   1   2
BRANCH   1  12
ATOM     12  C   UNL d   1      45.801 -16.576  44.882  0.00  0.00     0.020 A 
ATOM     13  C   UNL d   1      46.317 -15.946  44.822  0.00  0.00     0.028 A 
ATOM     14  C   UNL d   1      46.023 -15.180  44.824  0.00  0.00     0.116 A 
ATOM     15  C   UNL d   1      45.202 -15.045  44.885  0.00  0.00     0.116 A 
ATOM     16  C   UNL d   1      44.690 -15.691  44.945  0.00  0.00     0.026 A 
ATOM     17  C   UNL d   1      44.994 -16.461  44.943  0.00  0.00     0.004 A 
BRANCH  14  18
ATOM     18  O   UNL d   1      46.538 -14.539  44.764  0.00  0.00    -0.326 OA
ATOM     19  C   UNL d   1      46.241 -13.773  44.635  0.00  0.00     0.181 C 
ENDBRANCH  14  18
BRANCH  15  20
ATOM     20  O   UNL d   1      44.938 -14.265  44.884  0.00  0.00    -0.326 OA
ATOM     21  C   UNL d   1      44.258 -14.059  44.474  0.00  0.00     0.181 C 
ENDBRANCH  15  20
ENDBRANCH   1  12
TORSDOF 4
ENDMDL
