MODEL 1
REMARK VINA RESULT:      -5.1      0.000      0.000
REMARK  4 active torsions:
REMARK  status: ('A' for Active; 'I' for Inactive)
REMARK    1  A    between atoms: C_18  and  C_5 
REMARK    2  A    between atoms: C_7  and  C_8 
REMARK       I    between atoms: C_8  and  N_17 
REMARK    3  A    between atoms: N_17  and  C_19 
REMARK    4  A    between atoms: C_19  and  C_18 
ROOT
ATOM      1  C   UNL d   1     -42.327-122.601 -50.243  0.00  0.00     0.148 A 
ATOM      2  N   UNL d   1     -41.572-122.923 -50.155  0.00  0.00    -0.288 N 
ATOM      3  N   UNL d   1     -42.342-122.172 -50.938  0.00  0.00    -0.227 NA
ATOM      4  C   UNL d   1     -41.123-122.684 -50.810  0.00  0.00     0.101 A 
ATOM      5  C   UNL d   1     -41.604-122.219 -51.291  0.00  0.00     0.102 A 
ATOM      6  C   UNL d   1     -42.897-122.750 -49.665  0.00  0.00     0.035 A 
ATOM      7  C   UNL d   1     -41.387-123.387 -49.502  0.00  0.00     0.082 A 
ATOM      8  C   UNL d   1     -41.957-123.532 -48.932  0.00  0.00     0.019 A 
ATOM      9  C   UNL d   1     -42.720-123.212 -49.010  0.00  0.00     0.004 A 
ATOM     10  C   UNL d   1     -43.665-122.429 -49.743  0.00  0.00     0.003 C 
ENDROOT
BRANCH   5  11
ATOM     11  C   UNL d   1     -41.385-121.860 -52.007  0.00  0.00     0.042 C 
BRANCH  11  12
ATOM     12  C   UNL d   1     -41.753-122.089 -52.713  0.00  0.00     0.104 C 
BRANCH  12  13
ATOM     13  N   UNL d   1     -41.900-121.533 -53.298  0.00  0.00    -0.205 NA
ATOM     14  C   UNL d   1     -41.931-121.763 -54.092  0.00  0.00     0.302 C 
ATOM     15  O   UNL d   1     -42.077-121.208 -54.667  0.00  0.00    -0.263 OA
BRANCH  14  16
ATOM     16  C   UNL d   1     -41.812-122.557 -54.290  0.00  0.00     0.158 A 
ATOM     17  O   UNL d   1     -42.449-123.069 -54.332  0.00  0.00    -0.300 OA
ATOM     18  C   UNL d   1     -42.166-123.817 -54.540  0.00  0.00     0.123 A 
ATOM     19  C   UNL d   1     -41.359-123.768 -54.626  0.00  0.00     0.029 A 
ATOM     20  C   UNL d   1     -41.131-122.980 -54.471  0.00  0.00     0.032 A 
ENDBRANCH  14  16
ENDBRANCH  12  13
ENDBRANCH  11  12
ENDBRANCH   5  11
TORSDOF 4
ENDMDL
MODEL 2
REMARK VINA RESULT:      -4.9      1.803      4.344
REMARK  4 active torsions:
REMARK  status: ('A' for Active; 'I' for Inactive)
REMARK    1  A    between atoms: C_18  and  C_5 
REMARK    2  A    between atoms: C_7  and  C_8 
REMARK       I    between atoms: C_8  and  N_17 
REMARK    3  A    between atoms: N_17  and  C_19 
REMARK    4  A    between atoms: C_19  and  C_18 
ROOT
ATOM      1  C   UNL d   1     -41.767-122.444 -53.697  0.00  0.00     0.148 A 
ATOM      2  N   UNL d   1     -41.379-123.160 -53.558  0.00  0.00    -0.288 N 
ATOM      3  N   UNL d   1     -41.752-122.009 -53.006  0.00  0.00    -0.227 NA
ATOM      4  C   UNL d   1     -41.126-123.156 -52.768  0.00  0.00     0.101 A 
ATOM      5  C   UNL d   1     -41.359-122.442 -52.432  0.00  0.00     0.102 A 
ATOM      6  C   UNL d   1     -42.080-122.296 -54.446  0.00  0.00     0.035 A 
ATOM      7  C   UNL d   1     -41.305-123.721 -54.156  0.00  0.00     0.082 A 
ATOM      8  C   UNL d   1     -41.618-123.567 -54.897  0.00  0.00     0.019 A 
ATOM      9  C   UNL d   1     -42.010-122.849 -55.048  0.00  0.00     0.004 A 
ATOM     10  C   UNL d   1     -42.474-121.575 -54.598  0.00  0.00     0.003 C 
ENDROOT
BRANCH   5  11
ATOM     11  C   UNL d   1     -41.223-122.198 -51.650  0.00  0.00     0.042 C 
BRANCH  11  12
ATOM     12  C   UNL d   1     -41.525-122.642 -51.019  0.00  0.00     0.104 C 
BRANCH  12  13
ATOM     13  N   UNL d   1     -41.124-122.664 -50.304  0.00  0.00    -0.205 NA
ATOM     14  C   UNL d   1     -41.525-122.874 -49.611  0.00  0.00     0.302 C 
ATOM     15  O   UNL d   1     -41.123-122.894 -48.904  0.00  0.00    -0.263 OA
BRANCH  14  16
ATOM     16  C   UNL d   1     -42.329-123.060 -49.645  0.00  0.00     0.158 A 
ATOM     17  O   UNL d   1     -42.890-122.463 -49.628  0.00  0.00    -0.300 OA
ATOM     18  C   UNL d   1     -43.638-122.810 -49.670  0.00  0.00     0.123 A 
ATOM     19  C   UNL d   1     -43.541-123.617 -49.714  0.00  0.00     0.029 A 
ATOM     20  C   UNL d   1     -42.723-123.779 -49.699  0.00  0.00     0.032 A 
ENDBRANCH  14  16
ENDBRANCH  12  13
ENDBRANCH  11  12
ENDBRANCH   5  11
TORSDOF 4
ENDMDL
