MODEL 1
REMARK VINA RESULT:      27.8      0.000      0.000
REMARK  3 active torsions:
REMARK  status: ('A' for Active; 'I' for Inactive)
REMARK    1  A    between atoms: N_3  and  C_2 
REMARK       I    between atoms: C_4  and  N_3 
REMARK    2  A    between atoms: C_10  and  N_3 
REMARK    3  A    between atoms: C_12  and  C_4 
ROOT
ATOM      1  N   UNL d   1      13.807  13.193  -3.034  0.00  0.00    -0.274 N 
ATOM      2  C   UNL d   1      13.852  14.434  -3.206  0.00  0.00     0.265 C 
ATOM      3  O   UNL d   1      14.156  14.815  -2.570  0.00  0.00    -0.267 OA
ENDROOT
BRANCH   1   4
ATOM      4  C   UNL d   1      13.514  12.774  -3.635  0.00  0.00     0.079 A 
ATOM      5  C   UNL d   1      13.827  12.718  -4.354  0.00  0.00     0.116 A 
ATOM      6  S   UNL d   1      13.365  12.249  -4.781  0.00  0.00     0.213 S 
ATOM      7  C   UNL d   1      12.770  12.019  -4.322  0.00  0.00     0.100 A 
ATOM      8  O   UNL d   1      12.902  11.780  -5.209  0.00  0.00    -0.217 OA
ATOM      9  O   UNL d   1      13.941  12.458  -5.264  0.00  0.00    -0.217 OA
ATOM     10  C   UNL d   1      12.862  12.342  -3.619  0.00  0.00     0.030 A 
ENDBRANCH   1   4
BRANCH   1  11
ATOM     11  C   UNL d   1      14.069  12.839  -2.335  0.00  0.00     0.067 A 
ATOM     12  C   UNL d   1      14.692  13.178  -1.925  0.00  0.00     0.020 A 
ATOM     13  C   UNL d   1      14.964  12.820  -1.210  0.00  0.00     0.031 A 
ATOM     14  C   UNL d   1      14.597  12.132  -0.931  0.00  0.00     0.140 A 
ATOM     15  C   UNL d   1      13.971  11.796  -1.347  0.00  0.00     0.031 A 
ATOM     16  F   UNL d   1      14.858  11.780  -0.235  0.00  0.00    -0.204 F 
ATOM     17  C   UNL d   1      13.695  12.134  -2.047  0.00  0.00     0.020 A 
ENDBRANCH   1  11
BRANCH   2  18
ATOM     18  C   UNL d   1      13.595  14.811  -3.897  0.00  0.00     0.057 C 
ATOM     19  C   UNL d   1      12.777  14.870  -4.073  0.00  0.00     0.005 C 
ATOM     20  C   UNL d   1      14.163  15.138  -4.430  0.00  0.00     0.005 C 
ENDBRANCH   2  18
TORSDOF 3
ENDMDL
