MODEL 1
REMARK VINA RESULT:     132.6      0.000      0.000
REMARK  4 active torsions:
REMARK  status: ('A' for Active; 'I' for Inactive)
REMARK    1  A    between atoms: C_2  and  S_1 
REMARK    2  A    between atoms: N_3  and  S_1 
REMARK    3  A    between atoms: C_7  and  C_14 
REMARK       I    between atoms: N_9  and  C_7 
REMARK    4  A    between atoms: C_13  and  N_10 
ROOT
ATOM      1  N   UNL d   1     -57.424-100.059 -44.735  0.00  0.00    -0.229 N 
ATOM      2  C   UNL d   1     -56.110-100.685 -43.932  0.00  0.00     0.060 A 
ATOM      3  C   UNL d   1     -57.540-100.580 -44.104  0.00  0.00     0.092 A 
ATOM      4  C   UNL d   1     -56.658 -99.856 -44.960  0.00  0.00     0.092 A 
ATOM      5  C   UNL d   1     -56.008-100.166 -44.563  0.00  0.00     0.025 A 
ATOM      6  C   UNL d   1     -56.875-100.896 -43.697  0.00  0.00     0.025 A 
ENDROOT
BRANCH   2   7
ATOM      7  C   UNL d   1     -55.459-100.995 -43.534  0.00  0.00     0.265 C 
ATOM      8  N   UNL d   1     -55.533-101.291 -42.784  0.00  0.00    -0.269 N 
ATOM      9  C   UNL d   1     -56.273-101.286 -42.405  0.00  0.00     0.102 A 
ATOM     10  C   UNL d   1     -54.882-101.600 -42.387  0.00  0.00     0.102 A 
ATOM     11  C   UNL d   1     -56.359-101.585 -41.641  0.00  0.00     0.100 A 
ATOM     12  N   UNL d   1     -55.696-101.896 -41.246  0.00  0.00    -0.301 N 
ATOM     13  C   UNL d   1     -54.955-101.902 -41.626  0.00  0.00     0.100 A 
ATOM     14  O   UNL d   1     -54.719-101.000 -43.913  0.00  0.00    -0.267 OA
BRANCH  12  15
ATOM     15  C   UNL d   1     -55.348-102.252 -40.577  0.00  0.00     0.064 A 
ATOM     16  C   UNL d   1     -54.873-102.849 -40.261  0.00  0.00     0.020 A 
ATOM     17  C   UNL d   1     -54.741-102.879 -39.441  0.00  0.00     0.031 A 
ATOM     18  C   UNL d   1     -55.093-102.303 -38.951  0.00  0.00     0.140 A 
ATOM     19  C   UNL d   1     -55.567-101.710 -39.271  0.00  0.00     0.031 A 
ATOM     20  F   UNL d   1     -54.965-102.326 -38.119  0.00  0.00    -0.204 F 
ATOM     21  C   UNL d   1     -55.694-101.687 -40.093  0.00  0.00     0.020 A 
ENDBRANCH  12  15
ENDBRANCH   2   7
BRANCH   1  22
ATOM     22  S   UNL d   1     -58.075 -99.750 -45.133  0.00  0.00     0.275 S 
ATOM     23  O   UNL d   1     -58.222 -99.252 -44.484  0.00  0.00    -0.199 OA
ATOM     24  O   UNL d   1     -57.915-100.256 -45.779  0.00  0.00    -0.199 OA
BRANCH  22  25
ATOM     25  C   UNL d   1     -58.732 -99.437 -45.535  0.00  0.00     0.148 A 
ATOM     26  C   UNL d   1     -58.934 -99.422 -46.331  0.00  0.00     0.139 A 
ATOM     27  O   UNL d   1     -59.654 -99.035 -46.405  0.00  0.00    -0.210 OA
ATOM     28  C   UNL d   1     -58.482 -99.744 -46.946  0.00  0.00     0.030 C 
ATOM     29  N   UNL d   1     -59.907 -98.806 -45.652  0.00  0.00    -0.126 NA
ATOM     30  C   UNL d   1     -59.325 -99.060 -45.107  0.00  0.00     0.122 A 
ATOM     31  C   UNL d   1     -59.346 -98.949 -44.286  0.00  0.00     0.024 C 
ENDBRANCH  22  25
ENDBRANCH   1  22
TORSDOF 4
ENDMDL
