MODEL 1
REMARK VINA RESULT:      -8.7      0.000      0.000
REMARK  7 active torsions:
REMARK  status: ('A' for Active; 'I' for Inactive)
REMARK    1  A    between atoms: C_6  and  N_1 
REMARK    2  A    between atoms: C_9  and  C_5 
REMARK    3  A    between atoms: C_7  and  C_6 
REMARK       I    between atoms: N_10  and  C_7 
REMARK    4  A    between atoms: C_12  and  C_9 
REMARK    5  A    between atoms: C_15  and  N_10 
REMARK    6  A    between atoms: C_14  and  C_12 
REMARK    7  A    between atoms: C_17  and  C_14 
ROOT
ATOM      1  N   UNL d   1      52.361  33.726  52.981  0.00  0.00    -0.230 N 
ATOM      2  C   UNL d   1      52.497  34.298  53.548  0.00  0.00     0.299 A 
ATOM      3  C   UNL d   1      51.587  33.820  52.705  0.00  0.00     0.274 A 
ATOM      4  S   UNL d   1      51.813  34.742  53.622  0.00  0.00    -0.022 SA
ATOM      5  C   UNL d   1      51.253  34.448  53.104  0.00  0.00     0.090 A 
ATOM      6  O   UNL d   1      53.204  34.403  53.967  0.00  0.00    -0.259 OA
ATOM      7  O   UNL d   1      51.222  33.364  52.134  0.00  0.00    -0.266 OA
ENDROOT
BRANCH   1   8
ATOM      8  C   UNL d   1      52.904  33.158  52.731  0.00  0.00     0.149 C 
BRANCH   8   9
ATOM      9  C   UNL d   1      52.944  32.425  53.125  0.00  0.00     0.297 C 
ATOM     10  N   UNL d   1      53.060  31.731  52.695  0.00  0.00    -0.207 NA
ATOM     11  O   UNL d   1      52.866  32.401  53.952  0.00  0.00    -0.264 OA
BRANCH  10  12
ATOM     12  C   UNL d   1      53.099  31.006  53.088  0.00  0.00     0.085 A 
ATOM     13  C   UNL d   1      53.752  30.823  53.565  0.00  0.00     0.022 A 
ATOM     14  C   UNL d   1      53.791  30.099  53.957  0.00  0.00     0.044 A 
ATOM     15  C   UNL d   1      53.173  29.550  53.873  0.00  0.00     0.196 A 
ATOM     16  C   UNL d   1      52.517  29.732  53.394  0.00  0.00     0.044 A 
ATOM     17  O   UNL d   1      53.211  28.822  54.267  0.00  0.00    -0.287 OA
ATOM     18  C   UNL d   1      52.483  30.464  53.001  0.00  0.00     0.022 A 
ENDBRANCH  10  12
ENDBRANCH   8   9
ENDBRANCH   1   8
BRANCH   5  19
ATOM     19  C   UNL d   1      50.537  34.374  52.707  0.00  0.00     0.011 C 
BRANCH  19  20
ATOM     20  C   UNL d   1      49.912  34.892  52.882  0.00  0.00     0.001 C 
BRANCH  20  21
ATOM     21  C   UNL d   1      49.176  34.777  52.532  0.00  0.00     0.000 C 
BRANCH  21  22
ATOM     22  C   UNL d   1      48.590  35.353  52.602  0.00  0.00     0.000 A 
ATOM     23  C   UNL d   1      48.112  35.527  51.947  0.00  0.00     0.000 A 
ATOM     24  C   UNL d   1      47.520  36.105  52.013  0.00  0.00     0.000 A 
ATOM     25  C   UNL d   1      47.412  36.500  52.725  0.00  0.00     0.000 A 
ATOM     26  C   UNL d   1      47.896  36.319  53.376  0.00  0.00     0.000 A 
ATOM     27  C   UNL d   1      48.477  35.748  53.306  0.00  0.00     0.000 A 
ENDBRANCH  21  22
ENDBRANCH  20  21
ENDBRANCH  19  20
ENDBRANCH   5  19
TORSDOF 7
ENDMDL
MODEL 2
REMARK VINA RESULT:      -7.6      1.957      2.493
REMARK  7 active torsions:
REMARK  status: ('A' for Active; 'I' for Inactive)
REMARK    1  A    between atoms: C_6  and  N_1 
REMARK    2  A    between atoms: C_9  and  C_5 
REMARK    3  A    between atoms: C_7  and  C_6 
REMARK       I    between atoms: N_10  and  C_7 
REMARK    4  A    between atoms: C_12  and  C_9 
REMARK    5  A    between atoms: C_15  and  N_10 
REMARK    6  A    between atoms: C_14  and  C_12 
REMARK    7  A    between atoms: C_17  and  C_14 
ROOT
ATOM      1  N   UNL d   1      51.236  33.679  52.750  0.00  0.00    -0.230 N 
ATOM      2  C   UNL d   1      51.297  33.993  51.999  0.00  0.00     0.299 A 
ATOM      3  C   UNL d   1      50.568  34.010  53.110  0.00  0.00     0.274 A 
ATOM      4  S   UNL d   1      50.674  34.513  51.894  0.00  0.00    -0.022 SA
ATOM      5  C   UNL d   1      50.225  34.525  52.577  0.00  0.00     0.090 A 
ATOM      6  O   UNL d   1      51.889  33.810  51.448  0.00  0.00    -0.259 OA
ATOM      7  O   UNL d   1      50.300  33.851  53.865  0.00  0.00    -0.266 OA
ENDROOT
BRANCH   1   8
ATOM      8  C   UNL d   1      51.750  33.130  53.087  0.00  0.00     0.149 C 
BRANCH   8   9
ATOM      9  C   UNL d   1      52.454  33.392  53.447  0.00  0.00     0.297 C 
ATOM     10  N   UNL d   1      52.900  32.872  53.908  0.00  0.00    -0.207 NA
ATOM     11  O   UNL d   1      52.701  34.177  53.339  0.00  0.00    -0.264 OA
BRANCH  10  12
ATOM     12  C   UNL d   1      53.597  33.134  54.265  0.00  0.00     0.085 A 
ATOM     13  C   UNL d   1      54.326  33.027  53.885  0.00  0.00     0.022 A 
ATOM     14  C   UNL d   1      55.022  33.288  54.241  0.00  0.00     0.044 A 
ATOM     15  C   UNL d   1      54.992  33.661  54.984  0.00  0.00     0.196 A 
ATOM     16  C   UNL d   1      54.261  33.768  55.365  0.00  0.00     0.044 A 
ATOM     17  O   UNL d   1      55.692  33.923  55.342  0.00  0.00    -0.287 OA
ATOM     18  C   UNL d   1      53.562  33.502  55.002  0.00  0.00     0.022 A 
ENDBRANCH  10  12
ENDBRANCH   8   9
ENDBRANCH   1   8
BRANCH   5  19
ATOM     19  C   UNL d   1      49.623  34.729  53.098  0.00  0.00     0.011 C 
BRANCH  19  20
ATOM     20  C   UNL d   1      48.985  35.188  52.831  0.00  0.00     0.001 C 
BRANCH  20  21
ATOM     21  C   UNL d   1      48.629  35.728  53.340  0.00  0.00     0.000 C 
BRANCH  21  22
ATOM     22  C   UNL d   1      47.872  36.012  53.180  0.00  0.00     0.000 A 
ATOM     23  C   UNL d   1      47.340  36.127  53.806  0.00  0.00     0.000 A 
ATOM     24  C   UNL d   1      46.577  36.413  53.650  0.00  0.00     0.000 A 
ATOM     25  C   UNL d   1      46.354  36.580  52.876  0.00  0.00     0.000 A 
ATOM     26  C   UNL d   1      46.893  36.462  52.255  0.00  0.00     0.000 A 
ATOM     27  C   UNL d   1      47.644  36.180  52.415  0.00  0.00     0.000 A 
ENDBRANCH  21  22
ENDBRANCH  20  21
ENDBRANCH  19  20
ENDBRANCH   5  19
TORSDOF 7
ENDMDL
MODEL 3
REMARK VINA RESULT:      -6.6      2.835      6.631
REMARK  7 active torsions:
REMARK  status: ('A' for Active; 'I' for Inactive)
REMARK    1  A    between atoms: C_6  and  N_1 
REMARK    2  A    between atoms: C_9  and  C_5 
REMARK    3  A    between atoms: C_7  and  C_6 
REMARK       I    between atoms: N_10  and  C_7 
REMARK    4  A    between atoms: C_12  and  C_9 
REMARK    5  A    between atoms: C_15  and  N_10 
REMARK    6  A    between atoms: C_14  and  C_12 
REMARK    7  A    between atoms: C_17  and  C_14 
ROOT
ATOM      1  N   UNL d   1      48.469  35.381  51.925  0.00  0.00    -0.230 N 
ATOM      2  C   UNL d   1      48.458  34.835  51.317  0.00  0.00     0.299 A 
ATOM      3  C   UNL d   1      49.103  35.193  52.423  0.00  0.00     0.274 A 
ATOM      4  S   UNL d   1      49.078  34.315  51.437  0.00  0.00    -0.022 SA
ATOM      5  C   UNL d   1      49.476  34.534  52.118  0.00  0.00     0.090 A 
ATOM      6  O   UNL d   1      47.912  34.820  50.694  0.00  0.00    -0.259 OA
ATOM      7  O   UNL d   1      49.317  35.596  53.100  0.00  0.00    -0.266 OA
ENDROOT
BRANCH   1   8
ATOM      8  C   UNL d   1      47.940  36.006  52.021  0.00  0.00     0.149 C 
BRANCH   8   9
ATOM      9  C   UNL d   1      47.257  35.899  52.485  0.00  0.00     0.297 C 
ATOM     10  N   UNL d   1      47.028  36.482  53.023  0.00  0.00    -0.207 NA
ATOM     11  O   UNL d   1      46.810  35.204  52.401  0.00  0.00    -0.264 OA
BRANCH  10  12
ATOM     12  C   UNL d   1      46.351  36.375  53.482  0.00  0.00     0.085 A 
ATOM     13  C   UNL d   1      45.600  36.491  53.151  0.00  0.00     0.022 A 
ATOM     14  C   UNL d   1      44.922  36.384  53.609  0.00  0.00     0.044 A 
ATOM     15  C   UNL d   1      44.994  36.158  54.406  0.00  0.00     0.196 A 
ATOM     16  C   UNL d   1      45.748  36.041  54.738  0.00  0.00     0.044 A 
ATOM     17  O   UNL d   1      44.314  36.050  54.867  0.00  0.00    -0.287 OA
ATOM     18  C   UNL d   1      46.427  36.150  54.271  0.00  0.00     0.022 A 
ENDBRANCH  10  12
ENDBRANCH   8   9
ENDBRANCH   1   8
BRANCH   5  19
ATOM     19  C   UNL d   1      50.034  34.519  52.721  0.00  0.00     0.011 C 
BRANCH  19  20
ATOM     20  C   UNL d   1      50.706  34.037  52.648  0.00  0.00     0.001 C 
BRANCH  20  21
ATOM     21  C   UNL d   1      51.084  33.760  53.325  0.00  0.00     0.000 C 
BRANCH  21  22
ATOM     22  C   UNL d   1      51.833  33.418  53.271  0.00  0.00     0.000 A 
ATOM     23  C   UNL d   1      52.501  33.878  53.441  0.00  0.00     0.000 A 
ATOM     24  C   UNL d   1      53.257  33.539  53.388  0.00  0.00     0.000 A 
ATOM     25  C   UNL d   1      53.337  32.751  53.168  0.00  0.00     0.000 A 
ATOM     26  C   UNL d   1      52.661  32.298  52.999  0.00  0.00     0.000 A 
ATOM     27  C   UNL d   1      51.919  32.638  53.053  0.00  0.00     0.000 A 
ENDBRANCH  21  22
ENDBRANCH  20  21
ENDBRANCH  19  20
ENDBRANCH   5  19
TORSDOF 7
ENDMDL
MODEL 4
REMARK VINA RESULT:      -6.0      1.498      5.755
REMARK  7 active torsions:
REMARK  status: ('A' for Active; 'I' for Inactive)
REMARK    1  A    between atoms: C_6  and  N_1 
REMARK    2  A    between atoms: C_9  and  C_5 
REMARK    3  A    between atoms: C_7  and  C_6 
REMARK       I    between atoms: N_10  and  C_7 
REMARK    4  A    between atoms: C_12  and  C_9 
REMARK    5  A    between atoms: C_15  and  N_10 
REMARK    6  A    between atoms: C_14  and  C_12 
REMARK    7  A    between atoms: C_17  and  C_14 
ROOT
ATOM      1  N   UNL d   1      53.132  33.552  53.407  0.00  0.00    -0.230 N 
ATOM      2  C   UNL d   1      53.475  33.685  54.136  0.00  0.00     0.299 A 
ATOM      3  C   UNL d   1      53.183  32.742  53.247  0.00  0.00     0.274 A 
ATOM      4  S   UNL d   1      53.736  32.965  54.425  0.00  0.00    -0.022 SA
ATOM      5  C   UNL d   1      53.557  32.384  53.879  0.00  0.00     0.090 A 
ATOM      6  O   UNL d   1      53.543  34.423  54.509  0.00  0.00    -0.259 OA
ATOM      7  O   UNL d   1      52.908  32.366  52.576  0.00  0.00    -0.266 OA
ENDROOT
BRANCH   1   8
ATOM      8  C   UNL d   1      52.796  34.126  52.921  0.00  0.00     0.149 C 
BRANCH   8   9
ATOM      9  C   UNL d   1      51.968  34.218  52.904  0.00  0.00     0.297 C 
ATOM     10  N   UNL d   1      51.585  34.382  52.191  0.00  0.00    -0.207 NA
ATOM     11  O   UNL d   1      51.534  34.144  53.609  0.00  0.00    -0.264 OA
BRANCH  10  12
ATOM     12  C   UNL d   1      50.765  34.473  52.177  0.00  0.00     0.085 A 
ATOM     13  C   UNL d   1      50.372  34.820  52.819  0.00  0.00     0.022 A 
ATOM     14  C   UNL d   1      49.553  34.911  52.805  0.00  0.00     0.044 A 
ATOM     15  C   UNL d   1      49.119  34.654  52.144  0.00  0.00     0.196 A 
ATOM     16  C   UNL d   1      49.513  34.306  51.499  0.00  0.00     0.044 A 
ATOM     17  O   UNL d   1      48.296  34.745  52.129  0.00  0.00    -0.287 OA
ATOM     18  C   UNL d   1      50.340  34.216  51.519  0.00  0.00     0.022 A 
ENDBRANCH  10  12
ENDBRANCH   8   9
ENDBRANCH   1   8
BRANCH   5  19
ATOM     19  C   UNL d   1      53.508  31.637  53.539  0.00  0.00     0.011 C 
BRANCH  19  20
ATOM     20  C   UNL d   1      53.581  30.961  54.016  0.00  0.00     0.001 C 
BRANCH  20  21
ATOM     21  C   UNL d   1      53.329  30.231  53.731  0.00  0.00     0.000 C 
BRANCH  21  22
ATOM     22  C   UNL d   1      53.381  29.560  54.207  0.00  0.00     0.000 A 
ATOM     23  C   UNL d   1      53.792  28.897  53.929  0.00  0.00     0.000 A 
ATOM     24  C   UNL d   1      53.848  28.218  54.405  0.00  0.00     0.000 A 
ATOM     25  C   UNL d   1      53.495  28.210  55.147  0.00  0.00     0.000 A 
ATOM     26  C   UNL d   1      53.084  28.880  55.417  0.00  0.00     0.000 A 
ATOM     27  C   UNL d   1      53.033  29.545  54.944  0.00  0.00     0.000 A 
ENDBRANCH  21  22
ENDBRANCH  20  21
ENDBRANCH  19  20
ENDBRANCH   5  19
TORSDOF 7
ENDMDL
