MODEL 1
REMARK VINA RESULT:     -10.0      0.000      0.000
REMARK  3 active torsions:
REMARK  status: ('A' for Active; 'I' for Inactive)
REMARK    1  A    between atoms: C_10  and  C_2 
REMARK    2  A    between atoms: C_4  and  C_10 
REMARK    3  A    between atoms: C_27  and  N_13 
ROOT
ATOM      1  C   UNL d   1      53.332  33.234  54.044  0.00  0.00     0.093 A 
ATOM      2  C   UNL d   1      52.454  34.204  53.020  0.00  0.00     0.035 A 
ATOM      3  C   UNL d   1      52.884  32.893  53.506  0.00  0.00    -0.012 A 
ATOM      4  C   UNL d   1      53.291  30.750  53.948  0.00  0.00     0.056 A 
ATOM      5  C   UNL d   1      52.905  34.557  53.562  0.00  0.00     0.180 A 
ATOM      6  C   UNL d   1      52.848  30.412  53.415  0.00  0.00    -0.012 A 
ATOM      7  C   UNL d   1      53.309  31.577  53.985  0.00  0.00    -0.016 A 
ATOM      8  C   UNL d   1      52.874  32.060  53.477  0.00  0.00    -0.007 A 
ATOM      9  C   UNL d   1      52.449  33.377  52.998  0.00  0.00    -0.001 A 
ATOM     10  C   UNL d   1      52.410  30.903  52.905  0.00  0.00    -0.004 A 
ATOM     11  C   UNL d   1      53.770  32.743  54.555  0.00  0.00    -0.016 A 
ATOM     12  C   UNL d   1      52.423  31.727  52.936  0.00  0.00    -0.001 A 
ATOM     13  C   UNL d   1      53.757  31.918  54.524  0.00  0.00    -0.007 A 
ATOM     14  C   UNL d   1      53.726  30.266  54.456  0.00  0.00    -0.015 A 
ATOM     15  C   UNL d   1      52.830  29.564  53.378  0.00  0.00     0.038 A 
ATOM     16  O   UNL d   1      53.028  35.310  53.722  0.00  0.00    -0.291 OA
ATOM     17  C   UNL d   1      53.785  33.578  54.589  0.00  0.00     0.017 C 
ATOM     18  C   UNL d   1      53.725  29.422  54.439  0.00  0.00     0.038 A 
ATOM     19  C   UNL d   1      53.272  29.078  53.894  0.00  0.00     0.195 A 
ATOM     20  C   UNL d   1      53.905  31.207  54.687  0.00  0.00     0.013 C 
ATOM     21  O   UNL d   1      53.255  28.269  53.858  0.00  0.00    -0.287 OA
ENDROOT
BRANCH   2  22
ATOM     22  C   UNL d   1      52.014  34.645  52.505  0.00  0.00     0.006 C 
BRANCH  22  23
ATOM     23  C   UNL d   1      51.194  34.605  52.476  0.00  0.00     0.039 A 
ATOM     24  C   UNL d   1      50.634  34.477  51.913  0.00  0.00     0.085 A 
ATOM     25  N   UNL d   1      49.882  34.515  52.289  0.00  0.00    -0.228 N 
ATOM     26  C   UNL d   1      50.871  34.338  51.117  0.00  0.00     0.021 C 
ATOM     27  N   UNL d   1      49.977  34.669  53.089  0.00  0.00    -0.164 NA
ATOM     28  C   UNL d   1      50.797  34.725  53.206  0.00  0.00     0.122 A 
BRANCH  25  29
ATOM     29  C   UNL d   1      49.148  34.411  51.896  0.00  0.00     0.101 C 
ATOM     30  C   UNL d   1      48.480  34.891  52.110  0.00  0.00     0.022 C 
ENDBRANCH  25  29
ENDBRANCH  22  23
ENDBRANCH   2  22
TORSDOF 3
ENDMDL
MODEL 2
REMARK VINA RESULT:      -8.3      2.021      4.761
REMARK  3 active torsions:
REMARK  status: ('A' for Active; 'I' for Inactive)
REMARK    1  A    between atoms: C_10  and  C_2 
REMARK    2  A    between atoms: C_4  and  C_10 
REMARK    3  A    between atoms: C_27  and  N_13 
ROOT
ATOM      1  C   UNL d   1      52.968  33.944  53.804  0.00  0.00     0.093 A 
ATOM      2  C   UNL d   1      53.764  32.501  53.590  0.00  0.00     0.035 A 
ATOM      3  C   UNL d   1      52.612  33.383  53.399  0.00  0.00    -0.012 A 
ATOM      4  C   UNL d   1      50.699  34.405  52.897  0.00  0.00     0.056 A 
ATOM      5  C   UNL d   1      54.131  33.064  54.002  0.00  0.00     0.180 A 
ATOM      6  C   UNL d   1      50.347  33.849  52.496  0.00  0.00    -0.012 A 
ATOM      7  C   UNL d   1      51.456  34.258  53.202  0.00  0.00    -0.016 A 
ATOM      8  C   UNL d   1      51.852  33.542  53.097  0.00  0.00    -0.007 A 
ATOM      9  C   UNL d   1      53.009  32.666  53.293  0.00  0.00    -0.001 A 
ATOM     10  C   UNL d   1      50.750  33.128  52.392  0.00  0.00    -0.004 A 
ATOM     11  C   UNL d   1      52.565  34.666  53.908  0.00  0.00    -0.016 A 
ATOM     12  C   UNL d   1      51.503  32.974  52.693  0.00  0.00    -0.001 A 
ATOM     13  C   UNL d   1      51.812  34.819  53.608  0.00  0.00    -0.007 A 
ATOM     14  C   UNL d   1      50.303  35.121  53.002  0.00  0.00    -0.015 A 
ATOM     15  C   UNL d   1      49.572  34.002  52.184  0.00  0.00     0.038 A 
ATOM     16  O   UNL d   1      54.830  33.080  54.347  0.00  0.00    -0.291 OA
ATOM     17  C   UNL d   1      53.328  34.512  54.214  0.00  0.00     0.017 C 
ATOM     18  C   UNL d   1      49.534  35.296  52.703  0.00  0.00     0.038 A 
ATOM     19  C   UNL d   1      49.173  34.728  52.293  0.00  0.00     0.195 A 
ATOM     20  C   UNL d   1      51.179  35.178  53.450  0.00  0.00     0.013 C 
ATOM     21  O   UNL d   1      48.434  34.872  51.995  0.00  0.00    -0.287 OA
ENDROOT
BRANCH   2  22
ATOM     22  C   UNL d   1      54.121  31.787  53.467  0.00  0.00     0.006 C 
BRANCH  22  23
ATOM     23  C   UNL d   1      53.841  31.088  53.795  0.00  0.00     0.039 A 
ATOM     24  C   UNL d   1      53.634  30.357  53.529  0.00  0.00     0.085 A 
ATOM     25  N   UNL d   1      53.389  29.904  54.195  0.00  0.00    -0.228 N 
ATOM     26  C   UNL d   1      53.692  30.184  52.707  0.00  0.00     0.021 C 
ATOM     27  N   UNL d   1      53.444  30.357  54.876  0.00  0.00    -0.164 NA
ATOM     28  C   UNL d   1      53.727  31.096  54.627  0.00  0.00     0.122 A 
BRANCH  25  29
ATOM     29  C   UNL d   1      53.127  29.108  54.158  0.00  0.00     0.101 C 
ATOM     30  C   UNL d   1      53.283  28.579  54.805  0.00  0.00     0.022 C 
ENDBRANCH  25  29
ENDBRANCH  22  23
ENDBRANCH   2  22
TORSDOF 3
ENDMDL
MODEL 3
REMARK VINA RESULT:      -7.7      2.091      3.249
REMARK  3 active torsions:
REMARK  status: ('A' for Active; 'I' for Inactive)
REMARK    1  A    between atoms: C_10  and  C_2 
REMARK    2  A    between atoms: C_4  and  C_10 
REMARK    3  A    between atoms: C_27  and  N_13 
ROOT
ATOM      1  C   UNL d   1      51.252  33.254  52.994  0.00  0.00     0.093 A 
ATOM      2  C   UNL d   1      50.217  34.462  52.515  0.00  0.00     0.035 A 
ATOM      3  C   UNL d   1      51.438  33.990  53.169  0.00  0.00    -0.012 A 
ATOM      4  C   UNL d   1      53.363  33.673  54.239  0.00  0.00     0.056 A 
ATOM      5  C   UNL d   1      50.022  33.720  52.335  0.00  0.00     0.180 A 
ATOM      6  C   UNL d   1      53.547  34.402  54.412  0.00  0.00    -0.012 A 
ATOM      7  C   UNL d   1      52.661  33.527  53.824  0.00  0.00    -0.016 A 
ATOM      8  C   UNL d   1      52.146  34.126  53.586  0.00  0.00    -0.007 A 
ATOM      9  C   UNL d   1      50.922  34.589  52.930  0.00  0.00    -0.001 A 
ATOM     10  C   UNL d   1      53.024  35.003  54.169  0.00  0.00    -0.004 A 
ATOM     11  C   UNL d   1      51.775  32.652  53.237  0.00  0.00    -0.016 A 
ATOM     12  C   UNL d   1      52.323  34.865  53.756  0.00  0.00    -0.001 A 
ATOM     13  C   UNL d   1      52.475  32.791  53.650  0.00  0.00    -0.007 A 
ATOM     14  C   UNL d   1      53.878  33.075  54.478  0.00  0.00    -0.015 A 
ATOM     15  C   UNL d   1      54.266  34.550  54.837  0.00  0.00     0.038 A 
ATOM     16  O   UNL d   1      49.408  33.423  51.956  0.00  0.00    -0.291 OA
ATOM     17  C   UNL d   1      51.065  32.509  52.818  0.00  0.00     0.017 C 
ATOM     18  C   UNL d   1      54.599  33.197  54.901  0.00  0.00     0.038 A 
ATOM     19  C   UNL d   1      54.786  33.942  55.077  0.00  0.00     0.195 A 
ATOM     20  C   UNL d   1      53.118  32.664  54.005  0.00  0.00     0.013 C 
ATOM     21  O   UNL d   1      55.472  34.084  55.482  0.00  0.00    -0.287 OA
ENDROOT
BRANCH   2  22
ATOM     22  C   UNL d   1      49.736  35.074  52.298  0.00  0.00     0.006 C 
BRANCH  22  23
ATOM     23  C   UNL d   1      49.153  35.377  52.790  0.00  0.00     0.039 A 
ATOM     24  C   UNL d   1      48.399  35.645  52.710  0.00  0.00     0.085 A 
ATOM     25  N   UNL d   1      48.129  35.878  53.472  0.00  0.00    -0.228 N 
ATOM     26  C   UNL d   1      48.039  35.646  51.949  0.00  0.00     0.021 C 
ATOM     27  N   UNL d   1      48.719  35.755  54.027  0.00  0.00    -0.164 NA
ATOM     28  C   UNL d   1      49.360  35.442  53.602  0.00  0.00     0.122 A 
BRANCH  25  29
ATOM     29  C   UNL d   1      47.366  36.190  53.632  0.00  0.00     0.101 C 
ATOM     30  C   UNL d   1      47.168  36.447  54.417  0.00  0.00     0.022 C 
ENDBRANCH  25  29
ENDBRANCH  22  23
ENDBRANCH   2  22
TORSDOF 3
ENDMDL
