MODEL 1
REMARK VINA RESULT:      -3.2      0.000      0.000
REMARK  3 active torsions:
REMARK  status: ('A' for Active; 'I' for Inactive)
REMARK    1  A    between atoms: C_6  and  N_1 
REMARK    2  A    between atoms: C_5  and  C_6 
REMARK       I    between atoms: N_8  and  C_5 
REMARK    3  A    between atoms: C_10  and  N_8 
ROOT
ATOM      1  C   UNL d   1      32.799  19.619 -22.315  0.00  0.00     0.297 C 
ATOM      2  N   UNL d   1      33.241  20.044 -21.757  0.00  0.00    -0.207 NA
ATOM      3  O   UNL d   1      32.100  19.935 -22.610  0.00  0.00    -0.264 OA
ENDROOT
BRANCH   1   4
ATOM      4  C   UNL d   1      33.061  18.882 -22.570  0.00  0.00     0.145 C 
BRANCH   4   5
ATOM      5  N   UNL d   1      32.892  18.625 -23.332  0.00  0.00    -0.282 N 
ATOM      6  C   UNL d   1      32.886  19.089 -24.016  0.00  0.00     0.183 A 
ATOM      7  N   UNL d   1      32.689  18.604 -24.652  0.00  0.00    -0.224 NA
ATOM      8  C   UNL d   1      32.571  17.837 -24.366  0.00  0.00     0.099 A 
ATOM      9  C   UNL d   1      32.698  17.853 -23.547  0.00  0.00     0.083 A 
ATOM     10  C   UNL d   1      32.367  17.135 -24.743  0.00  0.00     0.021 A 
ATOM     11  C   UNL d   1      32.617  17.156 -23.116  0.00  0.00     0.019 A 
ATOM     12  C   UNL d   1      32.415  16.454 -23.481  0.00  0.00     0.002 A 
ATOM     13  C   UNL d   1      32.286  16.435 -24.305  0.00  0.00     0.002 A 
ENDBRANCH   4   5
ENDBRANCH   1   4
BRANCH   2  14
ATOM     14  C   UNL d   1      32.924  20.778 -21.541  0.00  0.00     0.085 A 
ATOM     15  C   UNL d   1      33.193  21.461 -21.904  0.00  0.00     0.019 A 
ATOM     16  C   UNL d   1      32.881  22.194 -21.694  0.00  0.00     0.002 A 
ATOM     17  C   UNL d   1      33.153  22.882 -22.062  0.00  0.00     0.000 C 
ATOM     18  C   UNL d   1      32.289  22.237 -21.110  0.00  0.00     0.000 A 
ATOM     19  C   UNL d   1      32.020  21.550 -20.746  0.00  0.00     0.002 A 
ATOM     20  C   UNL d   1      31.972  22.971 -20.894  0.00  0.00     0.000 C 
ATOM     21  C   UNL d   1      32.338  20.816 -20.962  0.00  0.00     0.019 A 
ENDBRANCH   2  14
TORSDOF 3
ENDMDL
MODEL 2
REMARK VINA RESULT:      -3.1      0.741      1.142
REMARK  3 active torsions:
REMARK  status: ('A' for Active; 'I' for Inactive)
REMARK    1  A    between atoms: C_6  and  N_1 
REMARK    2  A    between atoms: C_5  and  C_6 
REMARK       I    between atoms: N_8  and  C_5 
REMARK    3  A    between atoms: C_10  and  N_8 
ROOT
ATOM      1  C   UNL d   1      33.100  19.259 -22.581  0.00  0.00     0.297 C 
ATOM      2  N   UNL d   1      33.159  19.557 -21.809  0.00  0.00    -0.207 NA
ATOM      3  O   UNL d   1      32.904  19.763 -23.200  0.00  0.00    -0.264 OA
ENDROOT
BRANCH   1   4
ATOM      4  C   UNL d   1      33.238  18.460 -22.723  0.00  0.00     0.145 C 
BRANCH   4   5
ATOM      5  N   UNL d   1      32.720  18.030 -23.193  0.00  0.00    -0.282 N 
ATOM      6  C   UNL d   1      32.088  18.333 -23.633  0.00  0.00     0.183 A 
ATOM      7  N   UNL d   1      31.720  17.705 -24.019  0.00  0.00    -0.224 NA
ATOM      8  C   UNL d   1      32.121  17.009 -23.820  0.00  0.00     0.099 A 
ATOM      9  C   UNL d   1      32.740  17.214 -23.309  0.00  0.00     0.083 A 
ATOM     10  C   UNL d   1      32.002  16.225 -24.038  0.00  0.00     0.021 A 
ATOM     11  C   UNL d   1      33.234  16.620 -23.021  0.00  0.00     0.019 A 
ATOM     12  C   UNL d   1      33.124  15.839 -23.231  0.00  0.00     0.002 A 
ATOM     13  C   UNL d   1      32.501  15.631 -23.747  0.00  0.00     0.002 A 
ENDBRANCH   4   5
ENDBRANCH   1   4
BRANCH   2  14
ATOM     14  C   UNL d   1      33.009  20.368 -21.732  0.00  0.00     0.085 A 
ATOM     15  C   UNL d   1      32.640  20.652 -21.059  0.00  0.00     0.019 A 
ATOM     16  C   UNL d   1      32.488  21.458 -20.976  0.00  0.00     0.002 A 
ATOM     17  C   UNL d   1      32.116  21.743 -20.296  0.00  0.00     0.000 C 
ATOM     18  C   UNL d   1      32.711  21.983 -21.583  0.00  0.00     0.000 A 
ATOM     19  C   UNL d   1      33.082  21.696 -22.259  0.00  0.00     0.002 A 
ATOM     20  C   UNL d   1      32.561  22.794 -21.506  0.00  0.00     0.000 C 
ATOM     21  C   UNL d   1      33.232  20.884 -22.336  0.00  0.00     0.019 A 
ENDBRANCH   2  14
TORSDOF 3
ENDMDL
MODEL 3
REMARK VINA RESULT:      -3.0      0.779      4.809
REMARK  3 active torsions:
REMARK  status: ('A' for Active; 'I' for Inactive)
REMARK    1  A    between atoms: C_6  and  N_1 
REMARK    2  A    between atoms: C_5  and  C_6 
REMARK       I    between atoms: N_8  and  C_5 
REMARK    3  A    between atoms: C_10  and  N_8 
ROOT
ATOM      1  C   UNL d   1      32.908  19.215 -23.119  0.00  0.00     0.297 C 
ATOM      2  N   UNL d   1      32.946  18.884 -23.878  0.00  0.00    -0.207 NA
ATOM      3  O   UNL d   1      32.539  18.805 -22.511  0.00  0.00    -0.264 OA
ENDROOT
BRANCH   1   4
ATOM      4  C   UNL d   1      33.241  19.955 -22.978  0.00  0.00     0.145 C 
BRANCH   4   5
ATOM      5  N   UNL d   1      33.109  20.337 -22.263  0.00  0.00    -0.282 N 
ATOM      6  C   UNL d   1      32.972  19.976 -21.531  0.00  0.00     0.183 A 
ATOM      7  N   UNL d   1      32.869  20.570 -20.969  0.00  0.00    -0.224 NA
ATOM      8  C   UNL d   1      32.943  21.301 -21.348  0.00  0.00     0.099 A 
ATOM      9  C   UNL d   1      33.091  21.154 -22.150  0.00  0.00     0.083 A 
ATOM     10  C   UNL d   1      32.893  22.073 -21.068  0.00  0.00     0.021 A 
ATOM     11  C   UNL d   1      33.189  21.791 -22.662  0.00  0.00     0.019 A 
ATOM     12  C   UNL d   1      33.142  22.561 -22.394  0.00  0.00     0.002 A 
ATOM     13  C   UNL d   1      32.992  22.712 -21.587  0.00  0.00     0.002 A 
ENDBRANCH   4   5
ENDBRANCH   1   4
BRANCH   2  14
ATOM     14  C   UNL d   1      32.593  18.139 -23.954  0.00  0.00     0.085 A 
ATOM     15  C   UNL d   1      33.052  17.463 -23.902  0.00  0.00     0.019 A 
ATOM     16  C   UNL d   1      32.707  16.718 -23.977  0.00  0.00     0.002 A 
ATOM     17  C   UNL d   1      33.171  16.037 -23.924  0.00  0.00     0.000 C 
ATOM     18  C   UNL d   1      31.886  16.656 -24.106  0.00  0.00     0.000 A 
ATOM     19  C   UNL d   1      31.427  17.336 -24.159  0.00  0.00     0.002 A 
ATOM     20  C   UNL d   1      31.533  15.911 -24.183  0.00  0.00     0.000 C 
ATOM     21  C   UNL d   1      31.780  18.083 -24.082  0.00  0.00     0.019 A 
ENDBRANCH   2  14
TORSDOF 3
ENDMDL
MODEL 4
REMARK VINA RESULT:      -2.6      2.303      5.199
REMARK  3 active torsions:
REMARK  status: ('A' for Active; 'I' for Inactive)
REMARK    1  A    between atoms: C_6  and  N_1 
REMARK    2  A    between atoms: C_5  and  C_6 
REMARK       I    between atoms: N_8  and  C_5 
REMARK    3  A    between atoms: C_10  and  N_8 
ROOT
ATOM      1  C   UNL d   1      31.388  16.936 -24.100  0.00  0.00     0.297 C 
ATOM      2  N   UNL d   1      31.152  16.158 -23.937  0.00  0.00    -0.207 NA
ATOM      3  O   UNL d   1      30.853  17.466 -24.428  0.00  0.00    -0.264 OA
ENDROOT
BRANCH   1   4
ATOM      4  C   UNL d   1      32.158  17.174 -23.931  0.00  0.00     0.145 C 
BRANCH   4   5
ATOM      5  N   UNL d   1      32.419  17.918 -24.161  0.00  0.00    -0.282 N 
ATOM      6  C   UNL d   1      32.471  18.202 -24.936  0.00  0.00     0.183 A 
ATOM      7  N   UNL d   1      32.760  18.974 -24.906  0.00  0.00    -0.224 NA
ATOM      8  C   UNL d   1      32.889  19.171 -24.113  0.00  0.00     0.099 A 
ATOM      9  C   UNL d   1      32.676  18.515 -23.654  0.00  0.00     0.083 A 
ATOM     10  C   UNL d   1      33.169  19.858 -23.756  0.00  0.00     0.021 A 
ATOM     11  C   UNL d   1      32.749  18.560 -22.835  0.00  0.00     0.019 A 
ATOM     12  C   UNL d   1      33.026  19.237 -22.471  0.00  0.00     0.002 A 
ATOM     13  C   UNL d   1      33.241  19.899 -22.932  0.00  0.00     0.002 A 
ENDBRANCH   4   5
ENDBRANCH   1   4
BRANCH   2  14
ATOM     14  C   UNL d   1      30.366  15.981 -24.129  0.00  0.00     0.085 A 
ATOM     15  C   UNL d   1      29.787  16.015 -23.550  0.00  0.00     0.019 A 
ATOM     16  C   UNL d   1      29.003  15.841 -23.734  0.00  0.00     0.002 A 
ATOM     17  C   UNL d   1      28.421  15.875 -23.150  0.00  0.00     0.000 C 
ATOM     18  C   UNL d   1      28.802  15.629 -24.515  0.00  0.00     0.000 A 
ATOM     19  C   UNL d   1      29.384  15.596 -25.094  0.00  0.00     0.002 A 
ATOM     20  C   UNL d   1      28.016  15.453 -24.707  0.00  0.00     0.000 C 
ATOM     21  C   UNL d   1      30.171  15.773 -24.903  0.00  0.00     0.019 A 
ENDBRANCH   2  14
TORSDOF 3
ENDMDL
MODEL 5
REMARK VINA RESULT:      -1.2      1.321      2.150
REMARK  3 active torsions:
REMARK  status: ('A' for Active; 'I' for Inactive)
REMARK    1  A    between atoms: C_6  and  N_1 
REMARK    2  A    between atoms: C_5  and  C_6 
REMARK       I    between atoms: N_8  and  C_5 
REMARK    3  A    between atoms: C_10  and  N_8 
ROOT
ATOM      1  C   UNL d   1      32.413  18.460 -23.601  0.00  0.00     0.297 C 
ATOM      2  N   UNL d   1      32.754  19.214 -23.651  0.00  0.00    -0.207 NA
ATOM      3  O   UNL d   1      32.220  18.145 -22.866  0.00  0.00    -0.264 OA
ENDROOT
BRANCH   1   4
ATOM      4  C   UNL d   1      32.268  18.029 -24.287  0.00  0.00     0.145 C 
BRANCH   4   5
ATOM      5  N   UNL d   1      32.101  17.226 -24.242  0.00  0.00    -0.282 N 
ATOM      6  C   UNL d   1      32.588  16.640 -23.920  0.00  0.00     0.183 A 
ATOM      7  N   UNL d   1      32.201  15.917 -23.993  0.00  0.00    -0.224 NA
ATOM      8  C   UNL d   1      31.472  16.049 -24.361  0.00  0.00     0.099 A 
ATOM      9  C   UNL d   1      31.413  16.861 -24.514  0.00  0.00     0.083 A 
ATOM     10  C   UNL d   1      30.862  15.539 -24.573  0.00  0.00     0.021 A 
ATOM     11  C   UNL d   1      30.735  17.151 -24.883  0.00  0.00     0.019 A 
ATOM     12  C   UNL d   1      30.125  16.653 -25.097  0.00  0.00     0.002 A 
ATOM     13  C   UNL d   1      30.182  15.835 -24.943  0.00  0.00     0.002 A 
ENDBRANCH   4   5
ENDBRANCH   1   4
BRANCH   2  14
ATOM     14  C   UNL d   1      32.874  19.595 -22.926  0.00  0.00     0.085 A 
ATOM     15  C   UNL d   1      32.746  20.401 -22.863  0.00  0.00     0.019 A 
ATOM     16  C   UNL d   1      32.863  20.786 -22.144  0.00  0.00     0.002 A 
ATOM     17  C   UNL d   1      32.734  21.600 -22.082  0.00  0.00     0.000 C 
ATOM     18  C   UNL d   1      33.113  20.350 -21.480  0.00  0.00     0.000 A 
ATOM     19  C   UNL d   1      33.241  19.540 -21.545  0.00  0.00     0.002 A 
ATOM     20  C   UNL d   1      33.233  20.731 -20.754  0.00  0.00     0.000 C 
ATOM     21  C   UNL d   1      33.121  19.159 -22.271  0.00  0.00     0.019 A 
ENDBRANCH   2  14
TORSDOF 3
ENDMDL
