MODEL 1
REMARK VINA RESULT:      -6.9      0.000      0.000
REMARK  2 active torsions:
REMARK  status: ('A' for Active; 'I' for Inactive)
REMARK    1  A    between atoms: C_6  and  C_1 
REMARK    2  A    between atoms: C_8  and  C_5 
ROOT
ATOM      1  C   UNL d   1      53.100  31.269  53.149  0.00  0.00     0.169 A 
ATOM      2  C   UNL d   1      53.665  31.490  53.718  0.00  0.00     0.048 A 
ATOM      3  N   UNL d   1      53.163  32.597  53.181  0.00  0.00    -0.148 NA
ATOM      4  N   UNL d   1      52.788  31.960  52.815  0.00  0.00    -0.142 NA
ATOM      5  C   UNL d   1      53.702  32.298  53.735  0.00  0.00     0.105 A 
ENDROOT
BRANCH   1   6
ATOM      6  C   UNL d   1      52.885  30.499  52.949  0.00  0.00     0.231 C 
ATOM      7  O   UNL d   1      52.668  29.961  53.536  0.00  0.00    -0.643 OA
ATOM      8  O   UNL d   1      52.887  30.266  52.155  0.00  0.00    -0.643 OA
ENDBRANCH   1   6
BRANCH   5   9
ATOM      9  C   UNL d   1      54.194  32.746  54.225  0.00  0.00     0.019 C 
ATOM     10  C   UNL d   1      54.021  32.826  55.020  0.00  0.00     0.002 C 
ATOM     11  C   UNL d   1      54.859  33.112  53.910  0.00  0.00     0.002 C 
ENDBRANCH   5   9
TORSDOF 2
ENDMDL
MODEL 2
REMARK VINA RESULT:      -6.8      2.328      3.076
REMARK  2 active torsions:
REMARK  status: ('A' for Active; 'I' for Inactive)
REMARK    1  A    between atoms: C_6  and  C_1 
REMARK    2  A    between atoms: C_8  and  C_5 
ROOT
ATOM      1  C   UNL d   1      54.442  33.229  54.461  0.00  0.00     0.169 A 
ATOM      2  C   UNL d   1      53.800  32.706  54.397  0.00  0.00     0.048 A 
ATOM      3  N   UNL d   1      54.619  32.483  53.374  0.00  0.00    -0.148 NA
ATOM      4  N   UNL d   1      54.951  33.090  53.823  0.00  0.00    -0.142 NA
ATOM      5  C   UNL d   1      53.909  32.253  53.736  0.00  0.00     0.105 A 
ENDROOT
BRANCH   1   6
ATOM      6  C   UNL d   1      54.556  33.792  55.053  0.00  0.00     0.231 C 
ATOM      7  O   UNL d   1      55.265  33.814  55.474  0.00  0.00    -0.643 OA
ATOM      8  O   UNL d   1      53.956  34.335  55.224  0.00  0.00    -0.643 OA
ENDBRANCH   1   6
BRANCH   5   9
ATOM      9  C   UNL d   1      53.397  31.660  53.469  0.00  0.00     0.019 C 
ATOM     10  C   UNL d   1      53.532  30.879  53.669  0.00  0.00     0.002 C 
ATOM     11  C   UNL d   1      52.752  31.860  53.001  0.00  0.00     0.002 C 
ENDBRANCH   5   9
TORSDOF 2
ENDMDL
MODEL 3
REMARK VINA RESULT:      -6.6      2.928      3.171
REMARK  2 active torsions:
REMARK  status: ('A' for Active; 'I' for Inactive)
REMARK    1  A    between atoms: C_6  and  C_1 
REMARK    2  A    between atoms: C_8  and  C_5 
ROOT
ATOM      1  C   UNL d   1      52.908  34.606  53.937  0.00  0.00     0.169 A 
ATOM      2  C   UNL d   1      53.356  33.917  54.057  0.00  0.00     0.048 A 
ATOM      3  N   UNL d   1      53.662  34.783  55.019  0.00  0.00    -0.148 NA
ATOM      4  N   UNL d   1      53.099  35.146  54.536  0.00  0.00    -0.142 NA
ATOM      5  C   UNL d   1      53.814  34.027  54.715  0.00  0.00     0.105 A 
ENDROOT
BRANCH   1   6
ATOM      6  C   UNL d   1      52.366  34.736  53.329  0.00  0.00     0.231 C 
ATOM      7  O   UNL d   1      51.556  34.713  53.482  0.00  0.00    -0.643 OA
ATOM      8  O   UNL d   1      52.638  34.889  52.563  0.00  0.00    -0.643 OA
ENDBRANCH   1   6
BRANCH   5   9
ATOM      9  C   UNL d   1      54.344  33.475  55.030  0.00  0.00     0.019 C 
ATOM     10  C   UNL d   1      54.101  32.709  55.176  0.00  0.00     0.002 C 
ATOM     11  C   UNL d   1      55.117  33.701  55.196  0.00  0.00     0.002 C 
ENDBRANCH   5   9
TORSDOF 2
ENDMDL
MODEL 4
REMARK VINA RESULT:      -6.6      2.082      2.307
REMARK  2 active torsions:
REMARK  status: ('A' for Active; 'I' for Inactive)
REMARK    1  A    between atoms: C_6  and  C_1 
REMARK    2  A    between atoms: C_8  and  C_5 
ROOT
ATOM      1  C   UNL d   1      52.169  33.162  52.981  0.00  0.00     0.169 A 
ATOM      2  C   UNL d   1      52.756  33.334  53.543  0.00  0.00     0.048 A 
ATOM      3  N   UNL d   1      53.105  32.220  52.907  0.00  0.00    -0.148 NA
ATOM      4  N   UNL d   1      52.387  32.468  52.585  0.00  0.00    -0.142 NA
ATOM      5  C   UNL d   1      53.324  32.761  53.497  0.00  0.00     0.105 A 
ENDROOT
BRANCH   1   6
ATOM      6  C   UNL d   1      51.486  33.602  52.838  0.00  0.00     0.231 C 
ATOM      7  O   UNL d   1      51.484  34.190  52.260  0.00  0.00    -0.643 OA
ATOM      8  O   UNL d   1      50.802  33.452  53.277  0.00  0.00    -0.643 OA
ENDBRANCH   1   6
BRANCH   5   9
ATOM      9  C   UNL d   1      54.008  32.722  53.961  0.00  0.00     0.019 C 
ATOM     10  C   UNL d   1      53.952  32.584  54.765  0.00  0.00     0.002 C 
ATOM     11  C   UNL d   1      54.745  32.823  53.610  0.00  0.00     0.002 C 
ENDBRANCH   5   9
TORSDOF 2
ENDMDL
MODEL 5
REMARK VINA RESULT:      -6.5      2.219      2.711
REMARK  2 active torsions:
REMARK  status: ('A' for Active; 'I' for Inactive)
REMARK    1  A    between atoms: C_6  and  C_1 
REMARK    2  A    between atoms: C_8  and  C_5 
ROOT
ATOM      1  C   UNL d   1      53.412  32.724  53.699  0.00  0.00     0.169 A 
ATOM      2  C   UNL d   1      52.821  33.307  53.723  0.00  0.00     0.048 A 
ATOM      3  N   UNL d   1      52.538  32.472  52.728  0.00  0.00    -0.148 NA
ATOM      4  N   UNL d   1      53.235  32.204  53.079  0.00  0.00    -0.142 NA
ATOM      5  C   UNL d   1      52.290  33.153  53.132  0.00  0.00     0.105 A 
ENDROOT
BRANCH   1   6
ATOM      6  C   UNL d   1      54.063  32.668  54.202  0.00  0.00     0.231 C 
ATOM      7  O   UNL d   1      53.969  32.400  54.976  0.00  0.00    -0.643 OA
ATOM      8  O   UNL d   1      54.813  32.883  53.926  0.00  0.00    -0.643 OA
ENDBRANCH   1   6
BRANCH   5   9
ATOM      9  C   UNL d   1      51.615  33.600  52.962  0.00  0.00     0.019 C 
ATOM     10  C   UNL d   1      51.673  34.273  52.503  0.00  0.00     0.002 C 
ATOM     11  C   UNL d   1      50.885  33.363  53.257  0.00  0.00     0.002 C 
ENDBRANCH   5   9
TORSDOF 2
ENDMDL
