MODEL 1
REMARK VINA RESULT:      -5.3      0.000      0.000
REMARK  1 active torsions:
REMARK  status: ('A' for Active; 'I' for Inactive)
REMARK    1  A    between atoms: N_8  and  C_7 
REMARK       I    between atoms: C_11  and  N_8 
ROOT
ATOM      1  N   UNL d   1     -41.126-122.382 -50.845  0.00  0.00    -0.273 N 
ATOM      2  C   UNL d   1     -41.130-122.388 -51.670  0.00  0.00     0.067 A 
ATOM      3  C   UNL d   1     -41.130-121.675 -52.086  0.00  0.00     0.019 A 
ATOM      4  C   UNL d   1     -41.133-123.096 -52.077  0.00  0.00     0.018 A 
ATOM      5  C   UNL d   1     -41.126-123.086 -50.428  0.00  0.00     0.265 A 
ATOM      6  C   UNL d   1     -41.124-121.597 -50.602  0.00  0.00     0.083 A 
ATOM      7  C   UNL d   1     -41.137-122.398 -53.320  0.00  0.00     0.085 A 
ATOM      8  C   UNL d   1     -41.133-121.680 -52.911  0.00  0.00     0.021 A 
ATOM      9  C   UNL d   1     -41.136-123.101 -52.902  0.00  0.00     0.021 A 
ATOM     10  C   UNL d   1     -41.126-121.053 -51.540  0.00  0.00     0.021 A 
ATOM     11  C   UNL d   1     -41.133-123.817 -51.661  0.00  0.00     0.006 A 
ATOM     12  C   UNL d   1     -41.129-123.812 -50.836  0.00  0.00     0.061 A 
ATOM     13  O   UNL d   1     -41.123-123.080 -49.603  0.00  0.00    -0.267 OA
ENDROOT
BRANCH   7  14
ATOM     14  N   UNL d   1     -41.140-122.403 -54.144  0.00  0.00    -0.208 NA
ATOM     15  C   UNL d   1     -41.837-122.315 -54.550  0.00  0.00     0.279 C 
ATOM     16  O   UNL d   1     -42.558-122.217 -54.139  0.00  0.00    -0.265 OA
ATOM     17  C   UNL d   1     -41.845-122.319 -55.374  0.00  0.00     0.068 C 
ENDBRANCH   7  14
TORSDOF 1
ENDMDL
MODEL 2
REMARK VINA RESULT:      -3.2      2.004      2.995
REMARK  1 active torsions:
REMARK  status: ('A' for Active; 'I' for Inactive)
REMARK    1  A    between atoms: N_8  and  C_7 
REMARK       I    between atoms: C_11  and  N_8 
ROOT
ATOM      1  N   UNL d   1     -42.706-123.484 -48.569  0.00  0.00    -0.273 N 
ATOM      2  C   UNL d   1     -42.366-123.416 -49.318  0.00  0.00     0.067 A 
ATOM      3  C   UNL d   1     -42.819-123.570 -49.991  0.00  0.00     0.019 A 
ATOM      4  C   UNL d   1     -41.583-123.196 -49.397  0.00  0.00     0.018 A 
ATOM      5  C   UNL d   1     -42.262-123.332 -47.899  0.00  0.00     0.265 A 
ATOM      6  C   UNL d   1     -43.489-123.711 -48.672  0.00  0.00     0.083 A 
ATOM      7  C   UNL d   1     -41.688-123.279 -50.816  0.00  0.00     0.085 A 
ATOM      8  C   UNL d   1     -42.479-123.502 -50.740  0.00  0.00     0.021 A 
ATOM      9  C   UNL d   1     -41.244-123.128 -50.146  0.00  0.00     0.021 A 
ATOM     10  C   UNL d   1     -43.583-123.778 -49.750  0.00  0.00     0.021 A 
ATOM     11  C   UNL d   1     -41.123-123.039 -48.720  0.00  0.00     0.006 A 
ATOM     12  C   UNL d   1     -41.462-123.107 -47.971  0.00  0.00     0.061 A 
ATOM     13  O   UNL d   1     -42.601-123.400 -47.150  0.00  0.00    -0.267 OA
ENDROOT
BRANCH   7  14
ATOM     14  N   UNL d   1     -41.349-123.211 -51.564  0.00  0.00    -0.208 NA
ATOM     15  C   UNL d   1     -41.460-122.538 -52.002  0.00  0.00     0.279 C 
ATOM     16  O   UNL d   1     -41.918-121.907 -51.703  0.00  0.00    -0.265 OA
ATOM     17  C   UNL d   1     -41.123-122.465 -52.752  0.00  0.00     0.068 C 
ENDBRANCH   7  14
TORSDOF 1
ENDMDL
