MODEL 1
REMARK VINA RESULT:      -2.5      0.000      0.000
REMARK  4 active torsions:
REMARK  status: ('A' for Active; 'I' for Inactive)
REMARK    1  A    between atoms: C_11  and  C_4 
REMARK    2  A    between atoms: C_9  and  C_5 
REMARK    3  A    between atoms: O_21  and  C_16 
REMARK    4  A    between atoms: O_22  and  C_17 
ROOT
ATOM      1  N   UNL d   1      31.943  16.971 -23.671  0.00  0.00    -0.185 N 
ATOM      2  C   UNL d   1      32.061  16.173 -23.478  0.00  0.00     0.219 A 
ATOM      3  N   UNL d   1      31.145  17.078 -23.823  0.00  0.00    -0.153 NA
ATOM      4  C   UNL d   1      32.673  17.353 -23.638  0.00  0.00     0.187 A 
ATOM      5  C   UNL d   1      30.759  16.350 -23.726  0.00  0.00     0.156 A 
ATOM      6  S   UNL d   1      31.330  15.790 -23.511  0.00  0.00    -0.024 SA
ATOM      7  N   UNL d   1      33.241  16.791 -23.424  0.00  0.00    -0.127 NA
ATOM      8  N   UNL d   1      32.869  16.064 -23.324  0.00  0.00    -0.120 NA
ENDROOT
BRANCH   4   9
ATOM      9  C   UNL d   1      32.815  18.149 -23.790  0.00  0.00     0.040 A 
ATOM     10  C   UNL d   1      32.941  18.664 -23.160  0.00  0.00     0.029 A 
ATOM     11  C   UNL d   1      33.082  19.457 -23.305  0.00  0.00     0.116 A 
ATOM     12  C   UNL d   1      33.099  19.746 -24.081  0.00  0.00     0.116 A 
ATOM     13  C   UNL d   1      32.971  19.224 -24.713  0.00  0.00     0.026 A 
ATOM     14  C   UNL d   1      32.829  18.428 -24.563  0.00  0.00     0.005 A 
BRANCH  11  15
ATOM     15  O   UNL d   1      33.210  19.983 -22.679  0.00  0.00    -0.326 OA
ATOM     16  C   UNL d   1      33.104  19.743 -21.900  0.00  0.00     0.181 C 
ENDBRANCH  11  15
BRANCH  12  17
ATOM     17  O   UNL d   1      33.241  20.549 -24.238  0.00  0.00    -0.326 OA
ATOM     18  C   UNL d   1      33.065  20.849 -24.984  0.00  0.00     0.181 C 
ENDBRANCH  12  17
ENDBRANCH   4   9
BRANCH   5  19
ATOM     19  C   UNL d   1      29.953  16.209 -23.824  0.00  0.00     0.126 A 
ATOM     20  O   UNL d   1      29.353  16.437 -23.313  0.00  0.00    -0.298 OA
ATOM     21  C   UNL d   1      28.636  16.181 -23.629  0.00  0.00     0.134 A 
ATOM     22 BR   UNL d   1      27.890  16.296 -23.290  0.00  0.00    -0.022 Br
ATOM     23  C   UNL d   1      28.789  15.793 -24.337  0.00  0.00     0.034 A 
ATOM     24  C   UNL d   1      29.609  15.809 -24.460  0.00  0.00     0.029 A 
ENDBRANCH   5  19
TORSDOF 4
ENDMDL
MODEL 2
REMARK VINA RESULT:      -2.3      2.809      4.901
REMARK  4 active torsions:
REMARK  status: ('A' for Active; 'I' for Inactive)
REMARK    1  A    between atoms: C_11  and  C_4 
REMARK    2  A    between atoms: C_9  and  C_5 
REMARK    3  A    between atoms: O_21  and  C_16 
REMARK    4  A    between atoms: O_22  and  C_17 
ROOT
ATOM      1  N   UNL d   1      32.949  19.673 -23.309  0.00  0.00    -0.185 N 
ATOM      2  C   UNL d   1      33.167  20.392 -23.659  0.00  0.00     0.219 A 
ATOM      3  N   UNL d   1      32.880  19.796 -22.501  0.00  0.00    -0.153 NA
ATOM      4  C   UNL d   1      32.883  19.107 -23.906  0.00  0.00     0.187 A 
ATOM      5  C   UNL d   1      33.055  20.592 -22.342  0.00  0.00     0.156 A 
ATOM      6  S   UNL d   1      33.233  20.959 -23.062  0.00  0.00    -0.024 SA
ATOM      7  N   UNL d   1      33.061  19.477 -24.623  0.00  0.00    -0.127 NA
ATOM      8  N   UNL d   1      33.236  20.267 -24.477  0.00  0.00    -0.120 NA
ENDROOT
BRANCH   4   9
ATOM      9  C   UNL d   1      32.678  18.317 -23.807  0.00  0.00     0.040 A 
ATOM     10  C   UNL d   1      31.948  18.052 -24.082  0.00  0.00     0.029 A 
ATOM     11  C   UNL d   1      31.738  17.267 -23.987  0.00  0.00     0.116 A 
ATOM     12  C   UNL d   1      32.255  16.736 -23.617  0.00  0.00     0.116 A 
ATOM     13  C   UNL d   1      32.990  17.006 -23.342  0.00  0.00     0.026 A 
ATOM     14  C   UNL d   1      33.196  17.796 -23.439  0.00  0.00     0.005 A 
BRANCH  11  15
ATOM     15  O   UNL d   1      31.007  16.991 -24.259  0.00  0.00    -0.326 OA
ATOM     16  C   UNL d   1      30.342  17.474 -24.240  0.00  0.00     0.181 C 
ENDBRANCH  11  15
BRANCH  12  17
ATOM     17  O   UNL d   1      32.051  15.936 -23.516  0.00  0.00    -0.326 OA
ATOM     18  C   UNL d   1      32.533  15.455 -23.055  0.00  0.00     0.181 C 
ENDBRANCH  12  17
ENDBRANCH   4   9
BRANCH   5  19
ATOM     19  C   UNL d   1      33.053  20.952 -21.601  0.00  0.00     0.126 A 
ATOM     20  O   UNL d   1      33.196  21.745 -21.444  0.00  0.00    -0.298 OA
ATOM     21  C   UNL d   1      33.137  21.860 -20.630  0.00  0.00     0.134 A 
ATOM     22 BR   UNL d   1      33.241  22.579 -20.235  0.00  0.00    -0.022 Br
ATOM     23  C   UNL d   1      32.958  21.139 -20.279  0.00  0.00     0.034 A 
ATOM     24  C   UNL d   1      32.905  20.572 -20.882  0.00  0.00     0.029 A 
ENDBRANCH   5  19
TORSDOF 4
ENDMDL
MODEL 3
REMARK VINA RESULT:      -2.2      0.752      1.487
REMARK  4 active torsions:
REMARK  status: ('A' for Active; 'I' for Inactive)
REMARK    1  A    between atoms: C_11  and  C_4 
REMARK    2  A    between atoms: C_9  and  C_5 
REMARK    3  A    between atoms: O_21  and  C_16 
REMARK    4  A    between atoms: O_22  and  C_17 
ROOT
ATOM      1  N   UNL d   1      31.936  17.617 -23.780  0.00  0.00    -0.185 N 
ATOM      2  C   UNL d   1      32.058  16.903 -24.183  0.00  0.00     0.219 A 
ATOM      3  N   UNL d   1      31.132  17.689 -23.631  0.00  0.00    -0.153 NA
ATOM      4  C   UNL d   1      32.668  17.985 -23.681  0.00  0.00     0.187 A 
ATOM      5  C   UNL d   1      30.749  17.021 -23.939  0.00  0.00     0.156 A 
ATOM      6  S   UNL d   1      31.326  16.535 -24.282  0.00  0.00    -0.024 SA
ATOM      7  N   UNL d   1      33.241  17.498 -24.024  0.00  0.00    -0.127 NA
ATOM      8  N   UNL d   1      32.871  16.832 -24.334  0.00  0.00    -0.120 NA
ENDROOT
BRANCH   4   9
ATOM      9  C   UNL d   1      32.805  18.706 -23.310  0.00  0.00     0.040 A 
ATOM     10  C   UNL d   1      32.953  19.375 -23.768  0.00  0.00     0.029 A 
ATOM     11  C   UNL d   1      33.091  20.094 -23.405  0.00  0.00     0.116 A 
ATOM     12  C   UNL d   1      33.082  20.156 -22.578  0.00  0.00     0.116 A 
ATOM     13  C   UNL d   1      32.933  19.481 -22.120  0.00  0.00     0.026 A 
ATOM     14  C   UNL d   1      32.795  18.759 -22.490  0.00  0.00     0.005 A 
BRANCH  11  15
ATOM     15  O   UNL d   1      33.241  20.772 -23.856  0.00  0.00    -0.326 OA
ATOM     16  C   UNL d   1      33.156  20.759 -24.673  0.00  0.00     0.181 C 
ENDBRANCH  11  15
BRANCH  12  17
ATOM     17  O   UNL d   1      33.221  20.883 -22.200  0.00  0.00    -0.326 OA
ATOM     18  C   UNL d   1      33.171  20.924 -21.380  0.00  0.00     0.181 C 
ENDBRANCH  12  17
ENDBRANCH   4   9
BRANCH   5  19
ATOM     19  C   UNL d   1      29.939  16.867 -23.911  0.00  0.00     0.126 A 
ATOM     20  O   UNL d   1      29.525  16.562 -23.272  0.00  0.00    -0.298 OA
ATOM     21  C   UNL d   1      28.731  16.500 -23.488  0.00  0.00     0.134 A 
ATOM     22 BR   UNL d   1      28.120  16.218 -23.008  0.00  0.00    -0.022 Br
ATOM     23  C   UNL d   1      28.652  16.768 -24.261  0.00  0.00     0.034 A 
ATOM     24  C   UNL d   1      29.403  16.997 -24.526  0.00  0.00     0.029 A 
ENDBRANCH   5  19
TORSDOF 4
ENDMDL
MODEL 4
REMARK VINA RESULT:      -0.5      2.213      4.483
REMARK  4 active torsions:
REMARK  status: ('A' for Active; 'I' for Inactive)
REMARK    1  A    between atoms: C_11  and  C_4 
REMARK    2  A    between atoms: C_9  and  C_5 
REMARK    3  A    between atoms: O_21  and  C_16 
REMARK    4  A    between atoms: O_22  and  C_17 
ROOT
ATOM      1  N   UNL d   1      32.287  18.289 -22.988  0.00  0.00    -0.185 N 
ATOM      2  C   UNL d   1      33.006  18.164 -22.595  0.00  0.00     0.219 A 
ATOM      3  N   UNL d   1      32.080  19.077 -22.891  0.00  0.00    -0.153 NA
ATOM      4  C   UNL d   1      32.052  17.575 -23.328  0.00  0.00     0.187 A 
ATOM      5  C   UNL d   1      32.667  19.448 -22.437  0.00  0.00     0.156 A 
ATOM      6  S   UNL d   1      33.241  18.879 -22.255  0.00  0.00    -0.024 SA
ATOM      7  N   UNL d   1      32.627  17.010 -23.144  0.00  0.00    -0.127 NA
ATOM      8  N   UNL d   1      33.215  17.367 -22.694  0.00  0.00    -0.120 NA
ENDROOT
BRANCH   4   9
ATOM      9  C   UNL d   1      31.371  17.446 -23.770  0.00  0.00     0.040 A 
ATOM     10  C   UNL d   1      30.926  16.766 -23.635  0.00  0.00     0.029 A 
ATOM     11  C   UNL d   1      30.247  16.632 -24.072  0.00  0.00     0.116 A 
ATOM     12  C   UNL d   1      30.004  17.175 -24.649  0.00  0.00     0.116 A 
ATOM     13  C   UNL d   1      30.455  17.858 -24.781  0.00  0.00     0.026 A 
ATOM     14  C   UNL d   1      31.137  17.989 -24.340  0.00  0.00     0.005 A 
BRANCH  11  15
ATOM     15  O   UNL d   1      29.793  15.952 -23.944  0.00  0.00    -0.326 OA
ATOM     16  C   UNL d   1      29.769  15.594 -23.205  0.00  0.00     0.181 C 
ENDBRANCH  11  15
BRANCH  12  17
ATOM     17  O   UNL d   1      29.316  17.047 -25.097  0.00  0.00    -0.326 OA
ATOM     18  C   UNL d   1      28.720  17.613 -25.086  0.00  0.00     0.181 C 
ENDBRANCH  12  17
ENDBRANCH   4   9
BRANCH   5  19
ATOM     19  C   UNL d   1      32.679  20.240 -22.208  0.00  0.00     0.126 A 
ATOM     20  O   UNL d   1      32.904  20.877 -22.673  0.00  0.00    -0.298 OA
ATOM     21  C   UNL d   1      32.829  21.563 -22.222  0.00  0.00     0.134 A 
ATOM     22 BR   UNL d   1      32.999  22.331 -22.478  0.00  0.00    -0.022 Br
ATOM     23  C   UNL d   1      32.557  21.353 -21.476  0.00  0.00     0.034 A 
ATOM     24  C   UNL d   1      32.463  20.529 -21.465  0.00  0.00     0.029 A 
ENDBRANCH   5  19
TORSDOF 4
ENDMDL
MODEL 5
REMARK VINA RESULT:      -0.4      2.530      3.466
REMARK  4 active torsions:
REMARK  status: ('A' for Active; 'I' for Inactive)
REMARK    1  A    between atoms: C_11  and  C_4 
REMARK    2  A    between atoms: C_9  and  C_5 
REMARK    3  A    between atoms: O_21  and  C_16 
REMARK    4  A    between atoms: O_22  and  C_17 
ROOT
ATOM      1  N   UNL d   1      33.041  19.618 -22.485  0.00  0.00    -0.185 N 
ATOM      2  C   UNL d   1      33.090  18.956 -21.988  0.00  0.00     0.219 A 
ATOM      3  N   UNL d   1      32.920  19.351 -23.251  0.00  0.00    -0.153 NA
ATOM      4  C   UNL d   1      33.132  20.294 -22.021  0.00  0.00     0.187 A 
ATOM      5  C   UNL d   1      32.893  18.522 -23.237  0.00  0.00     0.156 A 
ATOM      6  S   UNL d   1      32.999  18.279 -22.453  0.00  0.00    -0.024 SA
ATOM      7  N   UNL d   1      33.237  20.048 -21.239  0.00  0.00    -0.127 NA
ATOM      8  N   UNL d   1      33.213  19.227 -21.214  0.00  0.00    -0.120 NA
ENDROOT
BRANCH   4   9
ATOM      9  C   UNL d   1      33.120  21.073 -22.286  0.00  0.00     0.040 A 
ATOM     10  C   UNL d   1      32.987  21.681 -21.746  0.00  0.00     0.029 A 
ATOM     11  C   UNL d   1      32.974  22.457 -22.004  0.00  0.00     0.116 A 
ATOM     12  C   UNL d   1      33.095  22.637 -22.804  0.00  0.00     0.116 A 
ATOM     13  C   UNL d   1      33.229  22.022 -23.344  0.00  0.00     0.026 A 
ATOM     14  C   UNL d   1      33.241  21.243 -23.081  0.00  0.00     0.005 A 
BRANCH  11  15
ATOM     15  O   UNL d   1      32.841  23.075 -21.470  0.00  0.00    -0.326 OA
ATOM     16  C   UNL d   1      32.327  22.979 -20.836  0.00  0.00     0.181 C 
ENDBRANCH  11  15
BRANCH  12  17
ATOM     17  O   UNL d   1      33.084  23.422 -23.074  0.00  0.00    -0.326 OA
ATOM     18  C   UNL d   1      33.123  23.568 -23.883  0.00  0.00     0.181 C 
ENDBRANCH  12  17
ENDBRANCH   4   9
BRANCH   5  19
ATOM     19  C   UNL d   1      32.781  18.027 -23.887  0.00  0.00     0.126 A 
ATOM     20  O   UNL d   1      32.239  17.414 -23.944  0.00  0.00    -0.298 OA
ATOM     21  C   UNL d   1      32.318  17.070 -24.690  0.00  0.00     0.134 A 
ATOM     22 BR   UNL d   1      31.878  16.432 -24.977  0.00  0.00    -0.022 Br
ATOM     23  C   UNL d   1      32.910  17.470 -25.097  0.00  0.00     0.034 A 
ATOM     24  C   UNL d   1      33.199  18.066 -24.599  0.00  0.00     0.029 A 
ENDBRANCH   5  19
TORSDOF 4
ENDMDL
MODEL 6
REMARK VINA RESULT:       0.3      4.361      6.388
REMARK  4 active torsions:
REMARK  status: ('A' for Active; 'I' for Inactive)
REMARK    1  A    between atoms: C_11  and  C_4 
REMARK    2  A    between atoms: C_9  and  C_5 
REMARK    3  A    between atoms: O_21  and  C_16 
REMARK    4  A    between atoms: O_22  and  C_17 
ROOT
ATOM      1  N   UNL d   1      32.921  22.164 -21.377  0.00  0.00    -0.185 N 
ATOM      2  C   UNL d   1      32.840  22.970 -21.552  0.00  0.00     0.219 A 
ATOM      3  N   UNL d   1      32.951  22.084 -20.561  0.00  0.00    -0.153 NA
ATOM      4  C   UNL d   1      32.942  21.747 -22.089  0.00  0.00     0.187 A 
ATOM      5  C   UNL d   1      32.888  22.839 -20.222  0.00  0.00     0.156 A 
ATOM      6  S   UNL d   1      32.820  23.387 -20.839  0.00  0.00    -0.024 SA
ATOM      7  N   UNL d   1      32.873  22.297 -22.702  0.00  0.00    -0.127 NA
ATOM      8  N   UNL d   1      32.811  23.050 -22.377  0.00  0.00    -0.120 NA
ENDROOT
BRANCH   4   9
ATOM      9  C   UNL d   1      33.016  20.933 -22.176  0.00  0.00     0.040 A 
ATOM     10  C   UNL d   1      32.966  20.601 -22.928  0.00  0.00     0.029 A 
ATOM     11  C   UNL d   1      33.040  19.792 -23.021  0.00  0.00     0.116 A 
ATOM     12  C   UNL d   1      33.165  19.303 -22.363  0.00  0.00     0.116 A 
ATOM     13  C   UNL d   1      33.214  19.641 -21.607  0.00  0.00     0.026 A 
ATOM     14  C   UNL d   1      33.140  20.455 -21.519  0.00  0.00     0.005 A 
BRANCH  11  15
ATOM     15  O   UNL d   1      32.991  19.448 -23.772  0.00  0.00    -0.326 OA
ATOM     16  C   UNL d   1      33.216  19.869 -24.442  0.00  0.00     0.181 C 
ENDBRANCH  11  15
BRANCH  12  17
ATOM     17  O   UNL d   1      33.240  18.479 -22.448  0.00  0.00    -0.326 OA
ATOM     18  C   UNL d   1      33.208  18.004 -21.778  0.00  0.00     0.181 C 
ENDBRANCH  12  17
ENDBRANCH   4   9
BRANCH   5  19
ATOM     19  C   UNL d   1      32.894  23.013 -19.416  0.00  0.00     0.126 A 
ATOM     20  O   UNL d   1      32.599  22.539 -18.815  0.00  0.00    -0.298 OA
ATOM     21  C   UNL d   1      32.720  22.929 -18.098  0.00  0.00     0.134 A 
ATOM     22 BR   UNL d   1      32.505  22.646 -17.352  0.00  0.00    -0.022 Br
ATOM     23  C   UNL d   1      33.090  23.646 -18.254  0.00  0.00     0.034 A 
ATOM     24  C   UNL d   1      33.199  23.700 -19.074  0.00  0.00     0.029 A 
ENDBRANCH   5  19
TORSDOF 4
ENDMDL
