MODEL 1
REMARK VINA RESULT:      11.9      0.000      0.000
REMARK  3 active torsions:
REMARK  status: ('A' for Active; 'I' for Inactive)
REMARK    1  A    between atoms: C_6  and  C_1 
REMARK    2  A    between atoms: C_7  and  C_5 
REMARK    3  A    between atoms: C_15  and  C_14 
ROOT
ATOM      1  C   UNL d   1      14.589  12.400  -1.195  0.00  0.00     0.169 A 
ATOM      2  C   UNL d   1      14.849  12.775  -1.834  0.00  0.00     0.048 A 
ATOM      3  N   UNL d   1      13.628  11.809  -1.935  0.00  0.00    -0.148 NA
ATOM      4  N   UNL d   1      13.971  11.910  -1.244  0.00  0.00    -0.142 NA
ATOM      5  C   UNL d   1      13.886  12.185  -2.580  0.00  0.00     0.105 A 
ENDROOT
BRANCH   5   6
ATOM      6  C   UNL d   1      13.657  12.201  -3.364  0.00  0.00     0.019 A 
ATOM      7  C   UNL d   1      14.098  12.647  -3.909  0.00  0.00     0.002 A 
ATOM      8  C   UNL d   1      13.874  12.667  -4.694  0.00  0.00     0.000 A 
ATOM      9  C   UNL d   1      13.213  12.246  -4.951  0.00  0.00     0.000 A 
ATOM     10  C   UNL d   1      12.771  11.799  -4.405  0.00  0.00     0.000 A 
ATOM     11  C   UNL d   1      13.000  11.781  -3.613  0.00  0.00     0.002 A 
BRANCH   9  12
ATOM     12  C   UNL d   1      12.980  12.267  -5.765  0.00  0.00     0.000 C 
ATOM     13  C   UNL d   1      13.399  11.809  -6.336  0.00  0.00     0.000 C 
ENDBRANCH   9  12
ENDBRANCH   5   6
BRANCH   1  14
ATOM     14  C   UNL d   1      14.949  12.516  -0.510  0.00  0.00     0.231 C 
ATOM     15  O   UNL d   1      15.166  11.894  -0.073  0.00  0.00    -0.643 OA
ATOM     16  O   UNL d   1      15.096  13.248  -0.256  0.00  0.00    -0.643 OA
ENDBRANCH   1  14
TORSDOF 3
ENDMDL
