MODEL 1
REMARK VINA RESULT:      44.6      0.000      0.000
REMARK  5 active torsions:
REMARK  status: ('A' for Active; 'I' for Inactive)
REMARK       I    between atoms: C_2  and  N_1 
REMARK    1  A    between atoms: C_14  and  C_2 
REMARK    2  A    between atoms: C_8  and  O_11 
REMARK    3  A    between atoms: O_11  and  C_17 
REMARK    4  A    between atoms: C_18  and  C_14 
REMARK    5  A    between atoms: C_17  and  C_18 
ROOT
ATOM      1  C   UNL d   1     -49.476  27.471  34.240  0.00  0.00     0.123 C 
ENDROOT
BRANCH   1   2
ATOM      2  O   UNL d   1     -49.537  26.945  33.609  0.00  0.00    -0.305 OA
BRANCH   2   3
ATOM      3  C   UNL d   1     -50.202  26.469  33.536  0.00  0.00     0.100 A 
ATOM      4  C   UNL d   1     -50.121  25.648  33.522  0.00  0.00     0.025 A 
ATOM      5  C   UNL d   1     -50.788  25.169  33.449  0.00  0.00     0.013 A 
ATOM      6  C   UNL d   1     -50.707  24.348  33.434  0.00  0.00     0.001 C 
ATOM      7  C   UNL d   1     -51.536  25.510  33.390  0.00  0.00     0.058 A 
ATOM      8  C   UNL d   1     -51.618  26.330  33.404  0.00  0.00     0.013 A 
ATOM      9 CL   UNL d   1     -52.203  25.029  33.316  0.00  0.00    -0.082 Cl
ATOM     10  C   UNL d   1     -50.951  26.810  33.477  0.00  0.00     0.025 A 
ATOM     11  C   UNL d   1     -52.366  26.671  33.345  0.00  0.00     0.001 C 
ENDBRANCH   2   3
ENDBRANCH   1   2
BRANCH   1  12
ATOM     12  C   UNL d   1     -48.742  27.789  34.444  0.00  0.00     0.032 C 
BRANCH  12  13
ATOM     13  C   UNL d   1     -48.694  28.544  34.772  0.00  0.00     0.063 C 
BRANCH  13  14
ATOM     14  C   UNL d   1     -48.004  28.788  35.150  0.00  0.00     0.265 C 
ATOM     15  N   UNL d   1     -47.826  29.592  35.209  0.00  0.00    -0.272 N 
ATOM     16  C   UNL d   1     -47.135  29.835  35.587  0.00  0.00     0.083 A 
ATOM     17  C   UNL d   1     -48.340  30.152  34.889  0.00  0.00     0.083 A 
ATOM     18  C   UNL d   1     -46.957  30.639  35.646  0.00  0.00     0.019 A 
ATOM     19  C   UNL d   1     -47.471  31.199  35.326  0.00  0.00     0.003 A 
ATOM     20  C   UNL d   1     -48.162  30.955  34.947  0.00  0.00     0.019 A 
ATOM     21  O   UNL d   1     -47.490  28.228  35.470  0.00  0.00    -0.267 OA
ENDBRANCH  13  14
ENDBRANCH  12  13
ENDBRANCH   1  12
TORSDOF 5
ENDMDL
