MODEL 1
REMARK VINA RESULT:      50.9      0.000      0.000
REMARK  6 active torsions:
REMARK  status: ('A' for Active; 'I' for Inactive)
REMARK    1  A    between atoms: C_4  and  N_1 
REMARK    2  A    between atoms: C_7  and  C_3 
REMARK    3  A    between atoms: N_13  and  C_4 
REMARK    4  A    between atoms: C_16  and  N_13 
REMARK    5  A    between atoms: C_20  and  C_16 
REMARK    6  A    between atoms: C_17  and  C_20 
ROOT
ATOM      1  N   UNL d   1     -50.181  25.862  33.359  0.00  0.00    -0.281 N 
ATOM      2  C   UNL d   1     -50.839  24.607  33.347  0.00  0.00     0.080 A 
ATOM      3  C   UNL d   1     -50.874  25.425  33.359  0.00  0.00     0.084 A 
ATOM      4  N   UNL d   1     -50.112  24.225  33.336  0.00  0.00    -0.301 N 
ATOM      5  C   UNL d   1     -49.447  25.478  33.347  0.00  0.00     0.101 A 
ATOM      6  C   UNL d   1     -51.430  24.030  33.345  0.00  0.00     0.021 A 
ATOM      7  C   UNL d   1     -50.246  23.411  33.326  0.00  0.00     0.080 A 
ATOM      8  C   UNL d   1     -49.420  24.657  33.336  0.00  0.00     0.100 A 
ATOM      9  C   UNL d   1     -51.061  23.286  33.331  0.00  0.00     0.021 A 
ENDROOT
BRANCH   1  10
ATOM     10  C   UNL d   1     -50.206  26.689  33.370  0.00  0.00     0.184 C 
ATOM     11  S   UNL d   1     -50.929  27.068  33.314  0.00  0.00    -0.040 SA
BRANCH  10  12
ATOM     12  N   UNL d   1     -49.516  27.124  33.438  0.00  0.00    -0.330 N 
ATOM     13  H   UNL d   1     -48.969  27.129  32.821  0.00  0.00     0.168 HD
BRANCH  12  14
ATOM     14  C   UNL d   1     -49.367  27.556  34.121  0.00  0.00     0.074 C 
BRANCH  14  15
ATOM     15  C   UNL d   1     -48.982  28.251  34.080  0.00  0.00     0.018 C 
BRANCH  15  16
ATOM     16  C   UNL d   1     -48.564  28.617  34.693  0.00  0.00     0.002 A 
ATOM     17  C   UNL d   1     -48.438  28.205  35.407  0.00  0.00     0.000 A 
ATOM     18  C   UNL d   1     -48.022  28.567  36.020  0.00  0.00     0.000 A 
ATOM     19  C   UNL d   1     -47.730  29.337  35.927  0.00  0.00     0.000 A 
ATOM     20  C   UNL d   1     -47.856  29.750  35.215  0.00  0.00     0.000 A 
ATOM     21  C   UNL d   1     -48.275  29.381  34.603  0.00  0.00     0.000 A 
ENDBRANCH  15  16
ENDBRANCH  14  15
ENDBRANCH  12  14
ENDBRANCH  10  12
ENDBRANCH   1  10
BRANCH   3  22
ATOM     22  C   UNL d   1     -51.603  25.810  33.371  0.00  0.00     0.037 A 
ATOM     23  C   UNL d   1     -52.299  25.375  33.446  0.00  0.00     0.100 A 
ATOM     24  N   UNL d   1     -53.022  25.766  33.457  0.00  0.00    -0.242 NA
ATOM     25  C   UNL d   1     -53.061  26.572  33.395  0.00  0.00     0.099 A 
ATOM     26  C   UNL d   1     -52.366  27.015  33.319  0.00  0.00     0.021 A 
ATOM     27  C   UNL d   1     -51.637  26.630  33.307  0.00  0.00     0.005 A 
ENDBRANCH   3  22
TORSDOF 6
ENDMDL
