MODEL 1
REMARK VINA RESULT:      33.7      0.000      0.000
REMARK  4 active torsions:
REMARK  status: ('A' for Active; 'I' for Inactive)
REMARK    1  A    between atoms: C_18  and  C_5 
REMARK    2  A    between atoms: C_7  and  C_8 
REMARK       I    between atoms: C_8  and  N_17 
REMARK    3  A    between atoms: N_17  and  C_19 
REMARK    4  A    between atoms: C_19  and  C_18 
ROOT
ATOM      1  C   UNL d   1      57.458  49.624  50.055  0.00  0.00     0.148 A 
ATOM      2  N   UNL d   1      57.707  49.655  50.842  0.00  0.00    -0.288 N 
ATOM      3  N   UNL d   1      58.121  49.640  49.578  0.00  0.00    -0.227 NA
ATOM      4  C   UNL d   1      58.535  49.691  50.839  0.00  0.00     0.101 A 
ATOM      5  C   UNL d   1      58.786  49.681  50.054  0.00  0.00     0.102 A 
ATOM      6  C   UNL d   1      56.650  49.584  49.890  0.00  0.00     0.035 A 
ATOM      7  C   UNL d   1      57.159  49.648  51.456  0.00  0.00     0.082 A 
ATOM      8  C   UNL d   1      56.359  49.609  51.286  0.00  0.00     0.019 A 
ATOM      9  C   UNL d   1      56.098  49.577  50.497  0.00  0.00     0.004 A 
ATOM     10  C   UNL d   1      56.387  49.552  49.098  0.00  0.00     0.003 C 
ENDROOT
BRANCH   5  11
ATOM     11  C   UNL d   1      59.572  49.708  49.788  0.00  0.00     0.042 C 
BRANCH  11  12
ATOM     12  C   UNL d   1      60.191  49.525  50.307  0.00  0.00     0.104 C 
BRANCH  12  13
ATOM     13  N   UNL d   1      60.869  49.161  50.025  0.00  0.00    -0.205 NA
ATOM     14  C   UNL d   1      61.443  48.886  50.554  0.00  0.00     0.302 C 
ATOM     15  O   UNL d   1      62.114  48.525  50.269  0.00  0.00    -0.263 OA
BRANCH  14  16
ATOM     16  C   UNL d   1      61.327  48.981  51.367  0.00  0.00     0.158 A 
ATOM     17  O   UNL d   1      61.137  48.334  51.833  0.00  0.00    -0.300 OA
ATOM     18  C   UNL d   1      61.055  48.593  52.613  0.00  0.00     0.123 A 
ATOM     19  C   UNL d   1      61.193  49.395  52.630  0.00  0.00     0.029 A 
ATOM     20  C   UNL d   1      61.364  49.643  51.852  0.00  0.00     0.032 A 
ENDBRANCH  14  16
ENDBRANCH  12  13
ENDBRANCH  11  12
ENDBRANCH   5  11
TORSDOF 4
ENDMDL
MODEL 2
REMARK VINA RESULT:      35.9      0.874      1.296
REMARK  4 active torsions:
REMARK  status: ('A' for Active; 'I' for Inactive)
REMARK    1  A    between atoms: C_18  and  C_5 
REMARK    2  A    between atoms: C_7  and  C_8 
REMARK       I    between atoms: C_8  and  N_17 
REMARK    3  A    between atoms: N_17  and  C_19 
REMARK    4  A    between atoms: C_19  and  C_18 
ROOT
ATOM      1  C   UNL d   1      57.460  49.459  50.035  0.00  0.00     0.148 A 
ATOM      2  N   UNL d   1      57.464  49.601  50.849  0.00  0.00    -0.288 N 
ATOM      3  N   UNL d   1      58.232  49.479  49.770  0.00  0.00    -0.227 NA
ATOM      4  C   UNL d   1      58.253  49.708  51.079  0.00  0.00     0.101 A 
ATOM      5  C   UNL d   1      58.724  49.631  50.407  0.00  0.00     0.102 A 
ATOM      6  C   UNL d   1      56.740  49.332  49.653  0.00  0.00     0.035 A 
ATOM      7  C   UNL d   1      56.761  49.615  51.276  0.00  0.00     0.082 A 
ATOM      8  C   UNL d   1      56.049  49.488  50.891  0.00  0.00     0.019 A 
ATOM      9  C   UNL d   1      56.034  49.345  50.072  0.00  0.00     0.004 A 
ATOM     10  C   UNL d   1      56.723  49.188  48.830  0.00  0.00     0.003 C 
ENDROOT
BRANCH   5  11
ATOM     11  C   UNL d   1      59.551  49.695  50.376  0.00  0.00     0.042 C 
BRANCH  11  12
ATOM     12  C   UNL d   1      60.024  49.182  50.823  0.00  0.00     0.104 C 
BRANCH  12  13
ATOM     13  N   UNL d   1      60.678  49.471  51.224  0.00  0.00    -0.205 NA
ATOM     14  C   UNL d   1      61.351  48.999  51.315  0.00  0.00     0.302 C 
ATOM     15  O   UNL d   1      61.997  49.291  51.714  0.00  0.00    -0.263 OA
BRANCH  14  16
ATOM     16  C   UNL d   1      61.359  48.235  50.999  0.00  0.00     0.158 A 
ATOM     17  O   UNL d   1      61.813  48.070  50.337  0.00  0.00    -0.300 OA
ATOM     18  C   UNL d   1      61.713  47.272  50.148  0.00  0.00     0.123 A 
ATOM     19  C   UNL d   1      61.200  46.946  50.689  0.00  0.00     0.029 A 
ATOM     20  C   UNL d   1      60.975  47.545  51.224  0.00  0.00     0.032 A 
ENDBRANCH  14  16
ENDBRANCH  12  13
ENDBRANCH  11  12
ENDBRANCH   5  11
TORSDOF 4
ENDMDL
