MODEL 1
REMARK VINA RESULT:     104.9      0.000      0.000
REMARK  6 active torsions:
REMARK  status: ('A' for Active; 'I' for Inactive)
REMARK    1  A    between atoms: S_6  and  N_1 
REMARK    2  A    between atoms: C_2  and  C_4 
REMARK    3  A    between atoms: C_12  and  C_3 
REMARK    4  A    between atoms: C_17  and  N_8 
REMARK    5  A    between atoms: C_16  and  C_10 
REMARK    6  A    between atoms: O_27  and  C_24 
ROOT
ATOM      1  N   UNL d   1     -50.735  26.692  35.368  0.00  0.00    -0.155 N 
ATOM      2  C   UNL d   1     -50.499  26.481  34.605  0.00  0.00     0.099 A 
ATOM      3  N   UNL d   1     -50.273  27.334  35.586  0.00  0.00    -0.156 NA
ATOM      4  C   UNL d   1     -49.755  27.520  34.964  0.00  0.00     0.103 A 
ATOM      5  C   UNL d   1     -49.915  26.975  34.366  0.00  0.00     0.041 A 
ENDROOT
BRANCH   2   6
ATOM      6  C   UNL d   1     -50.856  25.827  34.183  0.00  0.00     0.058 A 
ATOM      7  C   UNL d   1     -50.469  25.299  33.716  0.00  0.00     0.110 A 
ATOM      8  N   UNL d   1     -51.070  24.779  33.440  0.00  0.00    -0.165 NA
ATOM      9  N   UNL d   1     -51.801  25.014  33.752  0.00  0.00    -0.228 N 
ATOM     10  C   UNL d   1     -51.668  25.674  34.220  0.00  0.00     0.103 A 
BRANCH   7  11
ATOM     11  C   UNL d   1     -49.669  25.263  33.540  0.00  0.00     0.049 A 
ATOM     12  S   UNL d   1     -49.053  25.457  33.403  0.00  0.00    -0.085 SA
ATOM     13  C   UNL d   1     -48.610  24.752  33.307  0.00  0.00     0.035 A 
ATOM     14  C   UNL d   1     -48.999  24.062  33.395  0.00  0.00     0.007 A 
ATOM     15  C   UNL d   1     -49.706  24.329  33.550  0.00  0.00     0.009 A 
ENDBRANCH   7  11
BRANCH   9  16
ATOM     16  C   UNL d   1     -52.520  24.644  33.610  0.00  0.00     0.083 A 
ATOM     17  C   UNL d   1     -53.199  25.082  33.497  0.00  0.00     0.019 A 
ATOM     18  C   UNL d   1     -53.847  24.663  33.367  0.00  0.00     0.002 A 
ATOM     19  C   UNL d   1     -53.969  23.844  33.322  0.00  0.00     0.000 A 
ATOM     20  C   UNL d   1     -53.250  23.427  33.443  0.00  0.00     0.002 A 
ATOM     21  C   UNL d   1     -52.530  23.800  33.585  0.00  0.00     0.019 A 
ENDBRANCH   9  16
ENDBRANCH   2   6
BRANCH   1  22
ATOM     22  S   UNL d   1     -51.317  26.344  35.842  0.00  0.00     0.266 S 
ATOM     23  O   UNL d   1     -50.784  26.311  36.474  0.00  0.00    -0.203 OA
ATOM     24  O   UNL d   1     -51.848  26.376  35.212  0.00  0.00    -0.203 OA
ATOM     25  C   UNL d   1     -51.901  25.994  36.318  0.00  0.00     0.165 C 
ENDBRANCH   1  22
BRANCH   4  26
ATOM     26  C   UNL d   1     -49.193  28.120  34.934  0.00  0.00     0.020 A 
ATOM     27  C   UNL d   1     -48.842  28.365  34.227  0.00  0.00     0.004 A 
ATOM     28  C   UNL d   1     -48.285  28.964  34.227  0.00  0.00     0.024 A 
ATOM     29  C   UNL d   1     -48.075  29.325  34.940  0.00  0.00     0.094 A 
ATOM     30  C   UNL d   1     -48.426  29.081  35.647  0.00  0.00     0.024 A 
ATOM     31  C   UNL d   1     -48.960  28.503  35.633  0.00  0.00     0.004 A 
BRANCH  29  32
ATOM     32  O   UNL d   1     -47.501  29.939  34.922  0.00  0.00    -0.328 OA
ATOM     33  C   UNL d   1     -46.809  29.867  35.354  0.00  0.00     0.181 C 
ENDBRANCH  29  32
ENDBRANCH   4  26
TORSDOF 6
ENDMDL
MODEL 2
REMARK VINA RESULT:     106.5      1.578      5.434
REMARK  6 active torsions:
REMARK  status: ('A' for Active; 'I' for Inactive)
REMARK    1  A    between atoms: S_6  and  N_1 
REMARK    2  A    between atoms: C_2  and  C_4 
REMARK    3  A    between atoms: C_12  and  C_3 
REMARK    4  A    between atoms: C_17  and  N_8 
REMARK    5  A    between atoms: C_16  and  C_10 
REMARK    6  A    between atoms: O_27  and  C_24 
ROOT
ATOM      1  N   UNL d   1     -50.685  26.506  33.949  0.00  0.00    -0.155 N 
ATOM      2  C   UNL d   1     -50.907  26.417  34.740  0.00  0.00     0.099 A 
ATOM      3  N   UNL d   1     -51.144  25.982  33.517  0.00  0.00    -0.156 NA
ATOM      4  C   UNL d   1     -51.646  25.571  34.034  0.00  0.00     0.103 A 
ATOM      5  C   UNL d   1     -51.480  25.860  34.789  0.00  0.00     0.041 A 
ENDROOT
BRANCH   2   6
ATOM      6  C   UNL d   1     -50.548  26.876  35.368  0.00  0.00     0.058 A 
ATOM      7  C   UNL d   1     -50.785  26.890  36.136  0.00  0.00     0.110 A 
ATOM      8  N   UNL d   1     -50.253  27.421  36.513  0.00  0.00    -0.165 NA
ATOM      9  N   UNL d   1     -49.711  27.708  35.956  0.00  0.00    -0.228 N 
ATOM     10  C   UNL d   1     -49.896  27.366  35.234  0.00  0.00     0.103 A 
BRANCH   7  11
ATOM     11  C   UNL d   1     -51.405  26.484  36.487  0.00  0.00     0.049 A 
ATOM     12  S   UNL d   1     -51.971  26.150  36.555  0.00  0.00    -0.085 SA
ATOM     13  C   UNL d   1     -52.041  25.991  37.375  0.00  0.00     0.035 A 
ATOM     14  C   UNL d   1     -51.459  26.256  37.850  0.00  0.00     0.007 A 
ATOM     15  C   UNL d   1     -51.005  26.592  37.325  0.00  0.00     0.009 A 
ENDBRANCH   7  11
BRANCH   9  16
ATOM     16  C   UNL d   1     -49.105  28.240  36.111  0.00  0.00     0.083 A 
ATOM     17  C   UNL d   1     -48.946  28.480  36.875  0.00  0.00     0.019 A 
ATOM     18  C   UNL d   1     -48.354  28.987  36.947  0.00  0.00     0.002 A 
ATOM     19  C   UNL d   1     -47.854  29.328  36.381  0.00  0.00     0.000 A 
ATOM     20  C   UNL d   1     -48.046  29.058  35.610  0.00  0.00     0.002 A 
ATOM     21  C   UNL d   1     -48.655  28.526  35.456  0.00  0.00     0.019 A 
ENDBRANCH   9  16
ENDBRANCH   2   6
BRANCH   1  22
ATOM     22  S   UNL d   1     -50.116  27.015  33.629  0.00  0.00     0.266 S 
ATOM     23  O   UNL d   1     -50.696  27.594  33.517  0.00  0.00    -0.203 OA
ATOM     24  O   UNL d   1     -49.538  26.438  33.740  0.00  0.00    -0.203 OA
ATOM     25  C   UNL d   1     -49.546  27.526  33.307  0.00  0.00     0.165 C 
ENDBRANCH   1  22
BRANCH   4  26
ATOM     26  C   UNL d   1     -52.202  24.992  33.850  0.00  0.00     0.020 A 
ATOM     27  C   UNL d   1     -52.983  25.173  33.649  0.00  0.00     0.004 A 
ATOM     28  C   UNL d   1     -53.513  24.576  33.471  0.00  0.00     0.024 A 
ATOM     29  C   UNL d   1     -53.263  23.789  33.492  0.00  0.00     0.094 A 
ATOM     30  C   UNL d   1     -52.483  23.608  33.692  0.00  0.00     0.024 A 
ATOM     31  C   UNL d   1     -51.982  24.192  33.862  0.00  0.00     0.004 A 
BRANCH  29  32
ATOM     32  O   UNL d   1     -53.821  23.188  33.306  0.00  0.00    -0.328 OA
ATOM     33  C   UNL d   1     -54.599  23.260  33.553  0.00  0.00     0.181 C 
ENDBRANCH  29  32
ENDBRANCH   4  26
TORSDOF 6
ENDMDL
MODEL 3
REMARK VINA RESULT:     106.8      1.512      5.448
REMARK  6 active torsions:
REMARK  status: ('A' for Active; 'I' for Inactive)
REMARK    1  A    between atoms: S_6  and  N_1 
REMARK    2  A    between atoms: C_2  and  C_4 
REMARK    3  A    between atoms: C_12  and  C_3 
REMARK    4  A    between atoms: C_17  and  N_8 
REMARK    5  A    between atoms: C_16  and  C_10 
REMARK    6  A    between atoms: O_27  and  C_24 
ROOT
ATOM      1  N   UNL d   1     -49.930  27.106  33.949  0.00  0.00    -0.155 N 
ATOM      2  C   UNL d   1     -50.003  26.888  34.743  0.00  0.00     0.099 A 
ATOM      3  N   UNL d   1     -50.341  26.546  33.514  0.00  0.00    -0.156 NA
ATOM      4  C   UNL d   1     -50.668  25.986  34.032  0.00  0.00     0.103 A 
ATOM      5  C   UNL d   1     -50.444  26.221  34.791  0.00  0.00     0.041 A 
ENDROOT
BRANCH   2   6
ATOM      6  C   UNL d   1     -49.645  27.343  35.374  0.00  0.00     0.058 A 
ATOM      7  C   UNL d   1     -49.823  27.285  36.156  0.00  0.00     0.110 A 
ATOM      8  N   UNL d   1     -49.319  27.844  36.531  0.00  0.00    -0.165 NA
ATOM      9  N   UNL d   1     -48.853  28.220  35.958  0.00  0.00    -0.228 N 
ATOM     10  C   UNL d   1     -49.057  27.905  35.229  0.00  0.00     0.103 A 
BRANCH   7  11
ATOM     11  C   UNL d   1     -50.370  26.796  36.521  0.00  0.00     0.049 A 
ATOM     12  S   UNL d   1     -50.746  26.267  36.647  0.00  0.00    -0.085 SA
ATOM     13  C   UNL d   1     -51.192  26.466  37.329  0.00  0.00     0.035 A 
ATOM     14  C   UNL d   1     -51.074  27.186  37.646  0.00  0.00     0.007 A 
ATOM     15  C   UNL d   1     -50.540  27.458  37.159  0.00  0.00     0.009 A 
ENDBRANCH   7  11
BRANCH   9  16
ATOM     16  C   UNL d   1     -48.292  28.802  36.107  0.00  0.00     0.083 A 
ATOM     17  C   UNL d   1     -48.249  29.163  36.837  0.00  0.00     0.019 A 
ATOM     18  C   UNL d   1     -47.690  29.707  36.907  0.00  0.00     0.002 A 
ATOM     19  C   UNL d   1     -47.128  29.985  36.365  0.00  0.00     0.000 A 
ATOM     20  C   UNL d   1     -47.202  29.592  35.627  0.00  0.00     0.002 A 
ATOM     21  C   UNL d   1     -47.765  29.009  35.480  0.00  0.00     0.019 A 
ENDBRANCH   9  16
ENDBRANCH   2   6
BRANCH   1  22
ATOM     22  S   UNL d   1     -49.527  27.754  33.628  0.00  0.00     0.266 S 
ATOM     23  O   UNL d   1     -50.243  28.161  33.550  0.00  0.00    -0.203 OA
ATOM     24  O   UNL d   1     -48.813  27.349  33.706  0.00  0.00    -0.203 OA
ATOM     25  C   UNL d   1     -49.124  28.404  33.307  0.00  0.00     0.165 C 
ENDBRANCH   1  22
BRANCH   4  26
ATOM     26  C   UNL d   1     -51.124  25.326  33.846  0.00  0.00     0.020 A 
ATOM     27  C   UNL d   1     -50.801  24.641  33.517  0.00  0.00     0.004 A 
ATOM     28  C   UNL d   1     -51.279  24.000  33.342  0.00  0.00     0.024 A 
ATOM     29  C   UNL d   1     -52.090  24.043  33.497  0.00  0.00     0.094 A 
ATOM     30  C   UNL d   1     -52.413  24.728  33.827  0.00  0.00     0.024 A 
ATOM     31  C   UNL d   1     -51.942  25.337  33.990  0.00  0.00     0.004 A 
BRANCH  29  32
ATOM     32  O   UNL d   1     -52.567  23.375  33.312  0.00  0.00    -0.328 OA
ATOM     33  C   UNL d   1     -53.383  23.439  33.324  0.00  0.00     0.181 C 
ENDBRANCH  29  32
ENDBRANCH   4  26
TORSDOF 6
ENDMDL
