MODEL 1
REMARK VINA RESULT:       1.2      0.000      0.000
REMARK  6 active torsions:
REMARK  status: ('A' for Active; 'I' for Inactive)
REMARK    1  A    between atoms: S_5  and  C_2 
REMARK    2  A    between atoms: C_15  and  S_5 
REMARK    3  A    between atoms: N_11  and  C_8 
REMARK    4  A    between atoms: C_16  and  N_11 
REMARK    5  A    between atoms: C_17  and  N_12 
REMARK    6  A    between atoms: C_24  and  C_17 
ROOT
ATOM      1  C   UNL d   1      33.050  20.234 -22.673  0.00  0.00     0.197 A 
ATOM      2  C   UNL d   1      33.074  21.023 -22.467  0.00  0.00     0.227 A 
ATOM      3  N   UNL d   1      33.146  19.789 -21.983  0.00  0.00    -0.192 N 
ATOM      4  N   UNL d   1      32.953  19.850 -23.401  0.00  0.00    -0.206 NA
ATOM      5  N   UNL d   1      33.183  21.074 -21.658  0.00  0.00    -0.115 NA
ATOM      6  N   UNL d   1      33.229  20.305 -21.353  0.00  0.00    -0.058 NA
ATOM      7  C   UNL d   1      32.952  19.029 -23.437  0.00  0.00     0.166 A 
ATOM      8  C   UNL d   1      33.048  18.584 -22.746  0.00  0.00     0.054 A 
ATOM      9  C   UNL d   1      33.144  18.961 -22.023  0.00  0.00     0.089 A 
ATOM     10  C   UNL d   1      33.047  17.759 -22.784  0.00  0.00     0.005 A 
ATOM     11  C   UNL d   1      33.241  18.514 -21.329  0.00  0.00     0.019 A 
ATOM     12  C   UNL d   1      33.143  17.312 -22.091  0.00  0.00     0.000 A 
ATOM     13  C   UNL d   1      33.240  17.693 -21.365  0.00  0.00     0.002 A 
ENDROOT
BRANCH   7  14
ATOM     14  N   UNL d   1      32.854  18.655 -24.172  0.00  0.00    -0.227 NA
BRANCH  14  15
ATOM     15  C   UNL d   1      32.109  18.365 -24.401  0.00  0.00     0.086 A 
ATOM     16  C   UNL d   1      31.467  18.883 -24.475  0.00  0.00     0.038 A 
ATOM     17  C   UNL d   1      30.727  18.592 -24.703  0.00  0.00     0.082 A 
ATOM     18  N   UNL d   1      30.633  17.782 -24.855  0.00  0.00    -0.302 N 
ATOM     19  C   UNL d   1      31.272  17.272 -24.781  0.00  0.00     0.082 A 
ATOM     20  C   UNL d   1      32.012  17.563 -24.553  0.00  0.00     0.038 A 
BRANCH  18  21
ATOM     21  C   UNL d   1      29.898  17.488 -25.082  0.00  0.00     0.080 C 
BRANCH  21  22
ATOM     22  C   UNL d   1      29.341  17.287 -24.506  0.00  0.00     0.018 A 
ATOM     23  C   UNL d   1      28.888  17.876 -24.152  0.00  0.00     0.002 A 
ATOM     24  C   UNL d   1      28.332  17.684 -23.578  0.00  0.00     0.000 A 
ATOM     25  C   UNL d   1      28.226  16.885 -23.354  0.00  0.00     0.000 A 
ATOM     26  C   UNL d   1      28.683  16.302 -23.713  0.00  0.00     0.000 A 
ATOM     27  C   UNL d   1      29.241  16.497 -24.289  0.00  0.00     0.002 A 
ENDBRANCH  21  22
ENDBRANCH  18  21
ENDBRANCH  14  15
ENDBRANCH   7  14
BRANCH   2  28
ATOM     28  S   UNL d   1      33.000  21.663 -22.984  0.00  0.00     0.231 S 
ATOM     29  O   UNL d   1      33.226  21.179 -23.615  0.00  0.00    -0.215 OA
ATOM     30  O   UNL d   1      32.774  22.153 -22.361  0.00  0.00    -0.215 OA
BRANCH  28  31
ATOM     31  C   UNL d   1      32.929  22.297 -23.507  0.00  0.00     0.090 A 
ATOM     32  C   UNL d   1      33.187  22.218 -24.279  0.00  0.00     0.011 A 
ATOM     33  C   UNL d   1      33.118  22.850 -24.806  0.00  0.00     0.001 A 
ATOM     34  C   UNL d   1      32.788  23.562 -24.554  0.00  0.00     0.000 A 
ATOM     35  C   UNL d   1      32.532  23.636 -23.781  0.00  0.00     0.001 A 
ATOM     36  C   UNL d   1      32.601  23.007 -23.260  0.00  0.00     0.011 A 
ENDBRANCH  28  31
ENDBRANCH   2  28
TORSDOF 6
ENDMDL
MODEL 2
REMARK VINA RESULT:       2.3      2.213      5.226
REMARK  6 active torsions:
REMARK  status: ('A' for Active; 'I' for Inactive)
REMARK    1  A    between atoms: S_5  and  C_2 
REMARK    2  A    between atoms: C_15  and  S_5 
REMARK    3  A    between atoms: N_11  and  C_8 
REMARK    4  A    between atoms: C_16  and  N_11 
REMARK    5  A    between atoms: C_17  and  N_12 
REMARK    6  A    between atoms: C_24  and  C_17 
ROOT
ATOM      1  C   UNL d   1      30.457  16.781 -24.177  0.00  0.00     0.197 A 
ATOM      2  C   UNL d   1      29.698  16.565 -23.968  0.00  0.00     0.227 A 
ATOM      3  N   UNL d   1      30.869  16.094 -24.381  0.00  0.00    -0.192 N 
ATOM      4  N   UNL d   1      30.838  17.516 -24.212  0.00  0.00    -0.206 NA
ATOM      5  N   UNL d   1      29.634  15.752 -24.039  0.00  0.00    -0.115 NA
ATOM      6  N   UNL d   1      30.364  15.455 -24.297  0.00  0.00    -0.058 NA
ATOM      7  C   UNL d   1      31.623  17.562 -24.449  0.00  0.00     0.166 A 
ATOM      8  C   UNL d   1      32.036  16.875 -24.653  0.00  0.00     0.054 A 
ATOM      9  C   UNL d   1      31.661  16.144 -24.619  0.00  0.00     0.089 A 
ATOM     10  C   UNL d   1      32.825  16.923 -24.890  0.00  0.00     0.005 A 
ATOM     11  C   UNL d   1      32.075  15.454 -24.824  0.00  0.00     0.019 A 
ATOM     12  C   UNL d   1      33.239  16.232 -25.095  0.00  0.00     0.000 A 
ATOM     13  C   UNL d   1      32.861  15.499 -25.061  0.00  0.00     0.002 A 
ENDROOT
BRANCH   7  14
ATOM     14  N   UNL d   1      31.995  18.305 -24.480  0.00  0.00    -0.227 NA
BRANCH  14  15
ATOM     15  C   UNL d   1      32.271  18.666 -23.785  0.00  0.00     0.086 A 
ATOM     16  C   UNL d   1      32.563  18.203 -23.163  0.00  0.00     0.038 A 
ATOM     17  C   UNL d   1      32.837  18.567 -22.473  0.00  0.00     0.082 A 
ATOM     18  N   UNL d   1      32.817  19.392 -22.406  0.00  0.00    -0.302 N 
ATOM     19  C   UNL d   1      32.527  19.849 -23.025  0.00  0.00     0.082 A 
ATOM     20  C   UNL d   1      32.253  19.485 -23.716  0.00  0.00     0.038 A 
BRANCH  18  21
ATOM     21  C   UNL d   1      33.088  19.758 -21.721  0.00  0.00     0.080 C 
BRANCH  21  22
ATOM     22  C   UNL d   1      32.811  20.509 -21.519  0.00  0.00     0.018 A 
ATOM     23  C   UNL d   1      32.212  20.587 -20.960  0.00  0.00     0.002 A 
ATOM     24  C   UNL d   1      31.930  21.331 -20.753  0.00  0.00     0.000 A 
ATOM     25  C   UNL d   1      32.255  22.013 -21.114  0.00  0.00     0.000 A 
ATOM     26  C   UNL d   1      32.854  21.926 -21.672  0.00  0.00     0.000 A 
ATOM     27  C   UNL d   1      33.135  21.179 -21.878  0.00  0.00     0.002 A 
ENDBRANCH  21  22
ENDBRANCH  18  21
ENDBRANCH  14  15
ENDBRANCH   7  14
BRANCH   2  28
ATOM     28  S   UNL d   1      29.096  17.076 -23.725  0.00  0.00     0.231 S 
ATOM     29  O   UNL d   1      29.033  16.662 -23.012  0.00  0.00    -0.215 OA
ATOM     30  O   UNL d   1      29.153  17.494 -24.434  0.00  0.00    -0.215 OA
BRANCH  28  31
ATOM     31  C   UNL d   1      28.495  17.582 -23.476  0.00  0.00     0.090 A 
ATOM     32  C   UNL d   1      28.471  18.352 -23.749  0.00  0.00     0.011 A 
ATOM     33  C   UNL d   1      27.870  18.862 -23.501  0.00  0.00     0.001 A 
ATOM     34  C   UNL d   1      27.293  18.594 -22.977  0.00  0.00     0.000 A 
ATOM     35  C   UNL d   1      27.321  17.823 -22.707  0.00  0.00     0.001 A 
ATOM     36  C   UNL d   1      27.918  17.319 -22.954  0.00  0.00     0.011 A 
ENDBRANCH  28  31
ENDBRANCH   2  28
TORSDOF 6
ENDMDL
