MODEL 1
REMARK VINA RESULT:      14.3      0.000      0.000
REMARK  2 active torsions:
REMARK  status: ('A' for Active; 'I' for Inactive)
REMARK    1  A    between atoms: C_6  and  C_1 
REMARK    2  A    between atoms: C_10  and  C_6 
ROOT
ATOM      1  C   UNL d   1      46.204 -17.726  44.283  0.00  0.00     0.139 A 
ATOM      2  C   UNL d   1      46.413 -18.790  43.500  0.00  0.00     0.064 A 
ATOM      3  C   UNL d   1      46.314 -18.543  44.282  0.00  0.00     0.220 A 
ATOM      4  C   UNL d   1      46.364 -18.124  43.016  0.00  0.00     0.106 A 
ATOM      5  O   UNL d   1      46.235 -17.471  43.502  0.00  0.00    -0.304 OA
ATOM      6  C   UNL d   1      46.440 -18.189  42.202  0.00  0.00     0.067 A 
ATOM      7  C   UNL d   1      46.540 -19.532  43.168  0.00  0.00     0.009 A 
ATOM      8  O   UNL d   1      46.323 -19.027  44.954  0.00  0.00    -0.284 OA
ATOM      9  C   UNL d   1      46.568 -18.928  41.868  0.00  0.00     0.198 A 
ATOM     10  C   UNL d   1      46.618 -19.601  42.347  0.00  0.00     0.042 A 
ATOM     11  O   UNL d   1      46.646 -18.999  41.039  0.00  0.00    -0.286 OA
ENDROOT
BRANCH   1  12
ATOM     12  C   UNL d   1      46.085 -17.252  44.947  0.00  0.00     0.028 C 
BRANCH  12  13
ATOM     13  C   UNL d   1      45.838 -16.462  44.851  0.00  0.00     0.002 A 
ATOM     14  C   UNL d   1      45.037 -16.276  44.906  0.00  0.00     0.001 A 
ATOM     15  C   UNL d   1      44.788 -15.498  44.812  0.00  0.00     0.007 A 
ATOM     16  C   UNL d   1      45.341 -14.898  44.661  0.00  0.00     0.035 A 
ATOM     17  C   UNL d   1      46.145 -15.085  44.605  0.00  0.00     0.007 A 
ATOM     18 BR   UNL d   1      45.103 -14.119  44.565  0.00  0.00    -0.049 Br
ATOM     19  C   UNL d   1      46.393 -15.871  44.701  0.00  0.00     0.001 A 
ENDBRANCH  12  13
ENDBRANCH   1  12
TORSDOF 2
ENDMDL
