MODEL 1
REMARK VINA RESULT:      13.4      0.000      0.000
REMARK  5 active torsions:
REMARK  status: ('A' for Active; 'I' for Inactive)
REMARK    1  A    between atoms: N_3  and  C_1 
REMARK       I    between atoms: C_9  and  N_3 
REMARK       I    between atoms: N_7  and  C_8 
REMARK    2  A    between atoms: C_8  and  C_14 
REMARK    3  A    between atoms: C_15  and  C_9 
REMARK    4  A    between atoms: S_12  and  C_15 
REMARK    5  A    between atoms: C_14  and  S_12 
ROOT
ATOM      1  N   UNL d   1      45.804 -17.268  44.527  0.00  0.00    -0.183 NA
ATOM      2  C   UNL d   1      46.198 -16.586  44.270  0.00  0.00     0.287 C 
ATOM      3  O   UNL d   1      46.647 -16.604  43.573  0.00  0.00    -0.265 OA
ENDROOT
BRANCH   2   4
ATOM      4  C   UNL d   1      46.149 -15.891  44.701  0.00  0.00     0.098 C 
BRANCH   4   5
ATOM      5  S   UNL d   1      45.761 -15.228  44.387  0.00  0.00    -0.076 SA
BRANCH   5   6
ATOM      6  C   UNL d   1      45.632 -14.562  44.859  0.00  0.00     0.097 C 
BRANCH   6   7
ATOM      7  C   UNL d   1      45.923 -13.826  44.630  0.00  0.00     0.271 C 
ATOM      8  N   UNL d   1      45.490 -13.363  44.110  0.00  0.00    -0.272 N 
ATOM      9  C   UNL d   1      44.768 -13.650  43.829  0.00  0.00     0.083 A 
ATOM     10  C   UNL d   1      45.771 -12.637  43.881  0.00  0.00     0.083 A 
ATOM     11  C   UNL d   1      44.330 -13.186  43.305  0.00  0.00     0.019 A 
ATOM     12  C   UNL d   1      44.609 -12.454  43.071  0.00  0.00     0.003 A 
ATOM     13  C   UNL d   1      45.332 -12.171  43.355  0.00  0.00     0.019 A 
ATOM     14  O   UNL d   1      46.645 -13.559  44.922  0.00  0.00    -0.266 OA
ENDBRANCH   6   7
ENDBRANCH   5   6
ENDBRANCH   4   5
ENDBRANCH   2   4
BRANCH   1  15
ATOM     15  C   UNL d   1      45.982 -17.842  43.959  0.00  0.00     0.182 A 
ATOM     16  N   UNL d   1      46.219 -18.620  44.110  0.00  0.00    -0.283 N 
ATOM     17  C   UNL d   1      46.339 -19.001  43.383  0.00  0.00     0.072 A 
ATOM     18  C   UNL d   1      46.317 -18.951  44.852  0.00  0.00     0.101 C 
ATOM     19  C   UNL d   1      46.573 -19.762  43.188  0.00  0.00     0.017 A 
ATOM     20  C   UNL d   1      46.176 -18.458  42.782  0.00  0.00     0.048 A 
ATOM     21  C   UNL d   1      46.646 -19.986  42.409  0.00  0.00    -0.011 A 
ATOM     22  C   UNL d   1      46.483 -19.443  41.808  0.00  0.00     0.027 A 
ATOM     23  C   UNL d   1      46.247 -18.675  41.986  0.00  0.00    -0.004 A 
ATOM     24  S   UNL d   1      45.955 -17.739  43.136  0.00  0.00    -0.048 SA
ENDBRANCH   1  15
TORSDOF 5
ENDMDL
MODEL 2
REMARK VINA RESULT:      13.9      1.078      5.382
REMARK  5 active torsions:
REMARK  status: ('A' for Active; 'I' for Inactive)
REMARK    1  A    between atoms: N_3  and  C_1 
REMARK       I    between atoms: C_9  and  N_3 
REMARK       I    between atoms: N_7  and  C_8 
REMARK    2  A    between atoms: C_8  and  C_14 
REMARK    3  A    between atoms: C_15  and  C_9 
REMARK    4  A    between atoms: S_12  and  C_15 
REMARK    5  A    between atoms: C_14  and  S_12 
ROOT
ATOM      1  N   UNL d   1      45.120 -15.774  43.996  0.00  0.00    -0.183 NA
ATOM      2  C   UNL d   1      45.647 -16.171  44.497  0.00  0.00     0.287 C 
ATOM      3  O   UNL d   1      46.188 -15.742  44.955  0.00  0.00    -0.265 OA
ENDROOT
BRANCH   2   4
ATOM      4  C   UNL d   1      45.638 -16.989  44.544  0.00  0.00     0.098 C 
BRANCH   4   5
ATOM      5  S   UNL d   1      46.339 -17.424  44.457  0.00  0.00    -0.076 SA
BRANCH   5   6
ATOM      6  C   UNL d   1      46.494 -17.824  43.751  0.00  0.00     0.097 C 
BRANCH   6   7
ATOM      7  C   UNL d   1      46.487 -18.647  43.727  0.00  0.00     0.271 C 
ATOM      8  N   UNL d   1      46.538 -19.032  43.005  0.00  0.00    -0.272 N 
ATOM      9  C   UNL d   1      46.595 -18.580  42.317  0.00  0.00     0.083 A 
ATOM     10  C   UNL d   1      46.533 -19.843  42.976  0.00  0.00     0.083 A 
ATOM     11  C   UNL d   1      46.646 -18.966  41.588  0.00  0.00     0.019 A 
ATOM     12  C   UNL d   1      46.641 -19.782  41.553  0.00  0.00     0.003 A 
ATOM     13  C   UNL d   1      46.584 -20.231  42.245  0.00  0.00     0.019 A 
ATOM     14  O   UNL d   1      46.430 -19.079  44.426  0.00  0.00    -0.266 OA
ENDBRANCH   6   7
ENDBRANCH   5   6
ENDBRANCH   4   5
ENDBRANCH   2   4
BRANCH   1  15
ATOM     15  C   UNL d   1      45.294 -14.972  44.099  0.00  0.00     0.182 A 
ATOM     16  N   UNL d   1      44.753 -14.374  44.284  0.00  0.00    -0.283 N 
ATOM     17  C   UNL d   1      45.166 -13.657  44.335  0.00  0.00     0.072 A 
ATOM     18  C   UNL d   1      43.949 -14.481  44.395  0.00  0.00     0.101 C 
ATOM     19  C   UNL d   1      44.926 -12.890  44.499  0.00  0.00     0.017 A 
ATOM     20  C   UNL d   1      45.963 -13.811  44.182  0.00  0.00     0.048 A 
ATOM     21  C   UNL d   1      45.466 -12.281  44.512  0.00  0.00    -0.011 A 
ATOM     22  C   UNL d   1      46.262 -12.435  44.358  0.00  0.00     0.027 A 
ATOM     23  C   UNL d   1      46.520 -13.198  44.192  0.00  0.00    -0.004 A 
ATOM     24  S   UNL d   1      46.046 -14.624  44.035  0.00  0.00    -0.048 SA
ENDBRANCH   1  15
TORSDOF 5
ENDMDL
