MODEL 1
REMARK VINA RESULT:      28.6      0.000      0.000
REMARK  2 active torsions:
REMARK  status: ('A' for Active; 'I' for Inactive)
REMARK    1  A    between atoms: C_7  and  C_1 
REMARK    2  A    between atoms: O_14  and  C_11 
ROOT
ATOM      1  C   UNL d   1      14.717  13.337  -1.053  0.00  0.00     0.066 A 
ATOM      2  C   UNL d   1      14.649  14.021  -1.560  0.00  0.00     0.200 A 
ATOM      3  C   UNL d   1      14.892  14.757  -1.279  0.00  0.00     0.062 A 
ATOM      4  C   UNL d   1      15.024  13.421  -0.291  0.00  0.00     0.126 A 
ATOM      5  C   UNL d   1      15.199  14.840  -0.516  0.00  0.00     0.106 A 
ATOM      6  O   UNL d   1      15.271  14.190  -0.015  0.00  0.00    -0.305 OA
ATOM      7  C   UNL d   1      14.822  15.429  -1.783  0.00  0.00     0.009 A 
ATOM      8  C   UNL d   1      15.444  15.598  -0.238  0.00  0.00     0.067 A 
ATOM      9  O   UNL d   1      14.336  13.937  -2.336  0.00  0.00    -0.286 OA
ATOM     10  C   UNL d   1      15.375  16.274  -0.743  0.00  0.00     0.198 A 
ATOM     11  C   UNL d   1      15.068  16.191  -1.506  0.00  0.00     0.042 A 
ATOM     12  O   UNL d   1      15.621  17.034  -0.466  0.00  0.00    -0.286 OA
ENDROOT
BRANCH   1  13
ATOM     13  C   UNL d   1      14.548  12.815  -1.245  0.00  0.00     0.027 A 
ATOM     14  C   UNL d   1      14.639  12.346  -0.923  0.00  0.00     0.094 A 
ATOM     15  C   UNL d   1      14.473  11.823  -1.107  0.00  0.00     0.024 A 
ATOM     16  C   UNL d   1      14.211  11.780  -1.628  0.00  0.00     0.002 A 
ATOM     17  C   UNL d   1      14.120  12.249  -1.949  0.00  0.00     0.000 A 
ATOM     18  C   UNL d   1      14.289  12.771  -1.758  0.00  0.00     0.002 A 
BRANCH  14  19
ATOM     19  O   UNL d   1      14.904  12.392  -0.399  0.00  0.00    -0.328 OA
ATOM     20  C   UNL d   1      14.881  11.956  -0.022  0.00  0.00     0.181 C 
ENDBRANCH  14  19
ENDBRANCH   1  13
TORSDOF 2
ENDMDL
MODEL 2
REMARK VINA RESULT:      28.9      1.399      2.608
REMARK  2 active torsions:
REMARK  status: ('A' for Active; 'I' for Inactive)
REMARK    1  A    between atoms: C_7  and  C_1 
REMARK    2  A    between atoms: O_14  and  C_11 
ROOT
ATOM      1  C   UNL d   1      14.426  13.008  -1.425  0.00  0.00     0.066 A 
ATOM      2  C   UNL d   1      14.031  12.653  -2.094  0.00  0.00     0.200 A 
ATOM      3  C   UNL d   1      13.787  13.133  -2.719  0.00  0.00     0.062 A 
ATOM      4  C   UNL d   1      14.559  13.823  -1.412  0.00  0.00     0.126 A 
ATOM      5  C   UNL d   1      13.921  13.948  -2.706  0.00  0.00     0.106 A 
ATOM      6  O   UNL d   1      14.301  14.305  -2.067  0.00  0.00    -0.305 OA
ATOM      7  C   UNL d   1      13.398  12.777  -3.377  0.00  0.00     0.009 A 
ATOM      8  C   UNL d   1      13.668  14.429  -3.350  0.00  0.00     0.067 A 
ATOM      9  O   UNL d   1      13.895  11.823  -2.107  0.00  0.00    -0.286 OA
ATOM     10  C   UNL d   1      13.276  14.074  -4.012  0.00  0.00     0.198 A 
ATOM     11  C   UNL d   1      13.143  13.259  -4.025  0.00  0.00     0.042 A 
ATOM     12  O   UNL d   1      13.022  14.556  -4.659  0.00  0.00    -0.286 OA
ENDROOT
BRANCH   1  13
ATOM     13  C   UNL d   1      14.600  12.676  -0.980  0.00  0.00     0.027 A 
ATOM     14  C   UNL d   1      14.930  12.900  -0.565  0.00  0.00     0.094 A 
ATOM     15  C   UNL d   1      15.107  12.576  -0.119  0.00  0.00     0.024 A 
ATOM     16  C   UNL d   1      14.945  12.015  -0.099  0.00  0.00     0.002 A 
ATOM     17  C   UNL d   1      14.615  11.791  -0.515  0.00  0.00     0.000 A 
ATOM     18  C   UNL d   1      14.440  12.123  -0.960  0.00  0.00     0.002 A 
BRANCH  14  19
ATOM     19  O   UNL d   1      15.093  13.466  -0.587  0.00  0.00    -0.328 OA
ATOM     20  C   UNL d   1      15.153  13.771  -0.101  0.00  0.00     0.181 C 
ENDBRANCH  14  19
ENDBRANCH   1  13
TORSDOF 2
ENDMDL
MODEL 3
REMARK VINA RESULT:      31.4      8.438      8.834
REMARK  2 active torsions:
REMARK  status: ('A' for Active; 'I' for Inactive)
REMARK    1  A    between atoms: C_7  and  C_1 
REMARK    2  A    between atoms: O_14  and  C_11 
ROOT
ATOM      1  C   UNL d   1      23.448  12.715  -1.006  0.00  0.00     0.066 A 
ATOM      2  C   UNL d   1      23.471  12.591  -1.851  0.00  0.00     0.200 A 
ATOM      3  C   UNL d   1      22.838  12.847  -2.313  0.00  0.00     0.062 A 
ATOM      4  C   UNL d   1      22.795  13.089  -0.664  0.00  0.00     0.126 A 
ATOM      5  C   UNL d   1      22.185  13.220  -1.971  0.00  0.00     0.106 A 
ATOM      6  O   UNL d   1      22.148  13.348  -1.157  0.00  0.00    -0.305 OA
ATOM      7  C   UNL d   1      22.866  12.722  -3.147  0.00  0.00     0.009 A 
ATOM      8  C   UNL d   1      21.543  13.478  -2.453  0.00  0.00     0.067 A 
ATOM      9  O   UNL d   1      24.135  12.211  -2.199  0.00  0.00    -0.286 OA
ATOM     10  C   UNL d   1      21.570  13.354  -3.290  0.00  0.00     0.198 A 
ATOM     11  C   UNL d   1      22.222  12.980  -3.632  0.00  0.00     0.042 A 
ATOM     12  O   UNL d   1      20.926  13.612  -3.775  0.00  0.00    -0.286 OA
ENDROOT
BRANCH   1  13
ATOM     13  C   UNL d   1      23.890  12.537  -0.673  0.00  0.00     0.027 A 
ATOM     14  C   UNL d   1      24.184  12.918  -0.355  0.00  0.00     0.094 A 
ATOM     15  C   UNL d   1      24.625  12.747  -0.022  0.00  0.00     0.024 A 
ATOM     16  C   UNL d   1      24.768  12.181  -0.014  0.00  0.00     0.002 A 
ATOM     17  C   UNL d   1      24.474  11.801  -0.332  0.00  0.00     0.000 A 
ATOM     18  C   UNL d   1      24.032  11.979  -0.665  0.00  0.00     0.002 A 
BRANCH  14  19
ATOM     19  O   UNL d   1      24.038  13.488  -0.365  0.00  0.00    -0.328 OA
ATOM     20  C   UNL d   1      24.340  13.871  -0.057  0.00  0.00     0.181 C 
ENDBRANCH  14  19
ENDBRANCH   1  13
TORSDOF 2
ENDMDL
