MODEL 1
REMARK VINA RESULT:      -4.6      0.000      0.000
REMARK  2 active torsions:
REMARK  status: ('A' for Active; 'I' for Inactive)
REMARK    1  A    between atoms: C_9  and  N_1 
REMARK    2  A    between atoms: C_2  and  C_10 
ROOT
ATOM      1  C   UNL d   1     -41.682-122.541 -53.200  0.00  0.00     0.070 A 
ATOM      2  C   UNL d   1     -41.715-122.794 -51.550  0.00  0.00     0.024 A 
ATOM      3  C   UNL d   1     -41.125-122.183 -52.719  0.00  0.00     0.018 A 
ATOM      4  C   UNL d   1     -42.262-123.026 -52.889  0.00  0.00     0.018 A 
ATOM      5  C   UNL d   1     -41.142-122.311 -51.881  0.00  0.00     0.004 A 
ATOM      6  C   UNL d   1     -42.279-123.154 -52.055  0.00  0.00     0.004 A 
ENDROOT
BRANCH   2   7
ATOM      7  C   UNL d   1     -41.729-122.899 -50.868  0.00  0.00     0.111 A 
ATOM      8  N   UNL d   1     -42.367-122.554 -50.312  0.00  0.00    -0.239 NA
ATOM      9  C   UNL d   1     -42.140-122.839 -49.539  0.00  0.00     0.088 A 
ATOM     10  C   UNL d   1     -42.500-122.703 -48.869  0.00  0.00     0.020 A 
ATOM     11  C   UNL d   1     -41.457-123.298 -49.596  0.00  0.00     0.049 A 
ATOM     12  C   UNL d   1     -42.167-123.050 -48.162  0.00  0.00     0.002 A 
ATOM     13  C   UNL d   1     -41.502-123.496 -48.217  0.00  0.00     0.001 A 
ATOM     14  C   UNL d   1     -41.123-123.638 -48.930  0.00  0.00     0.008 A 
ATOM     15  S   UNL d   1     -41.226-123.308 -50.483  0.00  0.00    -0.066 SA
ENDBRANCH   2   7
BRANCH   1  16
ATOM     16  N   UNL d   1     -41.666-122.415 -54.025  0.00  0.00    -0.242 N 
ATOM     17  C   UNL d   1     -41.405-123.007 -54.534  0.00  0.00     0.267 A 
ATOM     18  C   UNL d   1     -41.457-122.710 -55.302  0.00  0.00     0.066 A 
ATOM     19  O   UNL d   1     -41.123-123.799 -54.341  0.00  0.00    -0.267 OA
ATOM     20  C   UNL d   1     -41.756-121.921 -55.251  0.00  0.00     0.066 A 
ATOM     21  C   UNL d   1     -41.881-121.755 -54.439  0.00  0.00     0.267 A 
ATOM     22  O   UNL d   1     -42.170-121.046 -54.140  0.00  0.00    -0.267 OA
ENDBRANCH   1  16
TORSDOF 2
ENDMDL
MODEL 2
REMARK VINA RESULT:      -4.5      1.931      4.768
REMARK  2 active torsions:
REMARK  status: ('A' for Active; 'I' for Inactive)
REMARK    1  A    between atoms: C_9  and  N_1 
REMARK    2  A    between atoms: C_2  and  C_10 
ROOT
ATOM      1  C   UNL d   1     -42.172-123.049 -49.937  0.00  0.00     0.070 A 
ATOM      2  C   UNL d   1     -41.889-122.913 -51.576  0.00  0.00     0.024 A 
ATOM      3  C   UNL d   1     -42.449-122.397 -50.348  0.00  0.00     0.018 A 
ATOM      4  C   UNL d   1     -41.755-123.643 -50.314  0.00  0.00     0.018 A 
ATOM      5  C   UNL d   1     -42.305-122.328 -51.181  0.00  0.00     0.004 A 
ATOM      6  C   UNL d   1     -41.612-123.574 -51.143  0.00  0.00     0.004 A 
ENDROOT
BRANCH   2   7
ATOM      7  C   UNL d   1     -41.772-122.857 -52.254  0.00  0.00     0.111 A 
ATOM      8  N   UNL d   1     -41.983-122.118 -52.749  0.00  0.00    -0.239 NA
ATOM      9  C   UNL d   1     -41.731-122.322 -53.540  0.00  0.00     0.088 A 
ATOM     10  C   UNL d   1     -41.786-121.883 -54.173  0.00  0.00     0.020 A 
ATOM     11  C   UNL d   1     -41.407-123.080 -53.547  0.00  0.00     0.049 A 
ATOM     12  C   UNL d   1     -41.495-122.208 -54.908  0.00  0.00     0.002 A 
ATOM     13  C   UNL d   1     -41.179-122.946 -54.915  0.00  0.00     0.001 A 
ATOM     14  C   UNL d   1     -41.123-123.409 -54.241  0.00  0.00     0.008 A 
ATOM     15  S   UNL d   1     -41.455-123.389 -52.685  0.00  0.00    -0.066 SA
ENDBRANCH   2   7
BRANCH   1  16
ATOM     16  N   UNL d   1     -42.314-123.117 -49.117  0.00  0.00    -0.242 N 
ATOM     17  C   UNL d   1     -43.002-123.475 -48.839  0.00  0.00     0.267 A 
ATOM     18  C   UNL d   1     -42.973-123.454 -48.015  0.00  0.00     0.066 A 
ATOM     19  O   UNL d   1     -43.652-123.817 -49.292  0.00  0.00    -0.267 OA
ATOM     20  C   UNL d   1     -42.250-123.075 -47.794  0.00  0.00     0.066 A 
ATOM     21  C   UNL d   1     -41.851-122.871 -48.503  0.00  0.00     0.267 A 
ATOM     22  O   UNL d   1     -41.123-122.491 -48.543  0.00  0.00    -0.267 OA
ENDBRANCH   1  16
TORSDOF 2
ENDMDL
MODEL 3
REMARK VINA RESULT:      -4.0      1.976      4.815
REMARK  2 active torsions:
REMARK  status: ('A' for Active; 'I' for Inactive)
REMARK    1  A    between atoms: C_9  and  N_1 
REMARK    2  A    between atoms: C_2  and  C_10 
ROOT
ATOM      1  C   UNL d   1     -42.244-123.092 -49.950  0.00  0.00     0.070 A 
ATOM      2  C   UNL d   1     -41.898-122.953 -51.577  0.00  0.00     0.024 A 
ATOM      3  C   UNL d   1     -42.319-122.368 -50.325  0.00  0.00     0.018 A 
ATOM      4  C   UNL d   1     -42.001-123.757 -50.358  0.00  0.00     0.018 A 
ATOM      5  C   UNL d   1     -42.143-122.297 -51.152  0.00  0.00     0.004 A 
ATOM      6  C   UNL d   1     -41.826-123.687 -51.180  0.00  0.00     0.004 A 
ENDROOT
BRANCH   2   7
ATOM      7  C   UNL d   1     -41.754-122.896 -52.250  0.00  0.00     0.111 A 
ATOM      8  N   UNL d   1     -41.534-123.602 -52.786  0.00  0.00    -0.239 NA
ATOM      9  C   UNL d   1     -41.412-123.245 -53.554  0.00  0.00     0.088 A 
ATOM     10  C   UNL d   1     -41.214-123.606 -54.208  0.00  0.00     0.020 A 
ATOM     11  C   UNL d   1     -41.536-122.431 -53.510  0.00  0.00     0.049 A 
ATOM     12  C   UNL d   1     -41.123-123.130 -54.911  0.00  0.00     0.002 A 
ATOM     13  C   UNL d   1     -41.243-122.337 -54.869  0.00  0.00     0.001 A 
ATOM     14  C   UNL d   1     -41.453-121.958 -54.174  0.00  0.00     0.008 A 
ATOM     15  S   UNL d   1     -41.757-122.250 -52.639  0.00  0.00    -0.066 SA
ENDBRANCH   2   7
BRANCH   1  16
ATOM     16  N   UNL d   1     -42.417-123.161 -49.136  0.00  0.00    -0.242 N 
ATOM     17  C   UNL d   1     -41.888-122.884 -48.570  0.00  0.00     0.267 A 
ATOM     18  C   UNL d   1     -42.220-123.034 -47.830  0.00  0.00     0.066 A 
ATOM     19  O   UNL d   1     -41.123-122.503 -48.689  0.00  0.00    -0.267 OA
ATOM     20  C   UNL d   1     -42.966-123.411 -47.956  0.00  0.00     0.066 A 
ATOM     21  C   UNL d   1     -43.071-123.482 -48.785  0.00  0.00     0.267 A 
ATOM     22  O   UNL d   1     -43.725-123.817 -49.152  0.00  0.00    -0.267 OA
ENDBRANCH   1  16
TORSDOF 2
ENDMDL
