MODEL 1
REMARK VINA RESULT:       3.5      0.000      0.000
REMARK  2 active torsions:
REMARK  status: ('A' for Active; 'I' for Inactive)
REMARK    1  A    between atoms: C_7  and  C_1 
REMARK    2  A    between atoms: S_13  and  C_5 
ROOT
ATOM      1  C   UNL d   1     -41.657-122.098 -51.563  0.00  0.00     0.025 A 
ATOM      2  C   UNL d   1     -41.429-121.330 -51.371  0.00  0.00     0.106 A 
ATOM      3  C   UNL d   1     -41.809-122.294 -52.352  0.00  0.00     0.092 A 
ATOM      4  N   UNL d   1     -41.504-120.955 -52.745  0.00  0.00    -0.218 NA
ATOM      5  C   UNL d   1     -41.733-121.722 -52.942  0.00  0.00     0.118 A 
ATOM      6  C   UNL d   1     -41.352-120.759 -51.961  0.00  0.00     0.194 A 
ATOM      7  C   UNL d   1     -41.276-121.134 -50.581  0.00  0.00     0.104 C 
ATOM      8  C   UNL d   1     -42.036-123.059 -52.542  0.00  0.00     0.103 C 
ATOM      9  N   UNL d   1     -41.126-120.941 -49.806  0.00  0.00    -0.191 NA
ATOM     10  N   UNL d   1     -42.262-123.817 -52.736  0.00  0.00    -0.191 NA
ATOM     11  N   UNL d   1     -41.124-119.991 -51.762  0.00  0.00    -0.126 N 
ENDROOT
BRANCH   1  12
ATOM     12  C   UNL d   1     -41.733-122.665 -50.978  0.00  0.00     0.012 A 
ATOM     13  C   UNL d   1     -42.408-122.680 -50.502  0.00  0.00     0.058 A 
ATOM     14 CL   UNL d   1     -43.000-122.125 -50.620  0.00  0.00    -0.082 Cl
ATOM     15  C   UNL d   1     -42.485-123.260 -49.903  0.00  0.00     0.011 A 
ATOM     16  C   UNL d   1     -41.886-123.813 -49.792  0.00  0.00     0.001 A 
ATOM     17  C   UNL d   1     -41.214-123.801 -50.262  0.00  0.00     0.000 A 
ATOM     18  C   UNL d   1     -41.137-123.221 -50.861  0.00  0.00     0.001 A 
ENDBRANCH   1  12
BRANCH   5  19
ATOM     19  S   UNL d   1     -41.886-121.923 -53.731  0.00  0.00    -0.093 SA
ATOM     20  C   UNL d   1     -42.136-121.347 -54.268  0.00  0.00     0.076 C 
ENDBRANCH   5  19
TORSDOF 2
ENDMDL
MODEL 2
REMARK VINA RESULT:       4.9      1.273      3.099
REMARK  2 active torsions:
REMARK  status: ('A' for Active; 'I' for Inactive)
REMARK    1  A    between atoms: C_7  and  C_1 
REMARK    2  A    between atoms: S_13  and  C_5 
ROOT
ATOM      1  C   UNL d   1     -41.568-121.670 -52.977  0.00  0.00     0.025 A 
ATOM      2  C   UNL d   1     -41.428-120.923 -52.657  0.00  0.00     0.106 A 
ATOM      3  C   UNL d   1     -41.543-122.335 -52.486  0.00  0.00     0.092 A 
ATOM      4  N   UNL d   1     -41.240-121.502 -51.367  0.00  0.00    -0.218 NA
ATOM      5  C   UNL d   1     -41.379-122.251 -51.682  0.00  0.00     0.118 A 
ATOM      6  C   UNL d   1     -41.264-120.839 -51.853  0.00  0.00     0.194 A 
ATOM      7  C   UNL d   1     -41.452-120.257 -53.148  0.00  0.00     0.104 C 
ATOM      8  C   UNL d   1     -41.683-123.078 -52.806  0.00  0.00     0.103 C 
ATOM      9  N   UNL d   1     -41.476-119.602 -53.629  0.00  0.00    -0.191 NA
ATOM     10  N   UNL d   1     -41.821-123.817 -53.118  0.00  0.00    -0.191 NA
ATOM     11  N   UNL d   1     -41.124-120.089 -51.539  0.00  0.00    -0.126 N 
ENDROOT
BRANCH   1  12
ATOM     12  C   UNL d   1     -41.731-121.753 -53.774  0.00  0.00     0.012 A 
ATOM     13  C   UNL d   1     -42.506-121.674 -54.049  0.00  0.00     0.058 A 
ATOM     14 CL   UNL d   1     -43.109-121.511 -53.518  0.00  0.00    -0.082 Cl
ATOM     15  C   UNL d   1     -42.672-121.759 -54.865  0.00  0.00     0.011 A 
ATOM     16  C   UNL d   1     -42.060-121.922 -55.390  0.00  0.00     0.001 A 
ATOM     17  C   UNL d   1     -41.289-122.002 -55.121  0.00  0.00     0.000 A 
ATOM     18  C   UNL d   1     -41.123-121.917 -54.305  0.00  0.00     0.001 A 
ENDBRANCH   1  12
BRANCH   5  19
ATOM     19  S   UNL d   1     -41.356-122.921 -51.195  0.00  0.00    -0.093 SA
ATOM     20  C   UNL d   1     -41.167-122.849 -50.395  0.00  0.00     0.076 C 
ENDBRANCH   5  19
TORSDOF 2
ENDMDL
MODEL 3
REMARK VINA RESULT:       5.4      0.949      1.242
REMARK  2 active torsions:
REMARK  status: ('A' for Active; 'I' for Inactive)
REMARK    1  A    between atoms: C_7  and  C_1 
REMARK    2  A    between atoms: S_13  and  C_5 
ROOT
ATOM      1  C   UNL d   1     -41.724-122.073 -52.803  0.00  0.00     0.025 A 
ATOM      2  C   UNL d   1     -41.534-121.293 -52.617  0.00  0.00     0.106 A 
ATOM      3  C   UNL d   1     -41.921-122.270 -53.582  0.00  0.00     0.092 A 
ATOM      4  N   UNL d   1     -41.736-120.910 -53.976  0.00  0.00    -0.218 NA
ATOM      5  C   UNL d   1     -41.927-121.689 -54.168  0.00  0.00     0.118 A 
ATOM      6  C   UNL d   1     -41.540-120.712 -53.202  0.00  0.00     0.194 A 
ATOM      7  C   UNL d   1     -41.337-121.094 -51.838  0.00  0.00     0.104 C 
ATOM      8  C   UNL d   1     -42.110-123.047 -53.766  0.00  0.00     0.103 C 
ATOM      9  N   UNL d   1     -41.144-120.899 -51.072  0.00  0.00    -0.191 NA
ATOM     10  N   UNL d   1     -42.298-123.817 -53.954  0.00  0.00    -0.191 NA
ATOM     11  N   UNL d   1     -41.350-119.932 -53.010  0.00  0.00    -0.126 N 
ENDROOT
BRANCH   1  12
ATOM     12  C   UNL d   1     -41.718-122.649 -52.223  0.00  0.00     0.012 A 
ATOM     13  C   UNL d   1     -42.300-122.651 -51.636  0.00  0.00     0.058 A 
ATOM     14 CL   UNL d   1     -42.883-122.074 -51.641  0.00  0.00    -0.082 Cl
ATOM     15  C   UNL d   1     -42.294-123.241 -51.042  0.00  0.00     0.011 A 
ATOM     16  C   UNL d   1     -41.706-123.816 -51.045  0.00  0.00     0.001 A 
ATOM     17  C   UNL d   1     -41.126-123.817 -51.625  0.00  0.00     0.000 A 
ATOM     18  C   UNL d   1     -41.132-123.228 -52.220  0.00  0.00     0.001 A 
ENDBRANCH   1  12
BRANCH   5  19
ATOM     19  S   UNL d   1     -42.125-121.892 -54.946  0.00  0.00    -0.093 SA
ATOM     20  C   UNL d   1     -42.030-121.346 -55.557  0.00  0.00     0.076 C 
ENDBRANCH   5  19
TORSDOF 2
ENDMDL
MODEL 4
REMARK VINA RESULT:       5.5      1.865      2.849
REMARK  2 active torsions:
REMARK  status: ('A' for Active; 'I' for Inactive)
REMARK    1  A    between atoms: C_7  and  C_1 
REMARK    2  A    between atoms: S_13  and  C_5 
ROOT
ATOM      1  C   UNL d   1     -41.714-122.023 -53.559  0.00  0.00     0.025 A 
ATOM      2  C   UNL d   1     -41.466-122.791 -53.724  0.00  0.00     0.106 A 
ATOM      3  C   UNL d   1     -41.886-121.506 -54.182  0.00  0.00     0.092 A 
ATOM      4  N   UNL d   1     -41.561-122.530 -55.123  0.00  0.00    -0.218 NA
ATOM      5  C   UNL d   1     -41.809-121.760 -54.963  0.00  0.00     0.118 A 
ATOM      6  C   UNL d   1     -41.390-123.045 -54.506  0.00  0.00     0.194 A 
ATOM      7  C   UNL d   1     -41.294-123.309 -53.102  0.00  0.00     0.104 C 
ATOM      8  C   UNL d   1     -42.132-120.741 -54.015  0.00  0.00     0.103 C 
ATOM      9  N   UNL d   1     -41.125-123.818 -52.490  0.00  0.00    -0.191 NA
ATOM     10  N   UNL d   1     -42.377-119.981 -53.856  0.00  0.00    -0.191 NA
ATOM     11  N   UNL d   1     -41.142-123.816 -54.665  0.00  0.00    -0.126 N 
ENDROOT
BRANCH   1  12
ATOM     12  C   UNL d   1     -41.789-121.771 -52.784  0.00  0.00     0.012 A 
ATOM     13  C   UNL d   1     -42.520-121.821 -52.402  0.00  0.00     0.058 A 
ATOM     14 CL   UNL d   1     -43.168-122.123 -52.805  0.00  0.00    -0.082 Cl
ATOM     15  C   UNL d   1     -42.597-121.564 -51.610  0.00  0.00     0.011 A 
ATOM     16  C   UNL d   1     -41.942-121.262 -51.214  0.00  0.00     0.001 A 
ATOM     17  C   UNL d   1     -41.215-121.211 -51.589  0.00  0.00     0.000 A 
ATOM     18  C   UNL d   1     -41.137-121.468 -52.382  0.00  0.00     0.001 A 
ENDBRANCH   1  12
BRANCH   5  19
ATOM     19  S   UNL d   1     -41.983-121.238 -55.583  0.00  0.00    -0.093 SA
ATOM     20  C   UNL d   1     -42.226-121.528 -56.317  0.00  0.00     0.076 C 
ENDBRANCH   5  19
TORSDOF 2
ENDMDL
MODEL 5
REMARK VINA RESULT:       6.4      2.100      3.385
REMARK  2 active torsions:
REMARK  status: ('A' for Active; 'I' for Inactive)
REMARK    1  A    between atoms: C_7  and  C_1 
REMARK    2  A    between atoms: S_13  and  C_5 
ROOT
ATOM      1  C   UNL d   1     -42.753-122.642 -50.519  0.00  0.00     0.025 A 
ATOM      2  C   UNL d   1     -43.481-122.262 -50.584  0.00  0.00     0.106 A 
ATOM      3  C   UNL d   1     -42.570-123.059 -49.829  0.00  0.00     0.092 A 
ATOM      4  N   UNL d   1     -43.840-122.711 -49.278  0.00  0.00    -0.218 NA
ATOM      5  C   UNL d   1     -43.113-123.093 -49.209  0.00  0.00     0.118 A 
ATOM      6  C   UNL d   1     -44.024-122.296 -49.964  0.00  0.00     0.194 A 
ATOM      7  C   UNL d   1     -43.665-121.845 -51.274  0.00  0.00     0.104 C 
ATOM      8  C   UNL d   1     -41.844-123.438 -49.766  0.00  0.00     0.103 C 
ATOM      9  N   UNL d   1     -43.847-121.434 -51.953  0.00  0.00    -0.191 NA
ATOM     10  N   UNL d   1     -41.126-123.815 -49.699  0.00  0.00    -0.191 NA
ATOM     11  N   UNL d   1     -44.752-121.913 -50.034  0.00  0.00    -0.126 N 
ENDROOT
BRANCH   1  12
ATOM     12  C   UNL d   1     -42.215-122.609 -51.134  0.00  0.00     0.012 A 
ATOM     13  C   UNL d   1     -41.691-121.972 -51.191  0.00  0.00     0.058 A 
ATOM     14 CL   UNL d   1     -41.715-121.376 -50.628  0.00  0.00    -0.082 Cl
ATOM     15  C   UNL d   1     -41.140-121.937 -51.820  0.00  0.00     0.011 A 
ATOM     16  C   UNL d   1     -41.123-122.540 -52.380  0.00  0.00     0.001 A 
ATOM     17  C   UNL d   1     -41.641-123.174 -52.327  0.00  0.00     0.000 A 
ATOM     18  C   UNL d   1     -42.192-123.208 -51.698  0.00  0.00     0.001 A 
ENDBRANCH   1  12
BRANCH   5  19
ATOM     19  S   UNL d   1     -42.924-123.512 -48.520  0.00  0.00    -0.093 SA
ATOM     20  C   UNL d   1     -43.522-123.786 -48.021  0.00  0.00     0.076 C 
ENDBRANCH   5  19
TORSDOF 2
ENDMDL
