MODEL 1
REMARK VINA RESULT:      12.4      0.000      0.000
REMARK  7 active torsions:
REMARK  status: ('A' for Active; 'I' for Inactive)
REMARK    1  A    between atoms: C_7  and  C_3 
REMARK    2  A    between atoms: C_8  and  C_7 
REMARK       I    between atoms: N_12  and  C_8 
REMARK    3  A    between atoms: C_15  and  N_12 
REMARK    4  A    between atoms: C_13  and  C_15 
REMARK    5  A    between atoms: C_16  and  C_13 
REMARK    6  A    between atoms: O_14  and  C_16 
REMARK    7  A    between atoms: C_17  and  O_14 
ROOT
ATOM      1  C   UNL d   1     -56.999 -98.756 -44.870  0.00  0.00     0.082 C 
ENDROOT
BRANCH   1   2
ATOM      2  C   UNL d   1     -57.782 -98.768 -44.596  0.00  0.00     0.096 A 
ATOM      3  C   UNL d   1     -57.935 -98.783 -43.783  0.00  0.00     0.082 A 
ATOM      4  C   UNL d   1     -58.715 -98.795 -43.497  0.00  0.00     0.285 A 
ATOM      5  N   UNL d   1     -59.334 -98.792 -44.047  0.00  0.00    -0.152 NA
ATOM      6  O   UNL d   1     -58.867 -98.810 -42.693  0.00  0.00    -0.265 OA
ATOM      7  C   UNL d   1     -59.181 -98.777 -44.860  0.00  0.00     0.371 A 
ATOM      8  N   UNL d   1     -58.408 -98.765 -45.130  0.00  0.00    -0.191 NA
ATOM      9  O   UNL d   1     -59.810 -98.775 -45.400  0.00  0.00    -0.242 OA
ENDBRANCH   1   2
BRANCH   1  10
ATOM     10  C   UNL d   1     -56.378 -98.898 -44.346  0.00  0.00     0.281 C 
ATOM     11  O   UNL d   1     -56.509 -98.872 -43.530  0.00  0.00    -0.265 OA
ATOM     12  N   UNL d   1     -55.625 -99.065 -44.639  0.00  0.00    -0.206 NA
BRANCH  12  13
ATOM     13  C   UNL d   1     -55.003 -99.207 -44.115  0.00  0.00     0.104 C 
BRANCH  13  14
ATOM     14  C   UNL d   1     -54.838 -99.979 -43.874  0.00  0.00     0.048 C 
BRANCH  14  15
ATOM     15  C   UNL d   1     -54.784-100.582 -44.436  0.00  0.00     0.124 C 
BRANCH  15  16
ATOM     16  O   UNL d   1     -55.006-101.353 -44.226  0.00  0.00    -0.303 OA
BRANCH  16  17
ATOM     17  C   UNL d   1     -55.046-101.934 -44.811  0.00  0.00     0.123 C 
ATOM     18  C   UNL d   1     -54.723-102.681 -44.669  0.00  0.00     0.029 C 
ENDBRANCH  16  17
ENDBRANCH  15  16
ENDBRANCH  14  15
ENDBRANCH  13  14
ENDBRANCH  12  13
ENDBRANCH   1  10
TORSDOF 7
ENDMDL
MODEL 2
REMARK VINA RESULT:      12.6      1.364      4.277
REMARK  7 active torsions:
REMARK  status: ('A' for Active; 'I' for Inactive)
REMARK    1  A    between atoms: C_7  and  C_3 
REMARK    2  A    between atoms: C_8  and  C_7 
REMARK       I    between atoms: N_12  and  C_8 
REMARK    3  A    between atoms: C_15  and  N_12 
REMARK    4  A    between atoms: C_13  and  C_15 
REMARK    5  A    between atoms: C_16  and  C_13 
REMARK    6  A    between atoms: O_14  and  C_16 
REMARK    7  A    between atoms: C_17  and  O_14 
ROOT
ATOM      1  C   UNL d   1     -54.712 -99.996 -44.601  0.00  0.00     0.082 C 
ENDROOT
BRANCH   1   2
ATOM      2  C   UNL d   1     -54.839-100.766 -44.321  0.00  0.00     0.096 A 
ATOM      3  C   UNL d   1     -54.968-101.384 -44.855  0.00  0.00     0.082 A 
ATOM      4  C   UNL d   1     -55.097-102.160 -44.586  0.00  0.00     0.285 A 
ATOM      5  N   UNL d   1     -55.093-102.296 -43.769  0.00  0.00    -0.152 NA
ATOM      6  O   UNL d   1     -55.223-102.771 -45.114  0.00  0.00    -0.265 OA
ATOM      7  C   UNL d   1     -54.965-101.678 -43.235  0.00  0.00     0.371 A 
ATOM      8  N   UNL d   1     -54.839-100.917 -43.512  0.00  0.00    -0.191 NA
ATOM      9  O   UNL d   1     -54.965-101.829 -42.420  0.00  0.00    -0.242 OA
ENDBRANCH   1   2
BRANCH   1  10
ATOM     10  C   UNL d   1     -55.218 -99.385 -44.372  0.00  0.00     0.281 C 
ATOM     11  O   UNL d   1     -54.950 -98.794 -43.860  0.00  0.00    -0.265 OA
ATOM     12  N   UNL d   1     -55.993 -99.367 -44.656  0.00  0.00    -0.206 NA
BRANCH  12  13
ATOM     13  C   UNL d   1     -56.499 -98.756 -44.428  0.00  0.00     0.104 C 
BRANCH  13  14
ATOM     14  C   UNL d   1     -57.277 -98.928 -44.212  0.00  0.00     0.048 C 
BRANCH  14  15
ATOM     15  C   UNL d   1     -57.867 -98.949 -44.789  0.00  0.00     0.124 C 
BRANCH  15  16
ATOM     16  O   UNL d   1     -58.647 -99.122 -44.565  0.00  0.00    -0.303 OA
BRANCH  16  17
ATOM     17  C   UNL d   1     -58.947 -98.801 -43.867  0.00  0.00     0.123 C 
ATOM     18  C   UNL d   1     -59.758 -98.834 -43.716  0.00  0.00     0.029 C 
ENDBRANCH  16  17
ENDBRANCH  15  16
ENDBRANCH  14  15
ENDBRANCH  13  14
ENDBRANCH  12  13
ENDBRANCH   1  10
TORSDOF 7
ENDMDL
