MODEL 1
REMARK VINA RESULT:      94.0      0.000      0.000
REMARK  4 active torsions:
REMARK  status: ('A' for Active; 'I' for Inactive)
REMARK    1  A    between atoms: C_11  and  N_2 
REMARK    2  A    between atoms: C_12  and  C_6 
REMARK    3  A    between atoms: C_15  and  C_11 
REMARK    4  A    between atoms: O_29  and  C_24 
ROOT
ATOM      1  C   UNL d   1      44.770 -13.494  38.887  0.00  0.00     0.137 A 
ATOM      2  N   UNL d   1      44.424 -14.188  37.690  0.00  0.00    -0.256 N 
ATOM      3  C   UNL d   1      44.050 -13.716  39.228  0.00  0.00     0.192 A 
ATOM      4  C   UNL d   1      44.957 -13.730  38.118  0.00  0.00     0.272 A 
ATOM      5  N   UNL d   1      43.518 -14.173  38.804  0.00  0.00    -0.204 NA
ATOM      6  C   UNL d   1      43.703 -14.412  38.028  0.00  0.00     0.152 A 
ATOM      7  C   UNL d   1      45.304 -13.034  39.318  0.00  0.00     0.205 A 
ATOM      8  C   UNL d   1      45.123 -12.800  40.077  0.00  0.00     0.062 A 
ATOM      9  O   UNL d   1      43.871 -13.478  39.994  0.00  0.00    -0.289 OA
ATOM     10  C   UNL d   1      44.407 -13.019  40.420  0.00  0.00     0.107 A 
ATOM     11  C   UNL d   1      44.223 -12.779  41.195  0.00  0.00     0.049 A 
ATOM     12  C   UNL d   1      45.660 -12.338  40.506  0.00  0.00     0.007 A 
ATOM     13  O   UNL d   1      45.675 -13.506  37.783  0.00  0.00    -0.266 OA
ATOM     14  O   UNL d   1      46.020 -12.814  38.975  0.00  0.00    -0.286 OA
ATOM     15  C   UNL d   1      44.758 -12.322  41.618  0.00  0.00     0.096 A 
ATOM     16  C   UNL d   1      45.473 -12.103  41.275  0.00  0.00     0.024 A 
ENDROOT
BRANCH   6  17
ATOM     17  C   UNL d   1      43.166 -14.872  37.602  0.00  0.00     0.035 A 
ATOM     18  C   UNL d   1      42.447 -14.549  37.365  0.00  0.00     0.003 A 
ATOM     19  C   UNL d   1      41.920 -15.017  36.941  0.00  0.00     0.000 A 
ATOM     20  C   UNL d   1      42.104 -15.796  36.755  0.00  0.00     0.000 A 
ATOM     21  C   UNL d   1      42.828 -16.113  36.996  0.00  0.00     0.000 A 
ATOM     22  C   UNL d   1      41.570 -16.257  36.330  0.00  0.00     0.000 C 
ATOM     23  C   UNL d   1      43.361 -15.652  37.421  0.00  0.00     0.003 A 
ENDBRANCH   6  17
BRANCH   2  24
ATOM     24  C   UNL d   1      44.611 -14.423  36.922  0.00  0.00     0.109 C 
BRANCH  24  25
ATOM     25  C   UNL d   1      45.358 -14.759  36.754  0.00  0.00     0.118 A 
ATOM     26  O   UNL d   1      45.554 -15.556  36.815  0.00  0.00    -0.304 OA
ATOM     27  C   UNL d   1      46.352 -15.640  36.594  0.00  0.00     0.123 A 
ATOM     28  C   UNL d   1      46.647 -14.884  36.396  0.00  0.00     0.029 A 
ATOM     29  C   UNL d   1      46.023 -14.335  36.497  0.00  0.00     0.028 A 
ENDBRANCH  24  25
ENDBRANCH   2  24
BRANCH  15  30
ATOM     30  O   UNL d   1      44.586 -12.082  42.380  0.00  0.00    -0.328 OA
ATOM     31  C   UNL d   1      44.692 -12.607  43.005  0.00  0.00     0.181 C 
ENDBRANCH  15  30
TORSDOF 4
ENDMDL
