MODEL 1
REMARK VINA RESULT:      26.8      0.000      0.000
REMARK  5 active torsions:
REMARK  status: ('A' for Active; 'I' for Inactive)
REMARK    1  A    between atoms: C_3  and  C_1 
REMARK       I    between atoms: N_5  and  C_1 
REMARK    2  A    between atoms: C_2  and  C_4 
REMARK    3  A    between atoms: C_4  and  C_3 
REMARK    4  A    between atoms: C_7  and  N_5 
REMARK    5  A    between atoms: O_14  and  C_13 
ROOT
ATOM      1  C   UNL d   1      13.746  12.626  -3.318  0.00  0.00     0.279 C 
ATOM      2  N   UNL d   1      13.914  13.031  -2.622  0.00  0.00    -0.208 NA
ATOM      3  O   UNL d   1      13.672  11.807  -3.312  0.00  0.00    -0.265 OA
ENDROOT
BRANCH   1   4
ATOM      4  C   UNL d   1      13.650  13.036  -4.022  0.00  0.00     0.065 C 
BRANCH   4   5
ATOM      5  C   UNL d   1      12.968  13.489  -4.149  0.00  0.00     0.030 C 
BRANCH   5   6
ATOM      6  C   UNL d   1      13.024  14.203  -4.558  0.00  0.00     0.100 A 
ATOM      7  O   UNL d   1      13.270  14.378  -5.341  0.00  0.00    -0.305 OA
ATOM      8  C   UNL d   1      13.207  15.201  -5.440  0.00  0.00     0.123 A 
ATOM      9  C   UNL d   1      12.929  15.530  -4.734  0.00  0.00     0.029 A 
ATOM     10  C   UNL d   1      12.815  14.911  -4.185  0.00  0.00     0.027 A 
ENDBRANCH   5   6
ENDBRANCH   4   5
ENDBRANCH   1   4
BRANCH   2  11
ATOM     11  C   UNL d   1      14.009  12.613  -1.917  0.00  0.00     0.087 A 
ATOM     12  C   UNL d   1      14.753  12.525  -1.597  0.00  0.00     0.043 A 
ATOM     13  C   UNL d   1      14.850  12.110  -0.895  0.00  0.00     0.096 A 
ATOM     14  C   UNL d   1      14.198  11.781  -0.512  0.00  0.00     0.024 A 
ATOM     15  C   UNL d   1      13.442  11.874  -0.844  0.00  0.00     0.004 A 
ATOM     16  C   UNL d   1      13.351  12.292  -1.548  0.00  0.00     0.019 A 
BRANCH  13  17
ATOM     17  O   UNL d   1      15.604  12.019  -0.568  0.00  0.00    -0.328 OA
ATOM     18  C   UNL d   1      15.889  12.566  -0.025  0.00  0.00     0.181 C 
ENDBRANCH  13  17
ENDBRANCH   2  11
TORSDOF 5
ENDMDL
MODEL 2
REMARK VINA RESULT:      26.8      2.779      4.677
REMARK  5 active torsions:
REMARK  status: ('A' for Active; 'I' for Inactive)
REMARK    1  A    between atoms: C_3  and  C_1 
REMARK       I    between atoms: N_5  and  C_1 
REMARK    2  A    between atoms: C_2  and  C_4 
REMARK    3  A    between atoms: C_4  and  C_3 
REMARK    4  A    between atoms: C_7  and  N_5 
REMARK    5  A    between atoms: O_14  and  C_13 
ROOT
ATOM      1  C   UNL d   1      15.431  14.182  -0.380  0.00  0.00     0.279 C 
ATOM      2  N   UNL d   1      15.106  14.879  -0.089  0.00  0.00    -0.208 NA
ATOM      3  O   UNL d   1      15.923  14.198  -1.039  0.00  0.00    -0.265 OA
ENDROOT
BRANCH   1   4
ATOM      4  C   UNL d   1      15.267  13.466  -0.015  0.00  0.00     0.065 C 
BRANCH   4   5
ATOM      5  C   UNL d   1      15.283  12.763  -0.453  0.00  0.00     0.030 C 
BRANCH   5   6
ATOM      6  C   UNL d   1      14.575  12.379  -0.633  0.00  0.00     0.100 A 
ATOM      7  O   UNL d   1      14.239  12.147  -1.365  0.00  0.00    -0.305 OA
ATOM      8  C   UNL d   1      13.512  11.779  -1.196  0.00  0.00     0.123 A 
ATOM      9  C   UNL d   1      13.400  11.783  -0.377  0.00  0.00     0.029 A 
ATOM     10  C   UNL d   1      14.060  12.155  -0.025  0.00  0.00     0.027 A 
ENDBRANCH   5   6
ENDBRANCH   4   5
ENDBRANCH   1   4
BRANCH   2  11
ATOM     11  C   UNL d   1      15.274  15.596  -0.460  0.00  0.00     0.087 A 
ATOM     12  C   UNL d   1      14.824  15.838  -1.095  0.00  0.00     0.043 A 
ATOM     13  C   UNL d   1      14.990  16.551  -1.466  0.00  0.00     0.096 A 
ATOM     14  C   UNL d   1      15.610  17.025  -1.200  0.00  0.00     0.024 A 
ATOM     15  C   UNL d   1      16.065  16.773  -0.552  0.00  0.00     0.004 A 
ATOM     16  C   UNL d   1      15.894  16.057  -0.184  0.00  0.00     0.019 A 
BRANCH  13  17
ATOM     17  O   UNL d   1      14.534  16.799  -2.111  0.00  0.00    -0.328 OA
ATOM     18  C   UNL d   1      14.888  16.940  -2.839  0.00  0.00     0.181 C 
ENDBRANCH  13  17
ENDBRANCH   2  11
TORSDOF 5
ENDMDL
MODEL 3
REMARK VINA RESULT:      28.6      0.969      4.390
REMARK  5 active torsions:
REMARK  status: ('A' for Active; 'I' for Inactive)
REMARK    1  A    between atoms: C_3  and  C_1 
REMARK       I    between atoms: N_5  and  C_1 
REMARK    2  A    between atoms: C_2  and  C_4 
REMARK    3  A    between atoms: C_4  and  C_3 
REMARK    4  A    between atoms: C_7  and  N_5 
REMARK    5  A    between atoms: O_14  and  C_13 
ROOT
ATOM      1  C   UNL d   1      13.500  12.897  -2.772  0.00  0.00     0.279 C 
ATOM      2  N   UNL d   1      13.488  13.647  -3.109  0.00  0.00    -0.208 NA
ATOM      3  O   UNL d   1      13.371  12.232  -3.238  0.00  0.00    -0.265 OA
ENDROOT
BRANCH   1   4
ATOM      4  C   UNL d   1      13.640  12.808  -1.968  0.00  0.00     0.065 C 
BRANCH   4   5
ATOM      5  C   UNL d   1      13.789  12.055  -1.654  0.00  0.00     0.030 C 
BRANCH   5   6
ATOM      6  C   UNL d   1      14.396  11.957  -1.104  0.00  0.00     0.100 A 
ATOM      7  O   UNL d   1      14.386  11.918  -0.266  0.00  0.00    -0.305 OA
ATOM      8  C   UNL d   1      15.172  11.812  -0.016  0.00  0.00     0.123 A 
ATOM      9  C   UNL d   1      15.658  11.786  -0.684  0.00  0.00     0.029 A 
ATOM     10  C   UNL d   1      15.178  11.876  -1.361  0.00  0.00     0.027 A 
ENDBRANCH   5   6
ENDBRANCH   4   5
ENDBRANCH   1   4
BRANCH   2  11
ATOM     11  C   UNL d   1      13.347  13.731  -3.917  0.00  0.00     0.087 A 
ATOM     12  C   UNL d   1      13.462  13.097  -4.415  0.00  0.00     0.043 A 
ATOM     13  C   UNL d   1      13.322  13.178  -5.220  0.00  0.00     0.096 A 
ATOM     14  C   UNL d   1      13.065  13.898  -5.528  0.00  0.00     0.024 A 
ATOM     15  C   UNL d   1      12.949  14.541  -5.015  0.00  0.00     0.004 A 
ATOM     16  C   UNL d   1      13.091  14.454  -4.209  0.00  0.00     0.019 A 
BRANCH  13  17
ATOM     17  O   UNL d   1      13.439  12.535  -5.728  0.00  0.00    -0.328 OA
ATOM     18  C   UNL d   1      13.190  11.783  -5.510  0.00  0.00     0.181 C 
ENDBRANCH  13  17
ENDBRANCH   2  11
TORSDOF 5
ENDMDL
