MODEL 1
REMARK VINA RESULT:      -4.2      0.000      0.000
REMARK  5 active torsions:
REMARK  status: ('A' for Active; 'I' for Inactive)
REMARK    1  A    between atoms: C_6  and  S_1 
REMARK    2  A    between atoms: C_9  and  S_1 
REMARK    3  A    between atoms: C_2  and  S_11 
REMARK    4  A    between atoms: N_4  and  C_3 
REMARK    5  A    between atoms: S_11  and  C_10 
ROOT
ATOM      1  C   UNL d   1      58.520  -0.446  29.161  0.00  0.00     0.133 A 
ATOM      2  C   UNL d   1      58.810  -1.128  28.797  0.00  0.00     0.035 A 
ATOM      3  C   UNL d   1      58.798  -1.848  29.202  0.00  0.00     0.094 A 
ATOM      4  C   UNL d   1      58.218  -0.487  29.932  0.00  0.00     0.054 A 
ATOM      5  C   UNL d   1      58.496  -1.884  29.969  0.00  0.00     0.012 A 
ATOM      6  C   UNL d   1      58.207  -1.205  30.332  0.00  0.00     0.009 A 
ENDROOT
BRANCH   4   7
ATOM      7  S   UNL d   1      57.927   0.194  30.297  0.00  0.00    -0.047 SA
BRANCH   7   8
ATOM      8  C   UNL d   1      57.575   0.143  31.042  0.00  0.00     0.194 A 
ATOM      9  N   UNL d   1      56.858  -0.221  31.210  0.00  0.00    -0.220 NA
ATOM     10  C   UNL d   1      56.719  -0.142  32.022  0.00  0.00     0.101 A 
ATOM     11  C   UNL d   1      56.104  -0.391  32.498  0.00  0.00     0.021 A 
ATOM     12  C   UNL d   1      57.357   0.273  32.343  0.00  0.00     0.101 A 
ATOM     13  C   UNL d   1      56.115  -0.229  33.303  0.00  0.00     0.002 A 
ATOM     14  C   UNL d   1      56.752   0.187  33.631  0.00  0.00     0.002 A 
ATOM     15  C   UNL d   1      57.373   0.438  33.149  0.00  0.00     0.021 A 
ATOM     16  N   UNL d   1      57.883   0.448  31.739  0.00  0.00    -0.220 NA
ENDBRANCH   7   8
ENDBRANCH   4   7
BRANCH   1  17
ATOM     17  N   UNL d   1      58.531   0.275  28.758  0.00  0.00    -0.113 N 
ATOM     18  O   UNL d   1      59.242   0.682  28.660  0.00  0.00    -0.532 OA
ATOM     19  O   UNL d   1      57.831   0.589  28.455  0.00  0.00    -0.532 OA
ENDBRANCH   1  17
BRANCH   3  20
ATOM     20  S   UNL d   1      59.087  -2.525  28.840  0.00  0.00     0.278 S 
ATOM     21  O   UNL d   1      58.348  -2.677  28.516  0.00  0.00    -0.213 OA
ATOM     22  O   UNL d   1      59.375  -3.205  28.476  0.00  0.00    -0.213 OA
BRANCH  20  23
ATOM     23  C   UNL d   1      59.834  -2.378  29.163  0.00  0.00     0.503 C 
ATOM     24  F   UNL d   1      60.511  -2.246  29.458  0.00  0.00    -0.157 F 
ATOM     25  F   UNL d   1      60.135  -2.572  29.949  0.00  0.00    -0.157 F 
ATOM     26  F   UNL d   1      60.519  -1.992  28.804  0.00  0.00    -0.157 F 
ENDBRANCH  20  23
ENDBRANCH   3  20
TORSDOF 5
ENDMDL
MODEL 2
REMARK VINA RESULT:      -2.5      8.516      9.856
REMARK  5 active torsions:
REMARK  status: ('A' for Active; 'I' for Inactive)
REMARK    1  A    between atoms: C_6  and  S_1 
REMARK    2  A    between atoms: C_9  and  S_1 
REMARK    3  A    between atoms: C_2  and  S_11 
REMARK    4  A    between atoms: N_4  and  C_3 
REMARK    5  A    between atoms: S_11  and  C_10 
ROOT
ATOM      1  C   UNL d   1      59.617  -8.778  35.638  0.00  0.00     0.133 A 
ATOM      2  C   UNL d   1      59.552  -8.039  35.999  0.00  0.00     0.035 A 
ATOM      3  C   UNL d   1      59.563  -7.352  35.538  0.00  0.00     0.094 A 
ATOM      4  C   UNL d   1      59.694  -8.829  34.815  0.00  0.00     0.054 A 
ATOM      5  C   UNL d   1      59.640  -7.409  34.718  0.00  0.00     0.012 A 
ATOM      6  C   UNL d   1      59.705  -8.146  34.358  0.00  0.00     0.009 A 
ENDROOT
BRANCH   4   7
ATOM      7  S   UNL d   1      59.760  -9.569  34.452  0.00  0.00    -0.047 SA
BRANCH   7   8
ATOM      8  C   UNL d   1      59.842  -9.619  33.633  0.00  0.00     0.194 A 
ATOM      9  N   UNL d   1      59.227  -9.684  33.092  0.00  0.00    -0.220 NA
ATOM     10  C   UNL d   1      59.559  -9.718  32.335  0.00  0.00     0.101 A 
ATOM     11  C   UNL d   1      59.223  -9.783  31.592  0.00  0.00     0.021 A 
ATOM     12  C   UNL d   1      60.379  -9.674  32.422  0.00  0.00     0.101 A 
ATOM     13  C   UNL d   1      59.701  -9.805  30.926  0.00  0.00     0.002 A 
ATOM     14  C   UNL d   1      60.525  -9.760  31.006  0.00  0.00     0.002 A 
ATOM     15  C   UNL d   1      60.862  -9.695  31.756  0.00  0.00     0.021 A 
ATOM     16  N   UNL d   1      60.552  -9.613  33.220  0.00  0.00    -0.220 NA
ENDBRANCH   7   8
ENDBRANCH   4   7
BRANCH   1  17
ATOM     17  N   UNL d   1      59.606  -9.465  36.097  0.00  0.00    -0.113 N 
ATOM     18  O   UNL d   1      58.886  -9.799  36.321  0.00  0.00    -0.532 OA
ATOM     19  O   UNL d   1      60.314  -9.817  36.330  0.00  0.00    -0.532 OA
ENDBRANCH   1  17
BRANCH   3  20
ATOM     20  S   UNL d   1      59.498  -6.618  35.897  0.00  0.00     0.278 S 
ATOM     21  O   UNL d   1      58.690  -6.727  35.992  0.00  0.00    -0.213 OA
ATOM     22  O   UNL d   1      59.432  -5.881  36.258  0.00  0.00    -0.213 OA
BRANCH  20  23
ATOM     23  C   UNL d   1      60.312  -6.502  35.805  0.00  0.00     0.503 C 
ATOM     24  F   UNL d   1      61.050  -6.396  35.720  0.00  0.00    -0.157 F 
ATOM     25  F   UNL d   1      60.735  -6.093  35.173  0.00  0.00    -0.157 F 
ATOM     26  F   UNL d   1      60.962  -6.758  36.314  0.00  0.00    -0.157 F 
ENDBRANCH  20  23
ENDBRANCH   3  20
TORSDOF 5
ENDMDL
MODEL 3
REMARK VINA RESULT:      -1.4      3.092      4.690
REMARK  5 active torsions:
REMARK  status: ('A' for Active; 'I' for Inactive)
REMARK    1  A    between atoms: C_6  and  S_1 
REMARK    2  A    between atoms: C_9  and  S_1 
REMARK    3  A    between atoms: C_2  and  S_11 
REMARK    4  A    between atoms: N_4  and  C_3 
REMARK    5  A    between atoms: S_11  and  C_10 
ROOT
ATOM      1  C   UNL d   1      57.563   0.411  32.957  0.00  0.00     0.133 A 
ATOM      2  C   UNL d   1      56.878   0.188  33.357  0.00  0.00     0.035 A 
ATOM      3  C   UNL d   1      56.190   0.013  32.934  0.00  0.00     0.094 A 
ATOM      4  C   UNL d   1      57.560   0.459  32.129  0.00  0.00     0.054 A 
ATOM      5  C   UNL d   1      56.191   0.062  32.109  0.00  0.00     0.012 A 
ATOM      6  C   UNL d   1      56.875   0.284  31.709  0.00  0.00     0.009 A 
ENDROOT
BRANCH   4   7
ATOM      7  S   UNL d   1      58.246   0.682  31.726  0.00  0.00    -0.047 SA
BRANCH   7   8
ATOM      8  C   UNL d   1      58.431   0.329  31.004  0.00  0.00     0.194 A 
ATOM      9  N   UNL d   1      58.318   0.664  30.262  0.00  0.00    -0.220 NA
ATOM     10  C   UNL d   1      58.580   0.120  29.697  0.00  0.00     0.101 A 
ATOM     11  C   UNL d   1      58.604   0.148  28.880  0.00  0.00     0.021 A 
ATOM     12  C   UNL d   1      58.852  -0.547  30.102  0.00  0.00     0.101 A 
ATOM     13  C   UNL d   1      58.899  -0.488  28.455  0.00  0.00     0.002 A 
ATOM     14  C   UNL d   1      59.174  -1.160  28.855  0.00  0.00     0.002 A 
ATOM     15  C   UNL d   1      59.150  -1.187  29.679  0.00  0.00     0.021 A 
ATOM     16  N   UNL d   1      58.760  -0.417  30.905  0.00  0.00    -0.220 NA
ENDBRANCH   7   8
ENDBRANCH   4   7
BRANCH   1  17
ATOM     17  N   UNL d   1      58.252   0.586  33.378  0.00  0.00    -0.113 N 
ATOM     18  O   UNL d   1      58.970   0.666  32.980  0.00  0.00    -0.532 OA
ATOM     19  O   UNL d   1      58.222   0.681  34.197  0.00  0.00    -0.532 OA
ENDBRANCH   1  17
BRANCH   3  20
ATOM     20  S   UNL d   1      55.509  -0.208  33.333  0.00  0.00     0.278 S 
ATOM     21  O   UNL d   1      55.252   0.571  33.344  0.00  0.00    -0.213 OA
ATOM     22  O   UNL d   1      54.825  -0.430  33.734  0.00  0.00    -0.213 OA
BRANCH  20  23
ATOM     23  C   UNL d   1      55.761  -0.996  33.325  0.00  0.00     0.503 C 
ATOM     24  F   UNL d   1      55.992  -1.710  33.319  0.00  0.00    -0.157 F 
ATOM     25  F   UNL d   1      56.231  -1.423  33.910  0.00  0.00    -0.157 F 
ATOM     26  F   UNL d   1      55.626  -1.608  32.730  0.00  0.00    -0.157 F 
ENDBRANCH  20  23
ENDBRANCH   3  20
TORSDOF 5
ENDMDL
