MODEL 1
REMARK VINA RESULT:       1.5      0.000      0.000
REMARK  0 active torsions:
REMARK  status: ('A' for Active; 'I' for Inactive)
ROOT
ATOM      1  N   UNL d   1      46.598 -18.138  42.480  0.00  0.00    -0.208 NA
ATOM      2  C   UNL d   1      46.592 -18.160  43.304  0.00  0.00     0.279 A 
ATOM      3  C   UNL d   1      46.609 -19.590  43.272  0.00  0.00     0.006 A 
ATOM      4  C   UNL d   1      46.597 -18.883  43.700  0.00  0.00     0.058 A 
ATOM      5  C   UNL d   1      46.610 -18.846  42.049  0.00  0.00     0.085 A 
ATOM      6  C   UNL d   1      46.615 -19.572  42.452  0.00  0.00     0.018 A 
ATOM      7  O   UNL d   1      46.581 -17.452  43.732  0.00  0.00    -0.265 OA
ATOM      8  C   UNL d   1      46.614 -20.306  43.665  0.00  0.00     0.000 A 
ATOM      9  C   UNL d   1      46.591 -18.910  44.517  0.00  0.00     0.005 A 
ATOM     10  C   UNL d   1      46.627 -20.276  42.027  0.00  0.00     0.002 A 
ATOM     11  C   UNL d   1      46.616 -18.830  41.224  0.00  0.00     0.019 A 
ATOM     12  C   UNL d   1      46.608 -20.325  44.478  0.00  0.00     0.000 A 
ATOM     13  C   UNL d   1      46.597 -19.629  44.911  0.00  0.00     0.000 A 
ATOM     14  C   UNL d   1      46.633 -20.258  41.197  0.00  0.00     0.000 A 
ATOM     15  C   UNL d   1      46.628 -19.536  40.797  0.00  0.00     0.002 A 
ENDROOT
TORSDOF 0
ENDMDL
MODEL 2
REMARK VINA RESULT:       3.5      0.607      2.509
REMARK  0 active torsions:
REMARK  status: ('A' for Active; 'I' for Inactive)
ROOT
ATOM      1  N   UNL d   1      46.608 -17.975  43.096  0.00  0.00    -0.208 NA
ATOM      2  C   UNL d   1      46.617 -18.069  42.277  0.00  0.00     0.279 A 
ATOM      3  C   UNL d   1      46.627 -19.491  42.435  0.00  0.00     0.006 A 
ATOM      4  C   UNL d   1      46.627 -18.825  41.947  0.00  0.00     0.058 A 
ATOM      5  C   UNL d   1      46.608 -18.642  43.588  0.00  0.00     0.085 A 
ATOM      6  C   UNL d   1      46.618 -19.401  43.251  0.00  0.00     0.018 A 
ATOM      7  O   UNL d   1      46.617 -17.402  41.789  0.00  0.00    -0.265 OA
ATOM      8  C   UNL d   1      46.637 -20.239  42.107  0.00  0.00     0.000 A 
ATOM      9  C   UNL d   1      46.637 -18.923  41.136  0.00  0.00     0.005 A 
ATOM     10  C   UNL d   1      46.618 -20.065  43.736  0.00  0.00     0.002 A 
ATOM     11  C   UNL d   1      46.598 -18.554  44.408  0.00  0.00     0.019 A 
ATOM     12  C   UNL d   1      46.647 -20.330  41.300  0.00  0.00     0.000 A 
ATOM     13  C   UNL d   1      46.647 -19.675  40.806  0.00  0.00     0.000 A 
ATOM     14  C   UNL d   1      46.608 -19.973  44.562  0.00  0.00     0.000 A 
ATOM     15  C   UNL d   1      46.598 -19.220  44.897  0.00  0.00     0.002 A 
ENDROOT
TORSDOF 0
ENDMDL
