MODEL 1
REMARK VINA RESULT:      -7.0      0.000      0.000
REMARK  3 active torsions:
REMARK  status: ('A' for Active; 'I' for Inactive)
REMARK    1  A    between atoms: N_2  and  C_1 
REMARK       I    between atoms: C_4  and  N_2 
REMARK    2  A    between atoms: C_8  and  C_4 
REMARK    3  A    between atoms: C_10  and  C_5 
ROOT
ATOM      1  C   UNL d   1     -47.617  13.933  23.121  0.00  0.00     0.197 A 
ATOM      2  N   UNL d   1     -48.403  13.940  23.329  0.00  0.00    -0.221 NA
ATOM      3  C   UNL d   1     -48.724  14.638  22.947  0.00  0.00     0.090 A 
ATOM      4  S   UNL d   1     -47.425  14.577  22.636  0.00  0.00    -0.046 SA
ATOM      5  C   UNL d   1     -48.101  15.011  22.527  0.00  0.00     0.058 A 
ENDROOT
BRANCH   1   6
ATOM      6  N   UNL d   1     -47.063  13.340  23.370  0.00  0.00    -0.183 NA
ATOM      7  C   UNL d   1     -46.957  12.662  22.879  0.00  0.00     0.281 C 
ATOM      8  O   UNL d   1     -47.384  12.580  22.173  0.00  0.00    -0.265 OA
BRANCH   7   9
ATOM      9  C   UNL d   1     -46.426  12.066  23.089  0.00  0.00     0.058 A 
ATOM     10  C   UNL d   1     -45.640  12.160  22.892  0.00  0.00     0.005 A 
ATOM     11  C   UNL d   1     -45.094  11.559  23.101  0.00  0.00     0.000 A 
ATOM     12  C   UNL d   1     -45.332  10.882  23.499  0.00  0.00     0.000 A 
ATOM     13  C   UNL d   1     -46.145  10.796  23.698  0.00  0.00     0.000 A 
ATOM     14  C   UNL d   1     -44.855  10.327  23.698  0.00  0.00     0.000 C 
ATOM     15  C   UNL d   1     -46.688  11.394  23.489  0.00  0.00     0.005 A 
ENDBRANCH   7   9
ENDBRANCH   1   6
BRANCH   3  16
ATOM     16  C   UNL d   1     -49.497  14.909  22.974  0.00  0.00     0.018 A 
ATOM     17  C   UNL d   1     -49.715  15.429  23.559  0.00  0.00     0.002 A 
ATOM     18  C   UNL d   1     -50.499  15.715  23.601  0.00  0.00     0.000 A 
ATOM     19  C   UNL d   1     -51.058  15.474  23.051  0.00  0.00     0.000 A 
ATOM     20  C   UNL d   1     -50.844  14.941  22.447  0.00  0.00     0.000 A 
ATOM     21  C   UNL d   1     -50.055  14.664  22.419  0.00  0.00     0.002 A 
ENDBRANCH   3  16
TORSDOF 3
ENDMDL
MODEL 2
REMARK VINA RESULT:      -6.9      1.104      5.266
REMARK  3 active torsions:
REMARK  status: ('A' for Active; 'I' for Inactive)
REMARK    1  A    between atoms: N_2  and  C_1 
REMARK       I    between atoms: C_4  and  N_2 
REMARK    2  A    between atoms: C_8  and  C_4 
REMARK    3  A    between atoms: C_10  and  C_5 
ROOT
ATOM      1  C   UNL d   1     -46.795  12.289  23.539  0.00  0.00     0.197 A 
ATOM      2  N   UNL d   1     -45.994  12.261  23.401  0.00  0.00    -0.221 NA
ATOM      3  C   UNL d   1     -45.787  11.431  23.480  0.00  0.00     0.090 A 
ATOM      4  S   UNL d   1     -47.103  11.536  23.698  0.00  0.00    -0.046 SA
ATOM      5  C   UNL d   1     -46.489  11.008  23.662  0.00  0.00     0.058 A 
ENDROOT
BRANCH   1   6
ATOM      6  N   UNL d   1     -47.257  13.000  23.522  0.00  0.00    -0.183 NA
ATOM      7  C   UNL d   1     -47.695  13.176  22.823  0.00  0.00     0.281 C 
ATOM      8  O   UNL d   1     -47.673  12.663  22.171  0.00  0.00    -0.265 OA
BRANCH   7   9
ATOM      9  C   UNL d   1     -48.156  13.858  22.771  0.00  0.00     0.058 A 
ATOM     10  C   UNL d   1     -48.959  13.794  22.901  0.00  0.00     0.005 A 
ATOM     11  C   UNL d   1     -49.435  14.483  22.851  0.00  0.00     0.000 A 
ATOM     12  C   UNL d   1     -49.111  15.216  22.674  0.00  0.00     0.000 A 
ATOM     13  C   UNL d   1     -48.282  15.270  22.541  0.00  0.00     0.000 A 
ATOM     14  C   UNL d   1     -49.524  15.851  22.623  0.00  0.00     0.000 C 
ATOM     15  C   UNL d   1     -47.809  14.585  22.592  0.00  0.00     0.005 A 
ENDBRANCH   7   9
ENDBRANCH   1   6
BRANCH   3  16
ATOM     16  C   UNL d   1     -45.046  11.093  23.396  0.00  0.00     0.018 A 
ATOM     17  C   UNL d   1     -44.913  10.350  23.697  0.00  0.00     0.002 A 
ATOM     18  C   UNL d   1     -44.161   9.991  23.620  0.00  0.00     0.000 A 
ATOM     19  C   UNL d   1     -43.551  10.385  23.238  0.00  0.00     0.000 A 
ATOM     20  C   UNL d   1     -43.679  11.147  22.926  0.00  0.00     0.000 A 
ATOM     21  C   UNL d   1     -44.435  11.492  23.012  0.00  0.00     0.002 A 
ENDBRANCH   3  16
TORSDOF 3
ENDMDL
MODEL 3
REMARK VINA RESULT:      -6.6      1.250      1.668
REMARK  3 active torsions:
REMARK  status: ('A' for Active; 'I' for Inactive)
REMARK    1  A    between atoms: N_2  and  C_1 
REMARK       I    between atoms: C_4  and  N_2 
REMARK    2  A    between atoms: C_8  and  C_4 
REMARK    3  A    between atoms: C_10  and  C_5 
ROOT
ATOM      1  C   UNL d   1     -48.082  13.328  22.719  0.00  0.00     0.197 A 
ATOM      2  N   UNL d   1     -48.401  14.074  22.766  0.00  0.00    -0.221 NA
ATOM      3  C   UNL d   1     -49.165  13.962  23.142  0.00  0.00     0.090 A 
ATOM      4  S   UNL d   1     -48.592  12.758  23.040  0.00  0.00    -0.046 SA
ATOM      5  C   UNL d   1     -49.256  13.142  23.299  0.00  0.00     0.058 A 
ENDROOT
BRANCH   1   6
ATOM      6  N   UNL d   1     -47.322  13.155  22.385  0.00  0.00    -0.183 NA
ATOM      7  C   UNL d   1     -46.648  13.171  22.893  0.00  0.00     0.281 C 
ATOM      8  O   UNL d   1     -46.731  13.353  23.698  0.00  0.00    -0.265 OA
BRANCH   7   9
ATOM      9  C   UNL d   1     -45.894  13.008  22.602  0.00  0.00     0.058 A 
ATOM     10  C   UNL d   1     -45.515  13.583  22.163  0.00  0.00     0.005 A 
ATOM     11  C   UNL d   1     -44.748  13.426  21.864  0.00  0.00     0.000 A 
ATOM     12  C   UNL d   1     -44.372  12.709  22.001  0.00  0.00     0.000 A 
ATOM     13  C   UNL d   1     -44.772  12.124  22.454  0.00  0.00     0.000 A 
ATOM     14  C   UNL d   1     -43.678  12.547  21.739  0.00  0.00     0.000 C 
ATOM     15  C   UNL d   1     -45.535  12.281  22.752  0.00  0.00     0.005 A 
ENDBRANCH   7   9
ENDBRANCH   1   6
BRANCH   3  16
ATOM     16  C   UNL d   1     -49.720  14.537  23.324  0.00  0.00     0.018 A 
ATOM     17  C   UNL d   1     -50.486  14.314  23.480  0.00  0.00     0.002 A 
ATOM     18  C   UNL d   1     -51.063  14.889  23.666  0.00  0.00     0.000 A 
ATOM     19  C   UNL d   1     -50.863  15.684  23.694  0.00  0.00     0.000 A 
ATOM     20  C   UNL d   1     -50.080  15.922  23.535  0.00  0.00     0.000 A 
ATOM     21  C   UNL d   1     -49.514  15.335  23.350  0.00  0.00     0.002 A 
ENDBRANCH   3  16
TORSDOF 3
ENDMDL
MODEL 4
REMARK VINA RESULT:      -6.1      1.898      4.724
REMARK  3 active torsions:
REMARK  status: ('A' for Active; 'I' for Inactive)
REMARK    1  A    between atoms: N_2  and  C_1 
REMARK       I    between atoms: C_4  and  N_2 
REMARK    2  A    between atoms: C_8  and  C_4 
REMARK    3  A    between atoms: C_10  and  C_5 
ROOT
ATOM      1  C   UNL d   1     -46.728  13.106  22.838  0.00  0.00     0.197 A 
ATOM      2  N   UNL d   1     -46.125  12.570  22.741  0.00  0.00    -0.221 NA
ATOM      3  C   UNL d   1     -45.479  13.026  22.405  0.00  0.00     0.090 A 
ATOM      4  S   UNL d   1     -46.505  13.864  22.587  0.00  0.00    -0.046 SA
ATOM      5  C   UNL d   1     -45.741  13.819  22.321  0.00  0.00     0.058 A 
ENDROOT
BRANCH   1   6
ATOM      6  N   UNL d   1     -47.490  12.913  23.157  0.00  0.00    -0.183 NA
ATOM      7  C   UNL d   1     -48.089  12.643  22.627  0.00  0.00     0.281 C 
ATOM      8  O   UNL d   1     -47.932  12.569  21.816  0.00  0.00    -0.265 OA
BRANCH   7   9
ATOM      9  C   UNL d   1     -48.841  12.447  22.902  0.00  0.00     0.058 A 
ATOM     10  C   UNL d   1     -49.471  12.915  22.675  0.00  0.00     0.005 A 
ATOM     11  C   UNL d   1     -50.239  12.723  22.949  0.00  0.00     0.000 A 
ATOM     12  C   UNL d   1     -50.372  12.078  23.439  0.00  0.00     0.000 A 
ATOM     13  C   UNL d   1     -49.716  11.603  23.666  0.00  0.00     0.000 A 
ATOM     14  C   UNL d   1     -51.059  11.887  23.698  0.00  0.00     0.000 C 
ATOM     15  C   UNL d   1     -48.951  11.794  23.393  0.00  0.00     0.005 A 
ENDBRANCH   7   9
ENDBRANCH   1   6
BRANCH   3  16
ATOM     16  C   UNL d   1     -44.734  12.755  22.198  0.00  0.00     0.018 A 
ATOM     17  C   UNL d   1     -44.432  12.100  22.571  0.00  0.00     0.002 A 
ATOM     18  C   UNL d   1     -43.673  11.811  22.370  0.00  0.00     0.000 A 
ATOM     19  C   UNL d   1     -43.226  12.187  21.794  0.00  0.00     0.000 A 
ATOM     20  C   UNL d   1     -43.528  12.859  21.406  0.00  0.00     0.000 A 
ATOM     21  C   UNL d   1     -44.288  13.136  21.618  0.00  0.00     0.002 A 
ENDBRANCH   3  16
TORSDOF 3
ENDMDL
MODEL 5
REMARK VINA RESULT:      -5.6      8.957     10.451
REMARK  3 active torsions:
REMARK  status: ('A' for Active; 'I' for Inactive)
REMARK    1  A    between atoms: N_2  and  C_1 
REMARK       I    between atoms: C_4  and  N_2 
REMARK    2  A    between atoms: C_8  and  C_4 
REMARK    3  A    between atoms: C_10  and  C_5 
ROOT
ATOM      1  C   UNL d   1     -39.410  13.986  18.664  0.00  0.00     0.197 A 
ATOM      2  N   UNL d   1     -38.792  13.982  18.136  0.00  0.00    -0.221 NA
ATOM      3  C   UNL d   1     -39.126  14.288  17.406  0.00  0.00     0.090 A 
ATOM      4  S   UNL d   1     -40.107  14.272  18.315  0.00  0.00    -0.046 SA
ATOM      5  C   UNL d   1     -39.936  14.458  17.545  0.00  0.00     0.058 A 
ENDROOT
BRANCH   1   6
ATOM      6  N   UNL d   1     -39.350  13.730  19.470  0.00  0.00    -0.183 NA
ATOM      7  C   UNL d   1     -39.025  14.264  20.036  0.00  0.00     0.281 C 
ATOM      8  O   UNL d   1     -38.771  15.020  19.807  0.00  0.00    -0.265 OA
BRANCH   7   9
ATOM      9  C   UNL d   1     -38.951  14.048  20.829  0.00  0.00     0.058 A 
ATOM     10  C   UNL d   1     -39.514  14.315  21.357  0.00  0.00     0.005 A 
ATOM     11  C   UNL d   1     -39.447  14.101  22.165  0.00  0.00     0.000 A 
ATOM     12  C   UNL d   1     -38.831  13.630  22.435  0.00  0.00     0.000 A 
ATOM     13  C   UNL d   1     -38.257  13.361  21.882  0.00  0.00     0.000 A 
ATOM     14  C   UNL d   1     -38.753  13.425  23.161  0.00  0.00     0.000 C 
ATOM     15  C   UNL d   1     -38.323  13.575  21.078  0.00  0.00     0.005 A 
ENDBRANCH   7   9
ENDBRANCH   1   6
BRANCH   3  16
ATOM     16  C   UNL d   1     -38.741  14.401  16.691  0.00  0.00     0.018 A 
ATOM     17  C   UNL d   1     -38.513  13.753  16.257  0.00  0.00     0.002 A 
ATOM     18  C   UNL d   1     -38.119  13.851  15.526  0.00  0.00     0.000 A 
ATOM     19  C   UNL d   1     -37.959  14.603  15.239  0.00  0.00     0.000 A 
ATOM     20  C   UNL d   1     -38.190  15.273  15.678  0.00  0.00     0.000 A 
ATOM     21  C   UNL d   1     -38.582  15.158  16.407  0.00  0.00     0.002 A 
ENDBRANCH   3  16
TORSDOF 3
ENDMDL
MODEL 6
REMARK VINA RESULT:      -5.3      8.021      9.562
REMARK  3 active torsions:
REMARK  status: ('A' for Active; 'I' for Inactive)
REMARK    1  A    between atoms: N_2  and  C_1 
REMARK       I    between atoms: C_4  and  N_2 
REMARK    2  A    between atoms: C_8  and  C_4 
REMARK    3  A    between atoms: C_10  and  C_5 
ROOT
ATOM      1  C   UNL d   1     -40.308  14.932  20.315  0.00  0.00     0.197 A 
ATOM      2  N   UNL d   1     -39.596  14.958  20.707  0.00  0.00    -0.221 NA
ATOM      3  C   UNL d   1     -39.740  14.547  21.448  0.00  0.00     0.090 A 
ATOM      4  S   UNL d   1     -40.886  14.535  20.758  0.00  0.00    -0.046 SA
ATOM      5  C   UNL d   1     -40.541  14.298  21.452  0.00  0.00     0.058 A 
ENDROOT
BRANCH   1   6
ATOM      6  N   UNL d   1     -40.442  15.270  19.549  0.00  0.00    -0.183 NA
ATOM      7  C   UNL d   1     -40.489  14.750  18.885  0.00  0.00     0.281 C 
ATOM      8  O   UNL d   1     -40.405  13.931  18.985  0.00  0.00    -0.265 OA
BRANCH   7   9
ATOM      9  C   UNL d   1     -40.618  15.043  18.125  0.00  0.00     0.058 A 
ATOM     10  C   UNL d   1     -40.173  14.740  17.512  0.00  0.00     0.005 A 
ATOM     11  C   UNL d   1     -40.298  15.032  16.736  0.00  0.00     0.000 A 
ATOM     12  C   UNL d   1     -40.856  15.614  16.581  0.00  0.00     0.000 A 
ATOM     13  C   UNL d   1     -41.309  15.919  17.221  0.00  0.00     0.000 A 
ATOM     14  C   UNL d   1     -40.984  15.892  15.887  0.00  0.00     0.000 C 
ATOM     15  C   UNL d   1     -41.185  15.628  17.993  0.00  0.00     0.005 A 
ENDBRANCH   7   9
ENDBRANCH   1   6
BRANCH   3  16
ATOM     16  C   UNL d   1     -39.205  14.412  22.054  0.00  0.00     0.018 A 
ATOM     17  C   UNL d   1     -38.850  15.046  22.418  0.00  0.00     0.002 A 
ATOM     18  C   UNL d   1     -38.302  14.925  23.038  0.00  0.00     0.000 A 
ATOM     19  C   UNL d   1     -38.118  14.165  23.286  0.00  0.00     0.000 A 
ATOM     20  C   UNL d   1     -38.477  13.509  22.918  0.00  0.00     0.000 A 
ATOM     21  C   UNL d   1     -39.023  13.647  22.300  0.00  0.00     0.002 A 
ENDBRANCH   3  16
TORSDOF 3
ENDMDL
MODEL 7
REMARK VINA RESULT:      -5.1      8.662      9.152
REMARK  3 active torsions:
REMARK  status: ('A' for Active; 'I' for Inactive)
REMARK    1  A    between atoms: N_2  and  C_1 
REMARK       I    between atoms: C_4  and  N_2 
REMARK    2  A    between atoms: C_8  and  C_4 
REMARK    3  A    between atoms: C_10  and  C_5 
ROOT
ATOM      1  C   UNL d   1     -39.884  14.761  19.330  0.00  0.00     0.197 A 
ATOM      2  N   UNL d   1     -40.056  15.343  18.790  0.00  0.00    -0.221 NA
ATOM      3  C   UNL d   1     -40.434  14.932  18.137  0.00  0.00     0.090 A 
ATOM      4  S   UNL d   1     -40.128  14.015  19.061  0.00  0.00    -0.046 SA
ATOM      5  C   UNL d   1     -40.465  14.116  18.331  0.00  0.00     0.058 A 
ENDROOT
BRANCH   1   6
ATOM      6  N   UNL d   1     -39.504  14.899  20.075  0.00  0.00    -0.183 NA
ATOM      7  C   UNL d   1     -39.972  14.861  20.776  0.00  0.00     0.281 C 
ATOM      8  O   UNL d   1     -40.783  14.693  20.733  0.00  0.00    -0.265 OA
BRANCH   7   9
ATOM      9  C   UNL d   1     -39.635  14.990  21.518  0.00  0.00     0.058 A 
ATOM     10  C   UNL d   1     -39.283  14.359  21.899  0.00  0.00     0.005 A 
ATOM     11  C   UNL d   1     -38.938  14.481  22.653  0.00  0.00     0.000 A 
ATOM     12  C   UNL d   1     -38.947  15.218  23.016  0.00  0.00     0.000 A 
ATOM     13  C   UNL d   1     -39.312  15.860  22.614  0.00  0.00     0.000 A 
ATOM     14  C   UNL d   1     -38.641  15.349  23.697  0.00  0.00     0.000 C 
ATOM     15  C   UNL d   1     -39.655  15.739  21.863  0.00  0.00     0.005 A 
ENDBRANCH   7   9
ENDBRANCH   1   6
BRANCH   3  16
ATOM     16  C   UNL d   1     -40.720  15.258  17.442  0.00  0.00     0.018 A 
ATOM     17  C   UNL d   1     -40.196  15.470  16.858  0.00  0.00     0.002 A 
ATOM     18  C   UNL d   1     -40.472  15.804  16.143  0.00  0.00     0.000 A 
ATOM     19  C   UNL d   1     -41.274  15.922  16.023  0.00  0.00     0.000 A 
ATOM     20  C   UNL d   1     -41.819  15.708  16.616  0.00  0.00     0.000 A 
ATOM     21  C   UNL d   1     -41.528  15.375  17.325  0.00  0.00     0.002 A 
ENDBRANCH   3  16
TORSDOF 3
ENDMDL
MODEL 8
REMARK VINA RESULT:      -4.8      8.961     10.898
REMARK  3 active torsions:
REMARK  status: ('A' for Active; 'I' for Inactive)
REMARK    1  A    between atoms: N_2  and  C_1 
REMARK       I    between atoms: C_4  and  N_2 
REMARK    2  A    between atoms: C_8  and  C_4 
REMARK    3  A    between atoms: C_10  and  C_5 
ROOT
ATOM      1  C   UNL d   1     -38.722  14.399  17.987  0.00  0.00     0.197 A 
ATOM      2  N   UNL d   1     -38.781  14.655  17.218  0.00  0.00    -0.221 NA
ATOM      3  C   UNL d   1     -38.321  14.091  16.763  0.00  0.00     0.090 A 
ATOM      4  S   UNL d   1     -38.257  13.714  18.045  0.00  0.00    -0.046 SA
ATOM      5  C   UNL d   1     -38.010  13.523  17.297  0.00  0.00     0.058 A 
ENDROOT
BRANCH   1   6
ATOM      6  N   UNL d   1     -39.089  14.784  18.647  0.00  0.00    -0.183 NA
ATOM      7  C   UNL d   1     -39.868  14.545  18.867  0.00  0.00     0.281 C 
ATOM      8  O   UNL d   1     -40.261  13.948  18.445  0.00  0.00    -0.265 OA
BRANCH   7   9
ATOM      9  C   UNL d   1     -40.256  14.897  19.504  0.00  0.00     0.058 A 
ATOM     10  C   UNL d   1     -39.986  14.738  20.258  0.00  0.00     0.005 A 
ATOM     11  C   UNL d   1     -40.374  15.092  20.912  0.00  0.00     0.000 A 
ATOM     12  C   UNL d   1     -41.017  15.592  20.810  0.00  0.00     0.000 A 
ATOM     13  C   UNL d   1     -41.287  15.748  20.029  0.00  0.00     0.000 A 
ATOM     14  C   UNL d   1     -41.382  15.922  21.387  0.00  0.00     0.000 C 
ATOM     15  C   UNL d   1     -40.900  15.396  19.378  0.00  0.00     0.005 A 
ENDBRANCH   7   9
ENDBRANCH   1   6
BRANCH   3  16
ATOM     16  C   UNL d   1     -38.195  14.088  15.953  0.00  0.00     0.018 A 
ATOM     17  C   UNL d   1     -38.115  14.796  15.562  0.00  0.00     0.002 A 
ATOM     18  C   UNL d   1     -37.986  14.811  14.736  0.00  0.00     0.000 A 
ATOM     19  C   UNL d   1     -37.940  14.111  14.311  0.00  0.00     0.000 A 
ATOM     20  C   UNL d   1     -38.021  13.380  14.704  0.00  0.00     0.000 A 
ATOM     21  C   UNL d   1     -38.149  13.382  15.530  0.00  0.00     0.002 A 
ENDBRANCH   3  16
TORSDOF 3
ENDMDL
