MODEL 1
REMARK VINA RESULT:      -2.6      0.000      0.000
REMARK  5 active torsions:
REMARK  status: ('A' for Active; 'I' for Inactive)
REMARK    1  A    between atoms: C_2  and  S_1 
REMARK    2  A    between atoms: N_3  and  S_1 
REMARK    3  A    between atoms: C_18  and  N_7 
REMARK    4  A    between atoms: O_27  and  C_9 
REMARK    5  A    between atoms: C_17  and  C_18 
ROOT
ATOM      1  N   UNL d   1      58.434  -0.871  30.083  0.00  0.00    -0.226 N 
ATOM      2  N   UNL d   1      57.429   0.163  30.896  0.00  0.00    -0.300 N 
ATOM      3  C   UNL d   1      57.704  -1.141  30.373  0.00  0.00     0.111 A 
ATOM      4  C   UNL d   1      58.655  -0.082  30.203  0.00  0.00     0.111 A 
ATOM      5  C   UNL d   1      57.205  -0.618  30.780  0.00  0.00     0.100 A 
ATOM      6  C   UNL d   1      58.160   0.433  30.606  0.00  0.00     0.100 A 
ENDROOT
BRANCH   1   7
ATOM      7  S   UNL d   1      58.930  -1.389  29.679  0.00  0.00     0.273 S 
ATOM      8  O   UNL d   1      58.426  -1.349  29.018  0.00  0.00    -0.200 OA
ATOM      9  O   UNL d   1      59.430  -1.430  30.332  0.00  0.00    -0.200 OA
BRANCH   7  10
ATOM     10  C   UNL d   1      59.423  -1.906  29.274  0.00  0.00     0.128 A 
ATOM     11  C   UNL d   1      59.238  -2.712  29.227  0.00  0.00     0.044 A 
ATOM     12  C   UNL d   1      59.732  -3.232  28.821  0.00  0.00     0.141 A 
ATOM     13  F   UNL d   1      59.543  -4.026  28.779  0.00  0.00    -0.204 F 
ATOM     14  C   UNL d   1      60.421  -2.947  28.455  0.00  0.00     0.032 A 
ATOM     15  C   UNL d   1      60.607  -2.145  28.501  0.00  0.00     0.027 A 
ATOM     16  C   UNL d   1      60.113  -1.620  28.908  0.00  0.00     0.106 A 
BRANCH  16  17
ATOM     17  O   UNL d   1      60.306  -0.820  28.949  0.00  0.00    -0.327 OA
ATOM     18  C   UNL d   1      60.963  -0.535  28.551  0.00  0.00     0.181 C 
ENDBRANCH  16  17
ENDBRANCH   7  10
ENDBRANCH   1   7
BRANCH   2  19
ATOM     19  C   UNL d   1      56.932   0.682  31.301  0.00  0.00     0.080 C 
BRANCH  19  20
ATOM     20  C   UNL d   1      56.765   0.565  32.103  0.00  0.00     0.020 A 
ATOM     21  C   UNL d   1      56.014   0.334  32.341  0.00  0.00     0.028 A 
ATOM     22  C   UNL d   1      55.850   0.217  33.141  0.00  0.00     0.119 A 
ATOM     23  O   UNL d   1      55.165  -0.010  33.540  0.00  0.00    -0.300 OA
ATOM     24  C   UNL d   1      56.447   0.334  33.707  0.00  0.00     0.119 A 
ATOM     25  C   UNL d   1      55.335  -0.033  34.348  0.00  0.00     0.304 A 
ATOM     26  O   UNL d   1      56.121   0.178  34.447  0.00  0.00    -0.300 OA
ATOM     27  C   UNL d   1      57.200   0.566  33.465  0.00  0.00     0.026 A 
ATOM     28  C   UNL d   1      57.362   0.682  32.669  0.00  0.00     0.004 A 
ENDBRANCH  19  20
ENDBRANCH   2  19
TORSDOF 5
ENDMDL
MODEL 2
REMARK VINA RESULT:      -2.1      1.969      5.374
REMARK  5 active torsions:
REMARK  status: ('A' for Active; 'I' for Inactive)
REMARK    1  A    between atoms: C_2  and  S_1 
REMARK    2  A    between atoms: N_3  and  S_1 
REMARK    3  A    between atoms: C_18  and  N_7 
REMARK    4  A    between atoms: O_27  and  C_9 
REMARK    5  A    between atoms: C_17  and  C_18 
ROOT
ATOM      1  N   UNL d   1      57.238  -0.242  31.324  0.00  0.00    -0.226 N 
ATOM      2  N   UNL d   1      58.087  -0.484  29.924  0.00  0.00    -0.300 N 
ATOM      3  C   UNL d   1      57.418  -1.013  31.073  0.00  0.00     0.111 A 
ATOM      4  C   UNL d   1      57.485   0.404  30.869  0.00  0.00     0.111 A 
ATOM      5  C   UNL d   1      57.844  -1.128  30.371  0.00  0.00     0.100 A 
ATOM      6  C   UNL d   1      57.906   0.287  30.174  0.00  0.00     0.100 A 
ENDROOT
BRANCH   1   7
ATOM      7  S   UNL d   1      56.815  -0.127  32.021  0.00  0.00     0.273 S 
ATOM      8  O   UNL d   1      56.852  -0.944  32.172  0.00  0.00    -0.200 OA
ATOM      9  O   UNL d   1      56.778   0.682  31.873  0.00  0.00    -0.200 OA
BRANCH   7  10
ATOM     10  C   UNL d   1      56.394  -0.015  32.717  0.00  0.00     0.128 A 
ATOM     11  C   UNL d   1      55.578  -0.160  32.741  0.00  0.00     0.044 A 
ATOM     12  C   UNL d   1      55.154  -0.048  33.438  0.00  0.00     0.141 A 
ATOM     13  F   UNL d   1      54.350  -0.193  33.455  0.00  0.00    -0.204 F 
ATOM     14  C   UNL d   1      55.545   0.213  34.123  0.00  0.00     0.032 A 
ATOM     15  C   UNL d   1      56.356   0.357  34.101  0.00  0.00     0.027 A 
ATOM     16  C   UNL d   1      56.785   0.246  33.402  0.00  0.00     0.106 A 
BRANCH  16  17
ATOM     17  O   UNL d   1      57.596   0.393  33.388  0.00  0.00    -0.327 OA
ATOM     18  C   UNL d   1      57.973   0.682  34.056  0.00  0.00     0.181 C 
ENDBRANCH  16  17
ENDBRANCH   7  10
ENDBRANCH   1   7
BRANCH   2  19
ATOM     19  C   UNL d   1      58.510  -0.600  29.225  0.00  0.00     0.080 C 
BRANCH  19  20
ATOM     20  C   UNL d   1      59.176  -1.092  29.214  0.00  0.00     0.020 A 
ATOM     21  C   UNL d   1      59.089  -1.904  29.137  0.00  0.00     0.028 A 
ATOM     22  C   UNL d   1      59.753  -2.394  29.126  0.00  0.00     0.119 A 
ATOM     23  O   UNL d   1      59.841  -3.211  29.057  0.00  0.00    -0.300 OA
ATOM     24  C   UNL d   1      60.512  -2.062  29.193  0.00  0.00     0.119 A 
ATOM     25  C   UNL d   1      60.648  -3.385  29.081  0.00  0.00     0.304 A 
ATOM     26  O   UNL d   1      61.056  -2.678  29.165  0.00  0.00    -0.300 OA
ATOM     27  C   UNL d   1      60.596  -1.245  29.271  0.00  0.00     0.026 A 
ATOM     28  C   UNL d   1      59.934  -0.760  29.281  0.00  0.00     0.004 A 
ENDBRANCH  19  20
ENDBRANCH   2  19
TORSDOF 5
ENDMDL
