MODEL 1
REMARK VINA RESULT:      -3.2      0.000      0.000
REMARK  5 active torsions:
REMARK  status: ('A' for Active; 'I' for Inactive)
REMARK    1  A    between atoms: C_9  and  N_1 
REMARK    2  A    between atoms: C_2  and  C_9 
REMARK    3  A    between atoms: S_14  and  C_5 
REMARK    4  A    between atoms: C_12  and  C_16 
REMARK       I    between atoms: N_13  and  C_12 
REMARK    5  A    between atoms: C_16  and  S_14 
ROOT
ATOM      1  C   UNL d   1      32.581  18.008 -23.776  0.00  0.00     0.189 A 
ATOM      2  N   UNL d   1      32.785  18.788 -23.919  0.00  0.00    -0.265 N 
ATOM      3  C   UNL d   1      32.987  19.134 -23.198  0.00  0.00     0.202 A 
ATOM      4  N   UNL d   1      32.655  17.868 -22.969  0.00  0.00    -0.126 NA
ATOM      5  N   UNL d   1      32.906  18.564 -22.609  0.00  0.00    -0.121 NA
ATOM      6  C   UNL d   1      32.793  19.175 -24.650  0.00  0.00     0.103 C 
ENDROOT
BRANCH   1   7
ATOM      7  C   UNL d   1      32.354  17.524 -24.395  0.00  0.00     0.123 C 
BRANCH   7   8
ATOM      8  N   UNL d   1      32.010  16.787 -24.247  0.00  0.00    -0.265 N 
ATOM      9  C   UNL d   1      32.416  16.086 -24.070  0.00  0.00     0.296 A 
ATOM     10  S   UNL d   1      31.854  15.493 -23.965  0.00  0.00    -0.025 SA
ATOM     11  O   UNL d   1      33.234  16.002 -24.010  0.00  0.00    -0.259 OA
ATOM     12  C   UNL d   1      31.100  15.834 -24.079  0.00  0.00     0.050 A 
ATOM     13  C   UNL d   1      31.204  16.632 -24.252  0.00  0.00     0.074 A 
ATOM     14  C   UNL d   1      30.338  15.511 -24.044  0.00  0.00     0.008 A 
ATOM     15  C   UNL d   1      30.541  17.114 -24.393  0.00  0.00     0.018 A 
ATOM     16  C   UNL d   1      29.778  16.795 -24.359  0.00  0.00     0.002 A 
ATOM     17  C   UNL d   1      29.685  15.986 -24.183  0.00  0.00     0.001 A 
ENDBRANCH   7   8
ENDBRANCH   1   7
BRANCH   3  18
ATOM     18  S   UNL d   1      33.228  19.915 -23.084  0.00  0.00    -0.043 SA
BRANCH  18  19
ATOM     19  C   UNL d   1      33.067  20.305 -22.372  0.00  0.00     0.099 C 
BRANCH  19  20
ATOM     20  C   UNL d   1      33.073  21.132 -22.339  0.00  0.00     0.271 C 
ATOM     21  N   UNL d   1      32.912  21.517 -21.630  0.00  0.00    -0.272 N 
ATOM     22  C   UNL d   1      32.730  21.232 -20.878  0.00  0.00     0.083 A 
ATOM     23  C   UNL d   1      32.917  22.334 -21.597  0.00  0.00     0.083 A 
ATOM     24  C   UNL d   1      32.624  21.884 -20.383  0.00  0.00     0.021 A 
ATOM     25  C   UNL d   1      32.740  22.556 -20.828  0.00  0.00     0.021 A 
ATOM     26  O   UNL d   1      33.241  21.571 -23.020  0.00  0.00    -0.266 OA
ENDBRANCH  19  20
ENDBRANCH  18  19
ENDBRANCH   3  18
TORSDOF 5
ENDMDL
MODEL 2
REMARK VINA RESULT:      -0.6      0.982      5.430
REMARK  5 active torsions:
REMARK  status: ('A' for Active; 'I' for Inactive)
REMARK    1  A    between atoms: C_9  and  N_1 
REMARK    2  A    between atoms: C_2  and  C_9 
REMARK    3  A    between atoms: S_14  and  C_5 
REMARK    4  A    between atoms: C_12  and  C_16 
REMARK       I    between atoms: N_13  and  C_12 
REMARK    5  A    between atoms: C_16  and  S_14 
ROOT
ATOM      1  C   UNL d   1      32.835  19.406 -23.198  0.00  0.00     0.189 A 
ATOM      2  N   UNL d   1      32.794  18.590 -23.136  0.00  0.00    -0.265 N 
ATOM      3  C   UNL d   1      32.364  18.308 -23.780  0.00  0.00     0.202 A 
ATOM      4  N   UNL d   1      32.432  19.631 -23.878  0.00  0.00    -0.126 NA
ATOM      5  N   UNL d   1      32.139  18.953 -24.241  0.00  0.00    -0.121 NA
ATOM      6  C   UNL d   1      33.121  18.119 -22.540  0.00  0.00     0.103 C 
ENDROOT
BRANCH   1   7
ATOM      7  C   UNL d   1      33.232  19.840 -22.630  0.00  0.00     0.123 C 
BRANCH   7   8
ATOM      8  N   UNL d   1      33.071  20.644 -22.529  0.00  0.00    -0.265 N 
ATOM      9  C   UNL d   1      33.071  21.220 -23.126  0.00  0.00     0.296 A 
ATOM     10  S   UNL d   1      32.882  21.941 -22.775  0.00  0.00    -0.025 SA
ATOM     11  O   UNL d   1      33.230  21.090 -23.924  0.00  0.00    -0.259 OA
ATOM     12  C   UNL d   1      32.767  21.805 -21.959  0.00  0.00     0.050 A 
ATOM     13  C   UNL d   1      32.886  21.003 -21.815  0.00  0.00     0.074 A 
ATOM     14  C   UNL d   1      32.570  22.316 -21.337  0.00  0.00     0.008 A 
ATOM     15  C   UNL d   1      32.807  20.707 -21.042  0.00  0.00     0.018 A 
ATOM     16  C   UNL d   1      32.610  21.214 -20.418  0.00  0.00     0.002 A 
ATOM     17  C   UNL d   1      32.493  22.023 -20.576  0.00  0.00     0.001 A 
ENDBRANCH   7   8
ENDBRANCH   1   7
BRANCH   3  18
ATOM     18  S   UNL d   1      32.188  17.517 -23.940  0.00  0.00    -0.043 SA
BRANCH  18  19
ATOM     19  C   UNL d   1      31.470  17.309 -24.294  0.00  0.00     0.099 C 
BRANCH  19  20
ATOM     20  C   UNL d   1      31.260  16.513 -24.375  0.00  0.00     0.271 C 
ATOM     21  N   UNL d   1      30.467  16.292 -24.361  0.00  0.00    -0.272 N 
ATOM     22  C   UNL d   1      29.776  16.732 -24.277  0.00  0.00     0.083 A 
ATOM     23  C   UNL d   1      30.259  15.505 -24.441  0.00  0.00     0.083 A 
ATOM     24  C   UNL d   1      29.139  16.205 -24.306  0.00  0.00     0.021 A 
ATOM     25  C   UNL d   1      29.441  15.456 -24.406  0.00  0.00     0.021 A 
ATOM     26  O   UNL d   1      31.848  15.938 -24.469  0.00  0.00    -0.266 OA
ENDBRANCH  19  20
ENDBRANCH  18  19
ENDBRANCH   3  18
TORSDOF 5
ENDMDL
MODEL 3
REMARK VINA RESULT:      -0.5      1.829      6.051
REMARK  5 active torsions:
REMARK  status: ('A' for Active; 'I' for Inactive)
REMARK    1  A    between atoms: C_9  and  N_1 
REMARK    2  A    between atoms: C_2  and  C_9 
REMARK    3  A    between atoms: S_14  and  C_5 
REMARK    4  A    between atoms: C_12  and  C_16 
REMARK       I    between atoms: N_13  and  C_12 
REMARK    5  A    between atoms: C_16  and  S_14 
ROOT
ATOM      1  C   UNL d   1      32.980  21.486 -21.466  0.00  0.00     0.189 A 
ATOM      2  N   UNL d   1      33.061  21.168 -22.217  0.00  0.00    -0.265 N 
ATOM      3  C   UNL d   1      32.932  20.356 -22.164  0.00  0.00     0.202 A 
ATOM      4  N   UNL d   1      32.801  20.874 -20.948  0.00  0.00    -0.126 NA
ATOM      5  N   UNL d   1      32.771  20.172 -21.378  0.00  0.00    -0.121 NA
ATOM      6  C   UNL d   1      33.241  21.576 -22.914  0.00  0.00     0.103 C 
ENDROOT
BRANCH   1   7
ATOM      7  C   UNL d   1      33.078  22.289 -21.349  0.00  0.00     0.123 C 
BRANCH   7   8
ATOM      8  N   UNL d   1      32.558  22.709 -20.863  0.00  0.00    -0.265 N 
ATOM      9  C   UNL d   1      31.860  23.085 -21.106  0.00  0.00     0.296 A 
ATOM     10  S   UNL d   1      31.520  23.432 -20.440  0.00  0.00    -0.025 SA
ATOM     11  O   UNL d   1      31.563  23.105 -21.874  0.00  0.00    -0.259 OA
ATOM     12  C   UNL d   1      32.015  23.267 -19.787  0.00  0.00     0.050 A 
ATOM     13  C   UNL d   1      32.652  22.821 -20.056  0.00  0.00     0.074 A 
ATOM     14  C   UNL d   1      31.956  23.471 -18.986  0.00  0.00     0.008 A 
ATOM     15  C   UNL d   1      33.238  22.575 -19.520  0.00  0.00     0.018 A 
ATOM     16  C   UNL d   1      33.184  22.776 -18.718  0.00  0.00     0.002 A 
ATOM     17  C   UNL d   1      32.534  23.228 -18.459  0.00  0.00     0.001 A 
ENDBRANCH   7   8
ENDBRANCH   1   7
BRANCH   3  18
ATOM     18  S   UNL d   1      32.959  19.816 -22.789  0.00  0.00    -0.043 SA
BRANCH  18  19
ATOM     19  C   UNL d   1      32.861  19.007 -22.650  0.00  0.00     0.099 C 
BRANCH  19  20
ATOM     20  C   UNL d   1      32.662  18.498 -23.272  0.00  0.00     0.271 C 
ATOM     21  N   UNL d   1      32.837  17.696 -23.222  0.00  0.00    -0.272 N 
ATOM     22  C   UNL d   1      33.201  17.249 -22.632  0.00  0.00     0.083 A 
ATOM     23  C   UNL d   1      32.641  17.193 -23.836  0.00  0.00     0.083 A 
ATOM     24  C   UNL d   1      33.225  16.465 -22.892  0.00  0.00     0.021 A 
ATOM     25  C   UNL d   1      32.881  16.437 -23.629  0.00  0.00     0.021 A 
ATOM     26  O   UNL d   1      32.286  18.798 -23.946  0.00  0.00    -0.266 OA
ENDBRANCH  19  20
ENDBRANCH  18  19
ENDBRANCH   3  18
TORSDOF 5
ENDMDL
