MODEL 1
REMARK VINA RESULT:      57.7      0.000      0.000
REMARK  5 active torsions:
REMARK  status: ('A' for Active; 'I' for Inactive)
REMARK    1  A    between atoms: S_13  and  C_7 
REMARK    2  A    between atoms: C_22  and  C_10 
REMARK    3  A    between atoms: C_11  and  C_16 
REMARK       I    between atoms: N_12  and  C_11 
REMARK    4  A    between atoms: C_16  and  S_13 
REMARK    5  A    between atoms: C_23  and  C_22 
ROOT
ATOM      1  N   UNL d   1      13.125  13.965  -4.469  0.00  0.00    -0.224 N 
ATOM      2  N   UNL d   1      13.304  12.570  -4.180  0.00  0.00    -0.241 N 
ATOM      3  C   UNL d   1      13.070  13.165  -4.699  0.00  0.00     0.343 A 
ATOM      4  C   UNL d   1      13.592  12.775  -3.432  0.00  0.00     0.160 A 
ATOM      5  C   UNL d   1      13.413  14.160  -3.723  0.00  0.00     0.273 A 
ATOM      6  C   UNL d   1      13.646  13.566  -3.205  0.00  0.00     0.115 A 
ATOM      7  C   UNL d   1      13.934  13.761  -2.458  0.00  0.00     0.120 A 
ATOM      8  N   UNL d   1      13.829  12.177  -2.906  0.00  0.00    -0.209 NA
ATOM      9  N   UNL d   1      14.168  13.171  -1.939  0.00  0.00    -0.220 NA
ATOM     10  C   UNL d   1      14.116  12.373  -2.160  0.00  0.00     0.165 A 
ATOM     11  O   UNL d   1      12.781  12.970  -5.448  0.00  0.00    -0.245 OA
ATOM     12  O   UNL d   1      13.465  14.953  -3.500  0.00  0.00    -0.266 OA
ATOM     13  C   UNL d   1      12.891  14.552  -4.990  0.00  0.00     0.107 C 
ATOM     14  C   UNL d   1      13.250  11.779  -4.407  0.00  0.00     0.105 C 
ENDROOT
BRANCH   7  15
ATOM     15  S   UNL d   1      13.987  14.554  -2.235  0.00  0.00    -0.062 SA
BRANCH  15  16
ATOM     16  C   UNL d   1      14.720  14.883  -2.049  0.00  0.00     0.098 C 
BRANCH  16  17
ATOM     17  C   UNL d   1      14.859  15.191  -1.299  0.00  0.00     0.271 C 
ATOM     18  N   UNL d   1      15.076  15.986  -1.213  0.00  0.00    -0.272 N 
ATOM     19  C   UNL d   1      15.201  16.218  -0.389  0.00  0.00     0.083 A 
ATOM     20  C   UNL d   1      15.124  16.352  -1.853  0.00  0.00     0.083 A 
ATOM     21  C   UNL d   1      15.389  16.834  -0.060  0.00  0.00     0.019 A 
ATOM     22  C   UNL d   1      15.556  17.573  -0.425  0.00  0.00     0.002 A 
ATOM     23  C   UNL d   1      15.533  17.735  -1.293  0.00  0.00     0.002 A 
ATOM     24  C   UNL d   1      15.333  17.171  -1.955  0.00  0.00     0.019 A 
ATOM     25  O   UNL d   1      14.783  14.710  -0.632  0.00  0.00    -0.266 OA
ENDBRANCH  16  17
ENDBRANCH  15  16
ENDBRANCH   7  15
BRANCH  10  26
ATOM     26  C   UNL d   1      14.352  11.780  -1.637  0.00  0.00     0.039 C 
BRANCH  26  27
ATOM     27  C   UNL d   1      14.125  11.821  -0.841  0.00  0.00     0.003 C 
ATOM     28  C   UNL d   1      14.685  11.796  -0.247  0.00  0.00     0.000 C 
ENDBRANCH  26  27
ENDBRANCH  10  26
TORSDOF 5
ENDMDL
