MODEL 1
REMARK VINA RESULT:      -8.9      0.000      0.000
REMARK  7 active torsions:
REMARK  status: ('A' for Active; 'I' for Inactive)
REMARK    1  A    between atoms: C_13  and  N_1 
REMARK    2  A    between atoms: C_2  and  N_6 
REMARK    3  A    between atoms: C_8  and  C_5 
REMARK       I    between atoms: N_6  and  C_8 
REMARK    4  A    between atoms: S_20  and  C_9 
REMARK    5  A    between atoms: C_14  and  C_19 
REMARK    6  A    between atoms: C_19  and  C_23 
REMARK    7  A    between atoms: C_23  and  S_20 
ROOT
ATOM      1  N   UNL d   1      51.169  34.055  52.713  0.00  0.00    -0.181 NA
ATOM      2  C   UNL d   1      51.249  33.390  53.094  0.00  0.00     0.283 C 
ATOM      3  O   UNL d   1      50.626  32.978  53.283  0.00  0.00    -0.265 OA
ENDROOT
BRANCH   2   4
ATOM      4  C   UNL d   1      51.948  33.140  53.284  0.00  0.00     0.080 A 
ATOM      5  C   UNL d   1      52.452  33.495  53.739  0.00  0.00     0.088 A 
ATOM      6  N   UNL d   1      53.082  33.057  53.784  0.00  0.00    -0.273 N 
ATOM      7  C   UNL d   1      52.967  32.433  53.359  0.00  0.00     0.265 A 
ATOM      8  C   UNL d   1      52.263  32.479  53.044  0.00  0.00     0.067 A 
ATOM      9  O   UNL d   1      53.469  31.853  53.257  0.00  0.00    -0.267 OA
BRANCH   6  10
ATOM     10  C   UNL d   1      53.767  33.235  54.221  0.00  0.00     0.067 A 
ATOM     11  C   UNL d   1      54.456  33.455  53.824  0.00  0.00     0.020 A 
ATOM     12  C   UNL d   1      55.132  33.629  54.267  0.00  0.00     0.031 A 
ATOM     13  C   UNL d   1      55.122  33.587  55.085  0.00  0.00     0.140 A 
ATOM     14  C   UNL d   1      54.425  33.365  55.477  0.00  0.00     0.031 A 
ATOM     15  F   UNL d   1      55.806  33.764  55.529  0.00  0.00    -0.204 F 
ATOM     16  C   UNL d   1      53.756  33.191  55.050  0.00  0.00     0.020 A 
ENDBRANCH   6  10
ENDBRANCH   2   4
BRANCH   1  17
ATOM     17  C   UNL d   1      50.470  34.310  52.520  0.00  0.00     0.219 A 
ATOM     18  S   UNL d   1      50.027  34.781  52.939  0.00  0.00    -0.019 SA
ATOM     19  C   UNL d   1      49.380  34.900  52.555  0.00  0.00     0.165 A 
ATOM     20  N   UNL d   1      49.406  34.508  51.893  0.00  0.00    -0.133 NA
ATOM     21  N   UNL d   1      50.093  34.137  51.872  0.00  0.00    -0.120 NA
BRANCH  19  22
ATOM     22  S   UNL d   1      48.235  35.916  53.285  0.00  0.00    -0.059 SA
BRANCH  22  23
ATOM     23  C   UNL d   1      47.476  35.981  52.968  0.00  0.00     0.042 C 
BRANCH  23  24
ATOM     24  C   UNL d   1      46.979  36.598  53.212  0.00  0.00     0.058 C 
BRANCH  24  25
ATOM     25  C   UNL d   1      46.191  36.595  52.969  0.00  0.00     0.204 A 
ATOM     26  O   UNL d   1      45.920  36.709  52.192  0.00  0.00    -0.281 OA
ATOM     27  C   UNL d   1      45.091  36.662  52.205  0.00  0.00     0.152 A 
ATOM     28  C   UNL d   1      44.855  36.521  52.986  0.00  0.00     0.152 A 
ATOM     29  O   UNL d   1      45.531  36.479  53.460  0.00  0.00    -0.281 OA
ENDBRANCH  24  25
ENDBRANCH  23  24
ENDBRANCH  22  23
ENDBRANCH  19  22
ENDBRANCH   1  17
TORSDOF 7
ENDMDL
MODEL 2
REMARK VINA RESULT:      -8.3      1.779      2.255
REMARK  7 active torsions:
REMARK  status: ('A' for Active; 'I' for Inactive)
REMARK    1  A    between atoms: C_13  and  N_1 
REMARK    2  A    between atoms: C_2  and  N_6 
REMARK    3  A    between atoms: C_8  and  C_5 
REMARK       I    between atoms: N_6  and  C_8 
REMARK    4  A    between atoms: S_20  and  C_9 
REMARK    5  A    between atoms: C_14  and  C_19 
REMARK    6  A    between atoms: C_19  and  C_23 
REMARK    7  A    between atoms: C_23  and  S_20 
ROOT
ATOM      1  N   UNL d   1      51.110  33.659  53.119  0.00  0.00    -0.181 NA
ATOM      2  C   UNL d   1      51.838  33.792  52.907  0.00  0.00     0.283 C 
ATOM      3  O   UNL d   1      52.027  34.462  52.577  0.00  0.00    -0.265 OA
ENDROOT
BRANCH   2   4
ATOM      4  C   UNL d   1      52.374  33.257  53.025  0.00  0.00     0.080 A 
ATOM      5  C   UNL d   1      52.254  32.511  53.151  0.00  0.00     0.088 A 
ATOM      6  N   UNL d   1      52.938  32.171  53.242  0.00  0.00    -0.273 N 
ATOM      7  C   UNL d   1      53.478  32.706  53.171  0.00  0.00     0.265 A 
ATOM      8  C   UNL d   1      53.133  33.384  53.036  0.00  0.00     0.067 A 
ATOM      9  O   UNL d   1      54.242  32.592  53.226  0.00  0.00    -0.267 OA
BRANCH   6  10
ATOM     10  C   UNL d   1      53.063  31.362  53.389  0.00  0.00     0.067 A 
ATOM     11  C   UNL d   1      52.903  30.812  52.795  0.00  0.00     0.020 A 
ATOM     12  C   UNL d   1      53.031  30.010  52.951  0.00  0.00     0.031 A 
ATOM     13  C   UNL d   1      53.310  29.762  53.680  0.00  0.00     0.140 A 
ATOM     14  C   UNL d   1      53.468  30.322  54.272  0.00  0.00     0.031 A 
ATOM     15  F   UNL d   1      53.438  28.952  53.835  0.00  0.00    -0.204 F 
ATOM     16  C   UNL d   1      53.346  31.112  54.128  0.00  0.00     0.020 A 
ENDBRANCH   6  10
ENDBRANCH   2   4
BRANCH   1  17
ATOM     17  C   UNL d   1      50.568  34.193  53.002  0.00  0.00     0.219 A 
ATOM     18  S   UNL d   1      50.043  34.191  52.439  0.00  0.00    -0.019 SA
ATOM     19  C   UNL d   1      49.611  34.814  52.517  0.00  0.00     0.165 A 
ATOM     20  N   UNL d   1      49.857  35.214  53.127  0.00  0.00    -0.133 NA
ATOM     21  N   UNL d   1      50.460  34.822  53.432  0.00  0.00    -0.120 NA
BRANCH  19  22
ATOM     22  S   UNL d   1      48.373  35.031  51.379  0.00  0.00    -0.059 SA
BRANCH  22  23
ATOM     23  C   UNL d   1      47.656  35.373  51.606  0.00  0.00     0.042 C 
BRANCH  23  24
ATOM     24  C   UNL d   1      47.013  35.367  51.084  0.00  0.00     0.058 C 
BRANCH  24  25
ATOM     25  C   UNL d   1      46.259  35.529  51.377  0.00  0.00     0.204 A 
ATOM     26  O   UNL d   1      46.045  36.187  51.835  0.00  0.00    -0.281 OA
ATOM     27  C   UNL d   1      45.234  36.123  52.005  0.00  0.00     0.152 A 
ATOM     28  C   UNL d   1      44.954  35.428  51.651  0.00  0.00     0.152 A 
ATOM     29  O   UNL d   1      45.583  35.059  51.263  0.00  0.00    -0.281 OA
ENDBRANCH  24  25
ENDBRANCH  23  24
ENDBRANCH  22  23
ENDBRANCH  19  22
ENDBRANCH   1  17
TORSDOF 7
ENDMDL
MODEL 3
REMARK VINA RESULT:      -7.5      1.392      1.849
REMARK  7 active torsions:
REMARK  status: ('A' for Active; 'I' for Inactive)
REMARK    1  A    between atoms: C_13  and  N_1 
REMARK    2  A    between atoms: C_2  and  N_6 
REMARK    3  A    between atoms: C_8  and  C_5 
REMARK       I    between atoms: N_6  and  C_8 
REMARK    4  A    between atoms: S_20  and  C_9 
REMARK    5  A    between atoms: C_14  and  C_19 
REMARK    6  A    between atoms: C_19  and  C_23 
REMARK    7  A    between atoms: C_23  and  S_20 
ROOT
ATOM      1  N   UNL d   1      50.138  34.573  51.806  0.00  0.00    -0.181 NA
ATOM      2  C   UNL d   1      50.296  34.285  52.502  0.00  0.00     0.283 C 
ATOM      3  O   UNL d   1      49.723  34.077  52.972  0.00  0.00    -0.265 OA
ENDROOT
BRANCH   2   4
ATOM      4  C   UNL d   1      51.025  34.205  52.726  0.00  0.00     0.080 A 
ATOM      5  C   UNL d   1      51.359  33.561  52.973  0.00  0.00     0.088 A 
ATOM      6  N   UNL d   1      52.092  33.720  53.141  0.00  0.00    -0.273 N 
ATOM      7  C   UNL d   1      52.210  34.461  52.997  0.00  0.00     0.265 A 
ATOM      8  C   UNL d   1      51.550  34.768  52.739  0.00  0.00     0.067 A 
ATOM      9  O   UNL d   1      52.877  34.843  53.094  0.00  0.00    -0.267 OA
BRANCH   6  10
ATOM     10  C   UNL d   1      52.654  33.179  53.428  0.00  0.00     0.067 A 
ATOM     11  C   UNL d   1      52.868  32.532  52.963  0.00  0.00     0.020 A 
ATOM     12  C   UNL d   1      53.428  31.999  53.256  0.00  0.00     0.031 A 
ATOM     13  C   UNL d   1      53.766  32.107  53.995  0.00  0.00     0.140 A 
ATOM     14  C   UNL d   1      53.545  32.760  54.456  0.00  0.00     0.031 A 
ATOM     15  F   UNL d   1      54.330  31.568  54.288  0.00  0.00    -0.204 F 
ATOM     16  C   UNL d   1      52.996  33.290  54.176  0.00  0.00     0.020 A 
ENDBRANCH   6  10
ENDBRANCH   2   4
BRANCH   1  17
ATOM     17  C   UNL d   1      49.408  34.656  51.577  0.00  0.00     0.219 A 
ATOM     18  S   UNL d   1      48.885  35.128  51.889  0.00  0.00    -0.019 SA
ATOM     19  C   UNL d   1      48.233  35.045  51.504  0.00  0.00     0.165 A 
ATOM     20  N   UNL d   1      48.336  34.521  50.948  0.00  0.00    -0.133 NA
ATOM     21  N   UNL d   1      49.076  34.277  50.995  0.00  0.00    -0.120 NA
BRANCH  19  22
ATOM     22  S   UNL d   1      46.921  35.992  52.011  0.00  0.00    -0.059 SA
BRANCH  22  23
ATOM     23  C   UNL d   1      46.287  35.643  52.409  0.00  0.00     0.042 C 
BRANCH  23  24
ATOM     24  C   UNL d   1      45.862  36.082  52.968  0.00  0.00     0.058 C 
BRANCH  24  25
ATOM     25  C   UNL d   1      45.365  35.684  53.494  0.00  0.00     0.204 A 
ATOM     26  O   UNL d   1      44.611  35.384  53.319  0.00  0.00    -0.281 OA
ATOM     27  C   UNL d   1      44.315  35.029  54.009  0.00  0.00     0.152 A 
ATOM     28  C   UNL d   1      44.886  35.111  54.604  0.00  0.00     0.152 A 
ATOM     29  O   UNL d   1      45.535  35.514  54.289  0.00  0.00    -0.281 OA
ENDBRANCH  24  25
ENDBRANCH  23  24
ENDBRANCH  22  23
ENDBRANCH  19  22
ENDBRANCH   1  17
TORSDOF 7
ENDMDL
MODEL 4
REMARK VINA RESULT:      -7.1      2.817      6.859
REMARK  7 active torsions:
REMARK  status: ('A' for Active; 'I' for Inactive)
REMARK    1  A    between atoms: C_13  and  N_1 
REMARK    2  A    between atoms: C_2  and  N_6 
REMARK    3  A    between atoms: C_8  and  C_5 
REMARK       I    between atoms: N_6  and  C_8 
REMARK    4  A    between atoms: S_20  and  C_9 
REMARK    5  A    between atoms: C_14  and  C_19 
REMARK    6  A    between atoms: C_19  and  C_23 
REMARK    7  A    between atoms: C_23  and  S_20 
ROOT
ATOM      1  N   UNL d   1      51.199  34.700  52.781  0.00  0.00    -0.181 NA
ATOM      2  C   UNL d   1      50.528  34.335  52.878  0.00  0.00     0.283 C 
ATOM      3  O   UNL d   1      50.471  33.764  53.392  0.00  0.00    -0.265 OA
ENDROOT
BRANCH   2   4
ATOM      4  C   UNL d   1      49.917  34.541  52.463  0.00  0.00     0.080 A 
ATOM      5  C   UNL d   1      49.325  34.965  52.701  0.00  0.00     0.088 A 
ATOM      6  N   UNL d   1      48.834  35.041  52.115  0.00  0.00    -0.273 N 
ATOM      7  C   UNL d   1      49.123  34.665  51.516  0.00  0.00     0.265 A 
ATOM      8  C   UNL d   1      49.797  34.351  51.727  0.00  0.00     0.067 A 
ATOM      9  O   UNL d   1      48.798  34.606  50.815  0.00  0.00    -0.267 OA
BRANCH   6  10
ATOM     10  C   UNL d   1      48.117  35.460  52.132  0.00  0.00     0.067 A 
ATOM     11  C   UNL d   1      48.006  36.050  52.699  0.00  0.00     0.020 A 
ATOM     12  C   UNL d   1      47.288  36.462  52.709  0.00  0.00     0.031 A 
ATOM     13  C   UNL d   1      46.697  36.291  52.169  0.00  0.00     0.140 A 
ATOM     14  C   UNL d   1      46.816  35.696  51.603  0.00  0.00     0.031 A 
ATOM     15  F   UNL d   1      45.975  36.708  52.182  0.00  0.00    -0.204 F 
ATOM     16  C   UNL d   1      47.517  35.286  51.585  0.00  0.00     0.020 A 
ENDBRANCH   6  10
ENDBRANCH   2   4
BRANCH   1  17
ATOM     17  C   UNL d   1      51.814  34.498  53.196  0.00  0.00     0.219 A 
ATOM     18  S   UNL d   1      52.251  33.873  53.084  0.00  0.00    -0.019 SA
ATOM     19  C   UNL d   1      52.803  33.874  53.609  0.00  0.00     0.165 A 
ATOM     20  N   UNL d   1      52.721  34.495  54.056  0.00  0.00    -0.133 NA
ATOM     21  N   UNL d   1      52.099  34.888  53.795  0.00  0.00    -0.120 NA
BRANCH  19  22
ATOM     22  S   UNL d   1      53.901  32.583  53.564  0.00  0.00    -0.059 SA
BRANCH  22  23
ATOM     23  C   UNL d   1      53.662  31.827  53.793  0.00  0.00     0.042 C 
BRANCH  23  24
ATOM     24  C   UNL d   1      53.796  31.182  53.290  0.00  0.00     0.058 C 
BRANCH  24  25
ATOM     25  C   UNL d   1      53.447  30.456  53.471  0.00  0.00     0.204 A 
ATOM     26  O   UNL d   1      52.782  30.128  53.097  0.00  0.00    -0.281 OA
ATOM     27  C   UNL d   1      52.627  29.395  53.455  0.00  0.00     0.152 A 
ATOM     28  C   UNL d   1      53.195  29.275  54.046  0.00  0.00     0.152 A 
ATOM     29  O   UNL d   1      53.703  29.927  54.058  0.00  0.00    -0.281 OA
ENDBRANCH  24  25
ENDBRANCH  23  24
ENDBRANCH  22  23
ENDBRANCH  19  22
ENDBRANCH   1  17
TORSDOF 7
ENDMDL
MODEL 5
REMARK VINA RESULT:      -6.8      2.650      7.234
REMARK  7 active torsions:
REMARK  status: ('A' for Active; 'I' for Inactive)
REMARK    1  A    between atoms: C_13  and  N_1 
REMARK    2  A    between atoms: C_2  and  N_6 
REMARK    3  A    between atoms: C_8  and  C_5 
REMARK       I    between atoms: N_6  and  C_8 
REMARK    4  A    between atoms: S_20  and  C_9 
REMARK    5  A    between atoms: C_14  and  C_19 
REMARK    6  A    between atoms: C_19  and  C_23 
REMARK    7  A    between atoms: C_23  and  S_20 
ROOT
ATOM      1  N   UNL d   1      49.975  34.841  52.900  0.00  0.00    -0.181 NA
ATOM      2  C   UNL d   1      49.320  34.903  52.499  0.00  0.00     0.283 C 
ATOM      3  O   UNL d   1      49.254  34.556  51.814  0.00  0.00    -0.265 OA
ENDROOT
BRANCH   2   4
ATOM      4  C   UNL d   1      48.736  35.311  52.781  0.00  0.00     0.080 A 
ATOM      5  C   UNL d   1      48.024  35.345  52.499  0.00  0.00     0.088 A 
ATOM      6  N   UNL d   1      47.612  35.815  52.947  0.00  0.00    -0.273 N 
ATOM      7  C   UNL d   1      48.069  36.071  53.503  0.00  0.00     0.265 A 
ATOM      8  C   UNL d   1      48.770  35.761  53.406  0.00  0.00     0.067 A 
ATOM      9  O   UNL d   1      47.866  36.559  54.070  0.00  0.00    -0.267 OA
BRANCH   6  10
ATOM     10  C   UNL d   1      46.811  36.009  52.840  0.00  0.00     0.067 A 
ATOM     11  C   UNL d   1      46.245  35.690  53.349  0.00  0.00     0.020 A 
ATOM     12  C   UNL d   1      45.451  35.888  53.235  0.00  0.00     0.031 A 
ATOM     13  C   UNL d   1      45.225  36.392  52.630  0.00  0.00     0.140 A 
ATOM     14  C   UNL d   1      45.800  36.709  52.123  0.00  0.00     0.031 A 
ATOM     15  F   UNL d   1      44.422  36.590  52.518  0.00  0.00    -0.204 F 
ATOM     16  C   UNL d   1      46.583  36.520  52.226  0.00  0.00     0.020 A 
ENDBRANCH   6  10
ENDBRANCH   2   4
BRANCH   1  17
ATOM     17  C   UNL d   1      50.564  34.433  52.620  0.00  0.00     0.219 A 
ATOM     18  S   UNL d   1      50.965  33.896  53.000  0.00  0.00    -0.019 SA
ATOM     19  C   UNL d   1      51.499  33.625  52.530  0.00  0.00     0.165 A 
ATOM     20  N   UNL d   1      51.442  33.985  51.852  0.00  0.00    -0.133 NA
ATOM     21  N   UNL d   1      50.853  34.494  51.909  0.00  0.00    -0.120 NA
BRANCH  19  22
ATOM     22  S   UNL d   1      52.518  32.418  53.148  0.00  0.00    -0.059 SA
BRANCH  22  23
ATOM     23  C   UNL d   1      53.300  32.595  53.344  0.00  0.00     0.042 C 
BRANCH  23  24
ATOM     24  C   UNL d   1      53.639  32.267  54.025  0.00  0.00     0.058 C 
BRANCH  24  25
ATOM     25  C   UNL d   1      54.137  32.734  54.488  0.00  0.00     0.204 A 
ATOM     26  O   UNL d   1      54.098  32.819  55.313  0.00  0.00    -0.281 OA
ATOM     27  C   UNL d   1      54.704  33.340  55.542  0.00  0.00     0.152 A 
ATOM     28  C   UNL d   1      55.111  33.573  54.859  0.00  0.00     0.152 A 
ATOM     29  O   UNL d   1      54.764  33.201  54.208  0.00  0.00    -0.281 OA
ENDBRANCH  24  25
ENDBRANCH  23  24
ENDBRANCH  22  23
ENDBRANCH  19  22
ENDBRANCH   1  17
TORSDOF 7
ENDMDL
MODEL 6
REMARK VINA RESULT:      -6.0     10.325     11.525
REMARK  7 active torsions:
REMARK  status: ('A' for Active; 'I' for Inactive)
REMARK    1  A    between atoms: C_13  and  N_1 
REMARK    2  A    between atoms: C_2  and  N_6 
REMARK    3  A    between atoms: C_8  and  C_5 
REMARK       I    between atoms: N_6  and  C_8 
REMARK    4  A    between atoms: S_20  and  C_9 
REMARK    5  A    between atoms: C_14  and  C_19 
REMARK    6  A    between atoms: C_19  and  C_23 
REMARK    7  A    between atoms: C_23  and  S_20 
ROOT
ATOM      1  N   UNL d   1      44.475  26.753  56.770  0.00  0.00    -0.181 NA
ATOM      2  C   UNL d   1      45.064  27.248  56.793  0.00  0.00     0.283 C 
ATOM      3  O   UNL d   1      45.760  27.031  56.543  0.00  0.00    -0.265 OA
ENDROOT
BRANCH   2   4
ATOM      4  C   UNL d   1      44.958  27.957  57.065  0.00  0.00     0.080 A 
ATOM      5  C   UNL d   1      45.001  28.176  57.798  0.00  0.00     0.088 A 
ATOM      6  N   UNL d   1      44.857  28.931  57.831  0.00  0.00    -0.273 N 
ATOM      7  C   UNL d   1      44.725  29.176  57.120  0.00  0.00     0.265 A 
ATOM      8  C   UNL d   1      44.786  28.574  56.639  0.00  0.00     0.067 A 
ATOM      9  O   UNL d   1      44.557  29.903  56.913  0.00  0.00    -0.267 OA
BRANCH   6  10
ATOM     10  C   UNL d   1      44.848  29.394  58.521  0.00  0.00     0.067 A 
ATOM     11  C   UNL d   1      45.364  30.035  58.585  0.00  0.00     0.020 A 
ATOM     12  C   UNL d   1      45.348  30.491  59.276  0.00  0.00     0.031 A 
ATOM     13  C   UNL d   1      44.831  30.312  59.886  0.00  0.00     0.140 A 
ATOM     14  C   UNL d   1      44.316  29.666  59.813  0.00  0.00     0.031 A 
ATOM     15  F   UNL d   1      44.817  30.774  60.580  0.00  0.00    -0.204 F 
ATOM     16  C   UNL d   1      44.324  29.213  59.138  0.00  0.00     0.020 A 
ENDBRANCH   6  10
ENDBRANCH   2   4
BRANCH   1  17
ATOM     17  C   UNL d   1      44.578  26.041  56.498  0.00  0.00     0.219 A 
ATOM     18  S   UNL d   1      44.411  25.798  55.786  0.00  0.00    -0.019 SA
ATOM     19  C   UNL d   1      44.594  25.060  55.739  0.00  0.00     0.165 A 
ATOM     20  N   UNL d   1      44.876  24.829  56.417  0.00  0.00    -0.133 NA
ATOM     21  N   UNL d   1      44.866  25.447  56.895  0.00  0.00    -0.120 NA
BRANCH  19  22
ATOM     22  S   UNL d   1      44.315  24.298  54.250  0.00  0.00    -0.059 SA
BRANCH  22  23
ATOM     23  C   UNL d   1      44.879  23.785  53.934  0.00  0.00     0.042 C 
BRANCH  23  24
ATOM     24  C   UNL d   1      44.685  23.309  53.285  0.00  0.00     0.058 C 
BRANCH  24  25
ATOM     25  C   UNL d   1      45.293  22.954  52.854  0.00  0.00     0.204 A 
ATOM     26  O   UNL d   1      45.564  22.174  52.943  0.00  0.00    -0.281 OA
ATOM     27  C   UNL d   1      46.179  22.057  52.397  0.00  0.00     0.152 A 
ATOM     28  C   UNL d   1      46.284  22.763  51.976  0.00  0.00     0.152 A 
ATOM     29  O   UNL d   1      45.740  23.318  52.255  0.00  0.00    -0.281 OA
ENDBRANCH  24  25
ENDBRANCH  23  24
ENDBRANCH  22  23
ENDBRANCH  19  22
ENDBRANCH   1  17
TORSDOF 7
ENDMDL
