MODEL 1
REMARK VINA RESULT:      -0.0      0.000      0.000
REMARK  4 active torsions:
REMARK  status: ('A' for Active; 'I' for Inactive)
REMARK    1  A    between atoms: C_11  and  C_3 
REMARK    2  A    between atoms: C_10  and  N_5 
REMARK    3  A    between atoms: O_17  and  C_11 
REMARK    4  A    between atoms: C_22  and  O_17 
ROOT
ATOM      1  C   UNL d   1      30.179  17.643 -24.709  0.00  0.00     0.086 A 
ATOM      2  C   UNL d   1      29.509  17.183 -24.570  0.00  0.00     0.038 A 
ATOM      3  C   UNL d   1      29.574  16.388 -24.353  0.00  0.00     0.165 A 
ATOM      4  C   UNL d   1      30.924  17.296 -24.629  0.00  0.00     0.282 A 
ATOM      5  N   UNL d   1      30.998  16.516 -24.416  0.00  0.00    -0.194 N 
ATOM      6  N   UNL d   1      30.323  16.062 -24.278  0.00  0.00    -0.157 NA
ATOM      7  C   UNL d   1      29.931  18.405 -24.913  0.00  0.00     0.137 A 
ATOM      8  C   UNL d   1      28.842  17.663 -24.688  0.00  0.00     0.039 A 
ATOM      9  S   UNL d   1      29.106  18.415 -24.900  0.00  0.00    -0.066 SA
ATOM     10  O   UNL d   1      31.598  17.750 -24.767  0.00  0.00    -0.265 OA
ATOM     11  N   UNL d   1      30.422  19.035 -25.096  0.00  0.00    -0.141 N 
ENDROOT
BRANCH   5  12
ATOM     12  C   UNL d   1      31.750  16.172 -24.337  0.00  0.00     0.087 A 
ATOM     13  C   UNL d   1      32.092  16.110 -23.599  0.00  0.00     0.031 A 
ATOM     14  C   UNL d   1      32.831  15.775 -23.504  0.00  0.00     0.059 A 
ATOM     15 CL   UNL d   1      33.176  15.712 -22.757  0.00  0.00    -0.082 Cl
ATOM     16  C   UNL d   1      33.240  15.492 -24.173  0.00  0.00     0.011 A 
ATOM     17  C   UNL d   1      32.895  15.555 -24.919  0.00  0.00     0.002 A 
ATOM     18  C   UNL d   1      32.150  15.895 -25.002  0.00  0.00     0.019 A 
ENDBRANCH   5  12
BRANCH   3  19
ATOM     19  C   UNL d   1      28.899  15.933 -24.215  0.00  0.00     0.320 C 
ATOM     20  O   UNL d   1      28.560  15.502 -24.829  0.00  0.00    -0.257 OA
BRANCH  19  21
ATOM     21  O   UNL d   1      28.564  15.913 -23.456  0.00  0.00    -0.270 OA
BRANCH  21  22
ATOM     22  C   UNL d   1      27.808  15.607 -23.345  0.00  0.00     0.126 C 
ATOM     23  C   UNL d   1      27.528  15.459 -22.581  0.00  0.00     0.029 C 
ENDBRANCH  21  22
ENDBRANCH  19  21
ENDBRANCH   3  19
TORSDOF 4
ENDMDL
MODEL 2
REMARK VINA RESULT:       0.1      4.607      5.911
REMARK  4 active torsions:
REMARK  status: ('A' for Active; 'I' for Inactive)
REMARK    1  A    between atoms: C_11  and  C_3 
REMARK    2  A    between atoms: C_10  and  N_5 
REMARK    3  A    between atoms: O_17  and  C_11 
REMARK    4  A    between atoms: C_22  and  O_17 
ROOT
ATOM      1  C   UNL d   1      33.018  20.641 -21.506  0.00  0.00     0.086 A 
ATOM      2  C   UNL d   1      32.939  21.419 -21.768  0.00  0.00     0.038 A 
ATOM      3  C   UNL d   1      32.815  21.591 -22.567  0.00  0.00     0.165 A 
ATOM      4  C   UNL d   1      32.971  20.029 -22.059  0.00  0.00     0.282 A 
ATOM      5  N   UNL d   1      32.849  20.188 -22.846  0.00  0.00    -0.194 N 
ATOM      6  N   UNL d   1      32.771  20.969 -23.100  0.00  0.00    -0.157 NA
ATOM      7  C   UNL d   1      33.135  20.655 -20.688  0.00  0.00     0.137 A 
ATOM      8  C   UNL d   1      33.008  21.918 -21.108  0.00  0.00     0.039 A 
ATOM      9  S   UNL d   1      33.129  21.442 -20.444  0.00  0.00    -0.066 SA
ATOM     10  O   UNL d   1      33.049  19.248 -21.805  0.00  0.00    -0.265 OA
ATOM     11  N   UNL d   1      33.239  19.998 -20.209  0.00  0.00    -0.141 N 
ENDROOT
BRANCH   5  12
ATOM     12  C   UNL d   1      32.803  19.567 -23.397  0.00  0.00     0.087 A 
ATOM     13  C   UNL d   1      32.322  18.926 -23.245  0.00  0.00     0.031 A 
ATOM     14  C   UNL d   1      32.265  18.308 -23.776  0.00  0.00     0.059 A 
ATOM     15 CL   UNL d   1      31.778  17.659 -23.624  0.00  0.00    -0.082 Cl
ATOM     16  C   UNL d   1      32.706  18.335 -24.484  0.00  0.00     0.011 A 
ATOM     17  C   UNL d   1      33.192  18.983 -24.637  0.00  0.00     0.002 A 
ATOM     18  C   UNL d   1      33.241  19.600 -24.093  0.00  0.00     0.019 A 
ENDBRANCH   5  12
BRANCH   3  19
ATOM     19  C   UNL d   1      32.737  22.372 -22.822  0.00  0.00     0.320 C 
ATOM     20  O   UNL d   1      32.164  22.859 -22.487  0.00  0.00    -0.257 OA
BRANCH  19  21
ATOM     21  O   UNL d   1      33.238  22.664 -23.415  0.00  0.00    -0.270 OA
BRANCH  21  22
ATOM     22  C   UNL d   1      33.060  23.372 -23.796  0.00  0.00     0.126 C 
ATOM     23  C   UNL d   1      33.120  23.427 -24.619  0.00  0.00     0.029 C 
ENDBRANCH  21  22
ENDBRANCH  19  21
ENDBRANCH   3  19
TORSDOF 4
ENDMDL
MODEL 3
REMARK VINA RESULT:       1.2      5.164      6.319
REMARK  4 active torsions:
REMARK  status: ('A' for Active; 'I' for Inactive)
REMARK    1  A    between atoms: C_11  and  C_3 
REMARK    2  A    between atoms: C_10  and  N_5 
REMARK    3  A    between atoms: O_17  and  C_11 
REMARK    4  A    between atoms: C_22  and  O_17 
ROOT
ATOM      1  C   UNL d   1      33.132  22.185 -23.772  0.00  0.00     0.086 A 
ATOM      2  C   UNL d   1      33.181  21.378 -23.939  0.00  0.00     0.038 A 
ATOM      3  C   UNL d   1      33.167  20.814 -23.334  0.00  0.00     0.165 A 
ATOM      4  C   UNL d   1      33.069  22.424 -22.985  0.00  0.00     0.282 A 
ATOM      5  N   UNL d   1      33.054  21.879 -22.384  0.00  0.00    -0.194 N 
ATOM      6  N   UNL d   1      33.103  21.074 -22.558  0.00  0.00    -0.157 NA
ATOM      7  C   UNL d   1      33.161  22.598 -24.488  0.00  0.00     0.137 A 
ATOM      8  C   UNL d   1      33.240  21.292 -24.763  0.00  0.00     0.039 A 
ATOM      9  S   UNL d   1      33.228  22.046 -25.097  0.00  0.00    -0.066 SA
ATOM     10  O   UNL d   1      33.019  23.229 -22.811  0.00  0.00    -0.265 OA
ATOM     11  N   UNL d   1      33.129  23.412 -24.571  0.00  0.00    -0.141 N 
ENDROOT
BRANCH   5  12
ATOM     12  C   UNL d   1      32.989  22.127 -21.594  0.00  0.00     0.087 A 
ATOM     13  C   UNL d   1      33.139  21.599 -20.989  0.00  0.00     0.031 A 
ATOM     14  C   UNL d   1      33.080  21.827 -20.207  0.00  0.00     0.059 A 
ATOM     15 CL   UNL d   1      33.232  21.294 -19.596  0.00  0.00    -0.082 Cl
ATOM     16  C   UNL d   1      32.863  22.612 -20.026  0.00  0.00     0.011 A 
ATOM     17  C   UNL d   1      32.712  23.145 -20.636  0.00  0.00     0.002 A 
ATOM     18  C   UNL d   1      32.774  22.903 -21.420  0.00  0.00     0.019 A 
ENDBRANCH   5  12
BRANCH   3  19
ATOM     19  C   UNL d   1      33.216  20.009 -23.508  0.00  0.00     0.320 C 
ATOM     20  O   UNL d   1      33.241  19.759 -24.292  0.00  0.00    -0.257 OA
BRANCH  19  21
ATOM     21  O   UNL d   1      33.239  19.455 -22.892  0.00  0.00    -0.270 OA
BRANCH  21  22
ATOM     22  C   UNL d   1      32.939  18.697 -23.005  0.00  0.00     0.126 C 
ATOM     23  C   UNL d   1      33.160  18.083 -22.496  0.00  0.00     0.029 C 
ENDBRANCH  21  22
ENDBRANCH  19  21
ENDBRANCH   3  19
TORSDOF 4
ENDMDL
MODEL 4
REMARK VINA RESULT:       2.5      4.038      5.002
REMARK  4 active torsions:
REMARK  status: ('A' for Active; 'I' for Inactive)
REMARK    1  A    between atoms: C_11  and  C_3 
REMARK    2  A    between atoms: C_10  and  N_5 
REMARK    3  A    between atoms: O_17  and  C_11 
REMARK    4  A    between atoms: C_22  and  O_17 
ROOT
ATOM      1  C   UNL d   1      33.080  21.007 -23.812  0.00  0.00     0.086 A 
ATOM      2  C   UNL d   1      33.037  21.144 -22.999  0.00  0.00     0.038 A 
ATOM      3  C   UNL d   1      32.942  20.520 -22.465  0.00  0.00     0.165 A 
ATOM      4  C   UNL d   1      33.026  20.230 -24.087  0.00  0.00     0.282 A 
ATOM      5  N   UNL d   1      32.933  19.611 -23.570  0.00  0.00    -0.194 N 
ATOM      6  N   UNL d   1      32.891  19.756 -22.759  0.00  0.00    -0.157 NA
ATOM      7  C   UNL d   1      33.175  21.735 -24.191  0.00  0.00     0.137 A 
ATOM      8  C   UNL d   1      33.106  21.962 -22.876  0.00  0.00     0.039 A 
ATOM      9  S   UNL d   1      33.190  22.322 -23.613  0.00  0.00    -0.066 SA
ATOM     10  O   UNL d   1      33.068  20.085 -24.898  0.00  0.00    -0.265 OA
ATOM     11  N   UNL d   1      33.241  21.847 -25.000  0.00  0.00    -0.141 N 
ENDROOT
BRANCH   5  12
ATOM     12  C   UNL d   1      32.879  18.832 -23.854  0.00  0.00     0.087 A 
ATOM     13  C   UNL d   1      32.487  18.267 -23.415  0.00  0.00     0.031 A 
ATOM     14  C   UNL d   1      32.426  17.496 -23.680  0.00  0.00     0.059 A 
ATOM     15 CL   UNL d   1      32.030  16.925 -23.236  0.00  0.00    -0.082 Cl
ATOM     16  C   UNL d   1      32.770  17.287 -24.411  0.00  0.00     0.011 A 
ATOM     17  C   UNL d   1      33.165  17.858 -24.854  0.00  0.00     0.002 A 
ATOM     18  C   UNL d   1      33.221  18.631 -24.577  0.00  0.00     0.019 A 
ENDBRANCH   5  12
BRANCH   3  19
ATOM     19  C   UNL d   1      32.900  20.665 -21.654  0.00  0.00     0.320 C 
ATOM     20  O   UNL d   1      33.235  20.132 -21.122  0.00  0.00    -0.257 OA
BRANCH  19  21
ATOM     21  O   UNL d   1      32.520  21.348 -21.376  0.00  0.00    -0.270 OA
BRANCH  21  22
ATOM     22  C   UNL d   1      32.489  21.505 -20.569  0.00  0.00     0.126 C 
ATOM     23  C   UNL d   1      32.034  22.136 -20.286  0.00  0.00     0.029 C 
ENDBRANCH  21  22
ENDBRANCH  19  21
ENDBRANCH   3  19
TORSDOF 4
ENDMDL
