MODEL 1
REMARK VINA RESULT:      81.9      0.000      0.000
REMARK  7 active torsions:
REMARK  status: ('A' for Active; 'I' for Inactive)
REMARK    1  A    between atoms: C_20  and  N_1 
REMARK       I    between atoms: C_6  and  N_7 
REMARK    2  A    between atoms: C_10  and  C_6 
REMARK    3  A    between atoms: N_7  and  C_24 
REMARK    4  A    between atoms: C_9  and  N_7 
REMARK    5  A    between atoms: O_29  and  C_11 
REMARK    6  A    between atoms: C_23  and  C_20 
REMARK    7  A    between atoms: C_24  and  C_23 
ROOT
ATOM      1  C   UNL d   1      14.456  15.051  -1.995  0.00  0.00     0.085 C 
ENDROOT
BRANCH   1   2
ATOM      2  N   UNL d   1      14.701  14.864  -1.239  0.00  0.00    -0.271 N 
ATOM      3  C   UNL d   1      15.067  15.444  -0.776  0.00  0.00     0.271 C 
ATOM      4  O   UNL d   1      15.314  15.258  -0.016  0.00  0.00    -0.266 OA
BRANCH   3   5
ATOM      5  C   UNL d   1      15.183  16.203  -1.079  0.00  0.00     0.086 A 
ATOM      6  S   UNL d   1      14.659  16.842  -1.045  0.00  0.00    -0.082 SA
ATOM      7  C   UNL d   1      14.997  17.470  -1.408  0.00  0.00     0.036 A 
ATOM      8  C   UNL d   1      15.726  17.265  -1.678  0.00  0.00     0.008 A 
ATOM      9  C   UNL d   1      15.859  16.452  -1.473  0.00  0.00     0.012 A 
ENDBRANCH   3   5
BRANCH   2  10
ATOM     10  C   UNL d   1      14.585  14.109  -0.938  0.00  0.00     0.089 A 
ATOM     11  C   UNL d   1      15.191  13.541  -0.978  0.00  0.00     0.110 A 
ATOM     12  C   UNL d   1      15.077  12.790  -0.679  0.00  0.00     0.026 A 
ATOM     13  C   UNL d   1      14.352  12.584  -0.331  0.00  0.00     0.002 A 
ATOM     14  C   UNL d   1      13.758  13.146  -0.293  0.00  0.00     0.002 A 
ATOM     15  C   UNL d   1      14.236  11.826  -0.028  0.00  0.00     0.000 C 
ATOM     16  C   UNL d   1      13.873  13.896  -0.592  0.00  0.00     0.020 A 
BRANCH  11  17
ATOM     17  O   UNL d   1      15.906  13.733  -1.318  0.00  0.00    -0.327 OA
ATOM     18  C   UNL d   1      16.435  13.144  -1.516  0.00  0.00     0.181 C 
ENDBRANCH  11  17
ENDBRANCH   2  10
ENDBRANCH   1   2
BRANCH   1  19
ATOM     19  C   UNL d   1      13.697  14.799  -2.271  0.00  0.00     0.038 C 
BRANCH  19  20
ATOM     20  C   UNL d   1      13.438  14.989  -3.037  0.00  0.00     0.088 C 
BRANCH  20  21
ATOM     21  N   UNL d   1      13.471  14.399  -3.654  0.00  0.00    -0.240 N 
ATOM     22  C   UNL d   1      13.831  14.569  -4.376  0.00  0.00     0.267 A 
ATOM     23  C   UNL d   1      13.868  14.004  -4.979  0.00  0.00     0.057 A 
ATOM     24  O   UNL d   1      14.175  15.338  -4.516  0.00  0.00    -0.267 OA
ATOM     25  C   UNL d   1      14.221  14.171  -5.686  0.00  0.00     0.005 A 
ATOM     26  C   UNL d   1      13.530  13.255  -4.836  0.00  0.00     0.009 A 
ATOM     27  C   UNL d   1      14.254  13.598  -6.288  0.00  0.00     0.000 A 
ATOM     28  C   UNL d   1      13.921  12.862  -6.144  0.00  0.00     0.000 A 
ATOM     29  C   UNL d   1      13.568  12.695  -5.437  0.00  0.00     0.000 A 
ATOM     30  C   UNL d   1      13.232  11.950  -5.293  0.00  0.00     0.000 A 
ATOM     31  C   UNL d   1      12.872  11.779  -4.570  0.00  0.00     0.000 A 
ATOM     32  C   UNL d   1      12.839  12.350  -3.973  0.00  0.00     0.005 A 
ATOM     33  C   UNL d   1      13.170  13.085  -4.113  0.00  0.00     0.057 A 
ATOM     34  C   UNL d   1      13.139  13.659  -3.515  0.00  0.00     0.267 A 
ATOM     35  O   UNL d   1      12.773  13.486  -2.781  0.00  0.00    -0.267 OA
ENDBRANCH  20  21
ENDBRANCH  19  20
ENDBRANCH   1  19
TORSDOF 7
ENDMDL
