MODEL 1
REMARK VINA RESULT:      37.3      0.000      0.000
REMARK  7 active torsions:
REMARK  status: ('A' for Active; 'I' for Inactive)
REMARK    1  A    between atoms: C_8  and  N_2 
REMARK    2  A    between atoms: C_13  and  C_8 
REMARK    3  A    between atoms: O_17  and  C_13 
REMARK    4  A    between atoms: O_18  and  C_15 
REMARK    5  A    between atoms: C_21  and  O_17 
REMARK    6  A    between atoms: C_23  and  C_21 
REMARK    7  A    between atoms: C_24  and  C_23 
ROOT
ATOM      1  C   UNL d   1      46.462 -17.613  42.302  0.00  0.00     0.166 A 
ATOM      2  N   UNL d   1      46.421 -17.241  43.030  0.00  0.00    -0.285 N 
ATOM      3  C   UNL d   1      46.428 -18.429  42.431  0.00  0.00     0.117 A 
ATOM      4  C   UNL d   1      46.367 -18.559  43.242  0.00  0.00     0.039 A 
ATOM      5  C   UNL d   1      46.363 -17.823  43.616  0.00  0.00     0.067 A 
ATOM      6  N   UNL d   1      46.524 -17.318  41.540  0.00  0.00    -0.225 NA
ATOM      7  N   UNL d   1      46.458 -18.957  41.791  0.00  0.00    -0.241 NA
ATOM      8  C   UNL d   1      46.554 -17.842  40.892  0.00  0.00     0.101 A 
ATOM      9  C   UNL d   1      46.521 -18.658  41.021  0.00  0.00     0.099 A 
ATOM     10  C   UNL d   1      46.306 -17.777  44.438  0.00  0.00     0.020 A 
ATOM     11  C   UNL d   1      46.315 -19.249  43.689  0.00  0.00     0.027 A 
ATOM     12  C   UNL d   1      46.259 -19.203  44.510  0.00  0.00     0.094 A 
ATOM     13  C   UNL d   1      46.254 -18.468  44.885  0.00  0.00     0.026 A 
ATOM     14  C   UNL d   1      46.550 -19.175  40.383  0.00  0.00     0.021 A 
ATOM     15  C   UNL d   1      46.617 -17.542  40.131  0.00  0.00     0.021 A 
ATOM     16  C   UNL d   1      46.613 -18.875  39.618  0.00  0.00     0.002 A 
ATOM     17  C   UNL d   1      46.647 -18.058  39.485  0.00  0.00     0.002 A 
ENDROOT
BRANCH   2  18
ATOM     18  C   UNL d   1      46.436 -16.429  43.161  0.00  0.00     0.151 C 
BRANCH  18  19
ATOM     19  C   UNL d   1      45.949 -16.105  43.742  0.00  0.00     0.318 C 
ATOM     20  O   UNL d   1      45.214 -16.434  43.904  0.00  0.00    -0.257 OA
BRANCH  19  21
ATOM     21  O   UNL d   1      46.204 -15.446  44.164  0.00  0.00    -0.270 OA
BRANCH  21  22
ATOM     22  C   UNL d   1      45.660 -14.877  44.400  0.00  0.00     0.126 C 
BRANCH  22  23
ATOM     23  C   UNL d   1      45.504 -14.237  43.908  0.00  0.00     0.027 C 
BRANCH  23  24
ATOM     24  C   UNL d   1      45.669 -13.470  44.165  0.00  0.00     0.002 C 
ATOM     25  C   UNL d   1      45.304 -12.825  43.808  0.00  0.00     0.000 C 
ENDBRANCH  23  24
ENDBRANCH  22  23
ENDBRANCH  21  22
ENDBRANCH  19  21
ENDBRANCH  18  19
ENDBRANCH   2  18
BRANCH  12  26
ATOM     26  O   UNL d   1      46.207 -19.893  44.954  0.00  0.00    -0.328 OA
ATOM     27  C   UNL d   1      45.517 -20.330  44.955  0.00  0.00     0.181 C 
ENDBRANCH  12  26
TORSDOF 7
ENDMDL
