MODEL 1
REMARK VINA RESULT:       7.9      0.000      0.000
REMARK  6 active torsions:
REMARK  status: ('A' for Active; 'I' for Inactive)
REMARK    1  A    between atoms: C_19  and  N_1 
REMARK    2  A    between atoms: S_12  and  C_2 
REMARK       I    between atoms: N_7  and  C_10 
REMARK    3  A    between atoms: C_10  and  C_23 
REMARK    4  A    between atoms: C_23  and  S_12 
REMARK    5  A    between atoms: O_26  and  C_17 
REMARK    6  A    between atoms: O_27  and  C_18 
ROOT
ATOM      1  S   UNL d   1     -42.167-122.474 -49.911  0.00  0.00    -0.044 SA
ENDROOT
BRANCH   1   2
ATOM      2  C   UNL d   1     -42.241-122.807 -49.163  0.00  0.00     0.183 A 
ATOM      3  N   UNL d   1     -42.971-123.110 -48.914  0.00  0.00    -0.254 N 
ATOM      4  C   UNL d   1     -43.047-123.445 -48.164  0.00  0.00     0.271 A 
ATOM      5  C   UNL d   1     -42.394-123.478 -47.658  0.00  0.00     0.115 A 
ATOM      6  O   UNL d   1     -43.783-123.748 -47.920  0.00  0.00    -0.266 OA
ATOM      7  C   UNL d   1     -41.662-123.173 -47.911  0.00  0.00     0.192 A 
ATOM      8  C   UNL d   1     -42.297-123.773 -46.891  0.00  0.00     0.130 A 
ATOM      9  N   UNL d   1     -41.123-123.283 -47.296  0.00  0.00    -0.128 NA
ATOM     10  N   UNL d   1     -41.587-122.840 -48.657  0.00  0.00    -0.201 NA
ATOM     11  N   UNL d   1     -41.510-123.647 -46.677  0.00  0.00    -0.145 NA
BRANCH   3  12
ATOM     12  C   UNL d   1     -43.621-123.077 -49.417  0.00  0.00     0.069 A 
ATOM     13  C   UNL d   1     -43.945-122.347 -49.622  0.00  0.00     0.018 A 
ATOM     14  C   UNL d   1     -44.603-122.313 -50.131  0.00  0.00     0.002 A 
ATOM     15  C   UNL d   1     -44.928-123.010 -50.429  0.00  0.00     0.000 A 
ATOM     16  C   UNL d   1     -44.603-123.736 -50.224  0.00  0.00     0.002 A 
ATOM     17  C   UNL d   1     -43.946-123.770 -49.715  0.00  0.00     0.018 A 
ENDBRANCH   3  12
ENDBRANCH   1   2
BRANCH   1  18
ATOM     18  C   UNL d   1     -41.421-122.401 -50.257  0.00  0.00     0.099 C 
BRANCH  18  19
ATOM     19  C   UNL d   1     -41.328-121.955 -50.942  0.00  0.00     0.271 C 
ATOM     20  N   UNL d   1     -41.356-122.323 -51.684  0.00  0.00    -0.272 N 
ATOM     21  C   UNL d   1     -41.263-121.877 -52.372  0.00  0.00     0.083 A 
ATOM     22  C   UNL d   1     -41.476-123.136 -51.734  0.00  0.00     0.083 A 
ATOM     23  C   UNL d   1     -41.290-122.245 -53.106  0.00  0.00     0.020 A 
ATOM     24  C   UNL d   1     -41.198-121.799 -53.789  0.00  0.00     0.028 A 
ATOM     25  C   UNL d   1     -41.411-123.058 -53.156  0.00  0.00     0.005 A 
ATOM     26  C   UNL d   1     -41.225-122.167 -54.533  0.00  0.00     0.116 A 
ATOM     27  C   UNL d   1     -41.345-122.979 -54.583  0.00  0.00     0.116 A 
ATOM     28  C   UNL d   1     -41.438-123.425 -53.889  0.00  0.00     0.026 A 
ATOM     29  C   UNL d   1     -41.503-123.502 -52.472  0.00  0.00     0.019 A 
ATOM     30  O   UNL d   1     -41.208-121.143 -50.887  0.00  0.00    -0.266 OA
BRANCH  26  31
ATOM     31  O   UNL d   1     -41.132-121.721 -55.221  0.00  0.00    -0.326 OA
ATOM     32  C   UNL d   1     -41.514-120.996 -55.304  0.00  0.00     0.181 C 
ENDBRANCH  26  31
BRANCH  27  33
ATOM     33  O   UNL d   1     -41.375-123.359 -55.322  0.00  0.00    -0.326 OA
ATOM     34  C   UNL d   1     -42.035-123.800 -55.536  0.00  0.00     0.181 C 
ENDBRANCH  27  33
ENDBRANCH  18  19
ENDBRANCH   1  18
TORSDOF 6
ENDMDL
