MODEL 1
REMARK VINA RESULT:      85.7      0.000      0.000
REMARK  9 active torsions:
REMARK  status: ('A' for Active; 'I' for Inactive)
REMARK    1  A    between atoms: C_2  and  N_1 
REMARK    2  A    between atoms: C_6  and  C_2 
REMARK    3  A    between atoms: C_8  and  C_2 
REMARK    4  A    between atoms: C_10  and  N_3 
REMARK       I    between atoms: C_4  and  N_7 
REMARK    5  A    between atoms: C_5  and  C_4 
REMARK       I    between atoms: N_9  and  C_5 
REMARK    6  A    between atoms: N_7  and  C_8 
REMARK    7  A    between atoms: C_24  and  N_9 
REMARK    8  A    between atoms: C_26  and  C_24 
REMARK    9  A    between atoms: O_29  and  C_25 
ROOT
ATOM      1  C   UNL d   1     -49.454  28.539  33.966  0.00  0.00     0.106 C 
ENDROOT
BRANCH   1   2
ATOM      2  N   UNL d   1     -49.830  27.802  33.870  0.00  0.00    -0.298 N 
ATOM      3  C   UNL d   1     -50.644  27.763  33.800  0.00  0.00     0.100 A 
ATOM      4  C   UNL d   1     -51.020  27.026  33.704  0.00  0.00     0.100 A 
ATOM      5  N   UNL d   1     -50.567  26.337  33.681  0.00  0.00    -0.301 N 
ATOM      6  C   UNL d   1     -49.741  26.389  33.754  0.00  0.00     0.100 A 
ATOM      7  C   UNL d   1     -49.378  27.113  33.847  0.00  0.00     0.100 A 
BRANCH   5   8
ATOM      8  C   UNL d   1     -50.924  25.618  33.589  0.00  0.00     0.064 A 
ATOM      9  C   UNL d   1     -50.475  24.920  33.631  0.00  0.00     0.020 A 
ATOM     10  C   UNL d   1     -50.830  24.183  33.538  0.00  0.00     0.026 A 
ATOM     11  C   UNL d   1     -51.642  24.135  33.401  0.00  0.00     0.094 A 
ATOM     12  C   UNL d   1     -52.096  24.832  33.359  0.00  0.00     0.026 A 
ATOM     13  C   UNL d   1     -51.736  25.570  33.453  0.00  0.00     0.020 A 
BRANCH  11  14
ATOM     14  O   UNL d   1     -52.001  23.393  33.307  0.00  0.00    -0.328 OA
ATOM     15  C   UNL d   1     -52.662  23.193  33.761  0.00  0.00     0.181 C 
ENDBRANCH  11  14
ENDBRANCH   5   8
ENDBRANCH   1   2
BRANCH   1  16
ATOM     16  C   UNL d   1     -48.829  28.608  34.522  0.00  0.00     0.118 A 
ATOM     17  O   UNL d   1     -48.820  28.795  35.329  0.00  0.00    -0.304 OA
ATOM     18  C   UNL d   1     -48.027  28.776  35.576  0.00  0.00     0.123 A 
ATOM     19  C   UNL d   1     -47.559  28.582  34.937  0.00  0.00     0.029 A 
ATOM     20  C   UNL d   1     -48.055  28.477  34.280  0.00  0.00     0.028 A 
ENDBRANCH   1  16
BRANCH   1  21
ATOM     21  C   UNL d   1     -49.682  29.197  33.528  0.00  0.00     0.122 C 
BRANCH  21  22
ATOM     22  N   UNL d   1     -49.316  29.938  33.674  0.00  0.00    -0.201 NA
ATOM     23  C   UNL d   1     -49.761  30.630  33.662  0.00  0.00     0.337 C 
ATOM     24  O   UNL d   1     -50.561  30.602  33.509  0.00  0.00    -0.260 OA
BRANCH  23  25
ATOM     25  C   UNL d   1     -49.388  31.346  33.807  0.00  0.00     0.337 C 
ATOM     26  N   UNL d   1     -48.703  31.538  33.388  0.00  0.00    -0.200 NA
ATOM     27  O   UNL d   1     -49.686  31.872  34.359  0.00  0.00    -0.260 OA
BRANCH  26  28
ATOM     28  C   UNL d   1     -48.321  32.256  33.528  0.00  0.00     0.127 C 
BRANCH  28  29
ATOM     29  C   UNL d   1     -47.627  32.274  33.973  0.00  0.00     0.119 A 
ATOM     30  O   UNL d   1     -47.148  31.673  34.273  0.00  0.00    -0.304 OA
ATOM     31  C   UNL d   1     -46.523  32.033  34.679  0.00  0.00     0.123 A 
ATOM     32  C   UNL d   1     -46.615  32.843  34.628  0.00  0.00     0.029 A 
ATOM     33  C   UNL d   1     -47.297  32.998  34.193  0.00  0.00     0.028 A 
ENDBRANCH  28  29
ENDBRANCH  26  28
ENDBRANCH  23  25
ENDBRANCH  21  22
ENDBRANCH   1  21
TORSDOF 9
ENDMDL
MODEL 2
REMARK VINA RESULT:      86.2      2.940      3.430
REMARK  9 active torsions:
REMARK  status: ('A' for Active; 'I' for Inactive)
REMARK    1  A    between atoms: C_2  and  N_1 
REMARK    2  A    between atoms: C_6  and  C_2 
REMARK    3  A    between atoms: C_8  and  C_2 
REMARK    4  A    between atoms: C_10  and  N_3 
REMARK       I    between atoms: C_4  and  N_7 
REMARK    5  A    between atoms: C_5  and  C_4 
REMARK       I    between atoms: N_9  and  C_5 
REMARK    6  A    between atoms: N_7  and  C_8 
REMARK    7  A    between atoms: C_24  and  N_9 
REMARK    8  A    between atoms: C_26  and  C_24 
REMARK    9  A    between atoms: O_29  and  C_25 
ROOT
ATOM      1  C   UNL d   1     -49.454  27.693  35.258  0.00  0.00     0.106 C 
ENDROOT
BRANCH   1   2
ATOM      2  N   UNL d   1     -49.925  27.354  35.855  0.00  0.00    -0.298 N 
ATOM      3  C   UNL d   1     -50.527  26.838  35.658  0.00  0.00     0.100 A 
ATOM      4  C   UNL d   1     -50.999  26.499  36.255  0.00  0.00     0.100 A 
ATOM      5  N   UNL d   1     -50.855  26.687  37.046  0.00  0.00    -0.301 N 
ATOM      6  C   UNL d   1     -50.240  27.214  37.234  0.00  0.00     0.100 A 
ATOM      7  C   UNL d   1     -49.781  27.543  36.645  0.00  0.00     0.100 A 
BRANCH   5   8
ATOM      8  C   UNL d   1     -51.307  26.363  37.631  0.00  0.00     0.064 A 
ATOM      9  C   UNL d   1     -51.990  25.929  37.442  0.00  0.00     0.020 A 
ATOM     10  C   UNL d   1     -52.456  25.596  38.033  0.00  0.00     0.026 A 
ATOM     11  C   UNL d   1     -52.244  25.693  38.824  0.00  0.00     0.094 A 
ATOM     12  C   UNL d   1     -51.560  26.127  39.018  0.00  0.00     0.026 A 
ATOM     13  C   UNL d   1     -51.095  26.460  38.423  0.00  0.00     0.020 A 
BRANCH  11  14
ATOM     14  O   UNL d   1     -52.712  25.358  39.421  0.00  0.00    -0.328 OA
ATOM     15  C   UNL d   1     -52.903  24.555  39.396  0.00  0.00     0.181 C 
ENDBRANCH  11  14
ENDBRANCH   5   8
ENDBRANCH   1   2
BRANCH   1  16
ATOM     16  C   UNL d   1     -49.771  27.774  34.485  0.00  0.00     0.118 A 
ATOM     17  O   UNL d   1     -49.980  28.438  34.036  0.00  0.00    -0.304 OA
ATOM     18  C   UNL d   1     -50.266  28.160  33.307  0.00  0.00     0.123 A 
ATOM     19  C   UNL d   1     -50.233  27.346  33.307  0.00  0.00     0.029 A 
ATOM     20  C   UNL d   1     -49.926  27.103  34.039  0.00  0.00     0.028 A 
ENDBRANCH   1  16
BRANCH   1  21
ATOM     21  C   UNL d   1     -48.687  27.949  35.410  0.00  0.00     0.122 C 
BRANCH  21  22
ATOM     22  N   UNL d   1     -48.547  28.758  35.584  0.00  0.00    -0.201 NA
ATOM     23  C   UNL d   1     -47.791  29.074  35.511  0.00  0.00     0.337 C 
ATOM     24  O   UNL d   1     -47.170  28.604  35.269  0.00  0.00    -0.260 OA
BRANCH  23  25
ATOM     25  C   UNL d   1     -47.672  29.867  35.685  0.00  0.00     0.337 C 
ATOM     26  N   UNL d   1     -47.731  30.427  35.082  0.00  0.00    -0.200 NA
ATOM     27  O   UNL d   1     -47.495  30.108  36.446  0.00  0.00    -0.260 OA
BRANCH  26  28
ATOM     28  C   UNL d   1     -47.613  31.227  35.248  0.00  0.00     0.127 C 
BRANCH  28  29
ATOM     29  C   UNL d   1     -47.737  31.792  34.661  0.00  0.00     0.119 A 
ATOM     30  O   UNL d   1     -48.367  31.922  34.145  0.00  0.00    -0.304 OA
ATOM     31  C   UNL d   1     -48.174  32.578  33.677  0.00  0.00     0.123 A 
ATOM     32  C   UNL d   1     -47.436  32.847  33.903  0.00  0.00     0.029 A 
ATOM     33  C   UNL d   1     -47.161  32.364  34.511  0.00  0.00     0.028 A 
ENDBRANCH  28  29
ENDBRANCH  26  28
ENDBRANCH  23  25
ENDBRANCH  21  22
ENDBRANCH   1  21
TORSDOF 9
ENDMDL
MODEL 3
REMARK VINA RESULT:      86.7      2.773      6.125
REMARK  9 active torsions:
REMARK  status: ('A' for Active; 'I' for Inactive)
REMARK    1  A    between atoms: C_2  and  N_1 
REMARK    2  A    between atoms: C_6  and  C_2 
REMARK    3  A    between atoms: C_8  and  C_2 
REMARK    4  A    between atoms: C_10  and  N_3 
REMARK       I    between atoms: C_4  and  N_7 
REMARK    5  A    between atoms: C_5  and  C_4 
REMARK       I    between atoms: N_9  and  C_5 
REMARK    6  A    between atoms: N_7  and  C_8 
REMARK    7  A    between atoms: C_24  and  N_9 
REMARK    8  A    between atoms: C_26  and  C_24 
REMARK    9  A    between atoms: O_29  and  C_25 
ROOT
ATOM      1  C   UNL d   1     -50.288  26.811  34.234  0.00  0.00     0.106 C 
ENDROOT
BRANCH   1   2
ATOM      2  N   UNL d   1     -50.643  26.632  34.966  0.00  0.00    -0.298 N 
ATOM      3  C   UNL d   1     -50.344  26.954  35.655  0.00  0.00     0.100 A 
ATOM      4  C   UNL d   1     -50.699  26.775  36.388  0.00  0.00     0.100 A 
ATOM      5  N   UNL d   1     -51.352  26.271  36.412  0.00  0.00    -0.301 N 
ATOM      6  C   UNL d   1     -51.646  25.949  35.705  0.00  0.00     0.100 A 
ATOM      7  C   UNL d   1     -51.295  26.128  34.991  0.00  0.00     0.100 A 
BRANCH   5   8
ATOM      8  C   UNL d   1     -51.702  26.091  37.118  0.00  0.00     0.064 A 
ATOM      9  C   UNL d   1     -52.500  25.861  37.142  0.00  0.00     0.020 A 
ATOM     10  C   UNL d   1     -52.864  25.676  37.857  0.00  0.00     0.026 A 
ATOM     11  C   UNL d   1     -52.434  25.720  38.559  0.00  0.00     0.094 A 
ATOM     12  C   UNL d   1     -51.633  25.951  38.539  0.00  0.00     0.026 A 
ATOM     13  C   UNL d   1     -51.271  26.135  37.820  0.00  0.00     0.020 A 
BRANCH  11  14
ATOM     14  O   UNL d   1     -52.799  25.534  39.280  0.00  0.00    -0.328 OA
ATOM     15  C   UNL d   1     -53.212  24.824  39.364  0.00  0.00     0.181 C 
ENDBRANCH  11  14
ENDBRANCH   5   8
ENDBRANCH   1   2
BRANCH   1  16
ATOM     16  C   UNL d   1     -49.944  27.568  34.122  0.00  0.00     0.118 A 
ATOM     17  O   UNL d   1     -49.387  27.996  34.561  0.00  0.00    -0.304 OA
ATOM     18  C   UNL d   1     -49.267  28.718  34.167  0.00  0.00     0.123 A 
ATOM     19  C   UNL d   1     -49.738  28.734  33.502  0.00  0.00     0.029 A 
ATOM     20  C   UNL d   1     -50.160  28.020  33.472  0.00  0.00     0.028 A 
ENDBRANCH   1  16
BRANCH   1  21
ATOM     21  C   UNL d   1     -50.270  26.263  33.620  0.00  0.00     0.122 C 
BRANCH  21  22
ATOM     22  N   UNL d   1     -50.755  25.580  33.661  0.00  0.00    -0.201 NA
ATOM     23  C   UNL d   1     -50.439  24.836  33.504  0.00  0.00     0.337 C 
ATOM     24  O   UNL d   1     -49.652  24.757  33.307  0.00  0.00    -0.260 OA
BRANCH  23  25
ATOM     25  C   UNL d   1     -50.927  24.179  33.549  0.00  0.00     0.337 C 
ATOM     26  N   UNL d   1     -51.736  24.264  33.408  0.00  0.00    -0.200 NA
ATOM     27  O   UNL d   1     -50.624  23.441  33.729  0.00  0.00    -0.260 OA
BRANCH  26  28
ATOM     28  C   UNL d   1     -52.234  23.608  33.451  0.00  0.00     0.127 C 
BRANCH  28  29
ATOM     29  C   UNL d   1     -53.051  23.713  33.509  0.00  0.00     0.119 A 
ATOM     30  O   UNL d   1     -53.657  23.206  33.745  0.00  0.00    -0.304 OA
ATOM     31  C   UNL d   1     -54.368  23.626  33.687  0.00  0.00     0.123 A 
ATOM     32  C   UNL d   1     -54.202  24.380  33.421  0.00  0.00     0.029 A 
ATOM     33  C   UNL d   1     -53.388  24.439  33.309  0.00  0.00     0.028 A 
ENDBRANCH  28  29
ENDBRANCH  26  28
ENDBRANCH  23  25
ENDBRANCH  21  22
ENDBRANCH   1  21
TORSDOF 9
ENDMDL
MODEL 4
REMARK VINA RESULT:      87.3      2.762      6.619
REMARK  9 active torsions:
REMARK  status: ('A' for Active; 'I' for Inactive)
REMARK    1  A    between atoms: C_2  and  N_1 
REMARK    2  A    between atoms: C_6  and  C_2 
REMARK    3  A    between atoms: C_8  and  C_2 
REMARK    4  A    between atoms: C_10  and  N_3 
REMARK       I    between atoms: C_4  and  N_7 
REMARK    5  A    between atoms: C_5  and  C_4 
REMARK       I    between atoms: N_9  and  C_5 
REMARK    6  A    between atoms: N_7  and  C_8 
REMARK    7  A    between atoms: C_24  and  N_9 
REMARK    8  A    between atoms: C_26  and  C_24 
REMARK    9  A    between atoms: O_29  and  C_25 
ROOT
ATOM      1  C   UNL d   1     -49.400  27.643  35.009  0.00  0.00     0.106 C 
ENDROOT
BRANCH   1   2
ATOM      2  N   UNL d   1     -49.072  28.404  34.921  0.00  0.00    -0.298 N 
ATOM      3  C   UNL d   1     -49.426  28.948  34.425  0.00  0.00     0.100 A 
ATOM      4  C   UNL d   1     -49.098  29.709  34.338  0.00  0.00     0.100 A 
ATOM      5  N   UNL d   1     -48.414  29.909  34.754  0.00  0.00    -0.301 N 
ATOM      6  C   UNL d   1     -48.063  29.347  35.256  0.00  0.00     0.100 A 
ATOM      7  C   UNL d   1     -48.388  28.604  35.338  0.00  0.00     0.100 A 
BRANCH   5   8
ATOM      8  C   UNL d   1     -48.089  30.644  34.676  0.00  0.00     0.064 A 
ATOM      9  C   UNL d   1     -47.426  30.859  35.128  0.00  0.00     0.020 A 
ATOM     10  C   UNL d   1     -47.088  31.606  35.054  0.00  0.00     0.026 A 
ATOM     11  C   UNL d   1     -47.411  32.150  34.525  0.00  0.00     0.094 A 
ATOM     12  C   UNL d   1     -48.076  31.938  34.070  0.00  0.00     0.026 A 
ATOM     13  C   UNL d   1     -48.412  31.188  34.146  0.00  0.00     0.020 A 
BRANCH  11  14
ATOM     14  O   UNL d   1     -47.072  32.903  34.449  0.00  0.00    -0.328 OA
ATOM     15  C   UNL d   1     -47.241  33.368  33.788  0.00  0.00     0.181 C 
ENDBRANCH  11  14
ENDBRANCH   5   8
ENDBRANCH   1   2
BRANCH   1  16
ATOM     16  C   UNL d   1     -49.744  27.269  34.341  0.00  0.00     0.118 A 
ATOM     17  O   UNL d   1     -50.480  27.356  33.973  0.00  0.00    -0.304 OA
ATOM     18  C   UNL d   1     -50.497  26.828  33.332  0.00  0.00     0.123 A 
ATOM     19  C   UNL d   1     -49.788  26.425  33.306  0.00  0.00     0.029 A 
ATOM     20  C   UNL d   1     -49.318  26.698  33.933  0.00  0.00     0.028 A 
ENDBRANCH   1  16
BRANCH   1  21
ATOM     21  C   UNL d   1     -49.393  27.254  35.734  0.00  0.00     0.122 C 
BRANCH  21  22
ATOM     22  N   UNL d   1     -50.050  27.328  36.249  0.00  0.00    -0.201 NA
ATOM     23  C   UNL d   1     -50.001  27.062  37.027  0.00  0.00     0.337 C 
ATOM     24  O   UNL d   1     -49.312  26.723  37.302  0.00  0.00    -0.260 OA
BRANCH  23  25
ATOM     25  C   UNL d   1     -50.653  27.142  37.518  0.00  0.00     0.337 C 
ATOM     26  N   UNL d   1     -51.115  26.479  37.689  0.00  0.00    -0.200 NA
ATOM     27  O   UNL d   1     -50.851  27.867  37.839  0.00  0.00    -0.260 OA
BRANCH  26  28
ATOM     28  C   UNL d   1     -51.772  26.551  38.182  0.00  0.00     0.127 C 
BRANCH  28  29
ATOM     29  C   UNL d   1     -52.177  25.875  38.430  0.00  0.00     0.119 A 
ATOM     30  O   UNL d   1     -52.080  25.385  39.086  0.00  0.00    -0.304 OA
ATOM     31  C   UNL d   1     -52.655  24.791  39.038  0.00  0.00     0.123 A 
ATOM     32  C   UNL d   1     -53.098  24.914  38.363  0.00  0.00     0.029 A 
ATOM     33  C   UNL d   1     -52.806  25.585  37.983  0.00  0.00     0.028 A 
ENDBRANCH  28  29
ENDBRANCH  26  28
ENDBRANCH  23  25
ENDBRANCH  21  22
ENDBRANCH   1  21
TORSDOF 9
ENDMDL
MODEL 5
REMARK VINA RESULT:      87.7      3.310      5.670
REMARK  9 active torsions:
REMARK  status: ('A' for Active; 'I' for Inactive)
REMARK    1  A    between atoms: C_2  and  N_1 
REMARK    2  A    between atoms: C_6  and  C_2 
REMARK    3  A    between atoms: C_8  and  C_2 
REMARK    4  A    between atoms: C_10  and  N_3 
REMARK       I    between atoms: C_4  and  N_7 
REMARK    5  A    between atoms: C_5  and  C_4 
REMARK       I    between atoms: N_9  and  C_5 
REMARK    6  A    between atoms: N_7  and  C_8 
REMARK    7  A    between atoms: C_24  and  N_9 
REMARK    8  A    between atoms: C_26  and  C_24 
REMARK    9  A    between atoms: O_29  and  C_25 
ROOT
ATOM      1  C   UNL d   1     -49.703  27.551  35.998  0.00  0.00     0.106 C 
ENDROOT
BRANCH   1   2
ATOM      2  N   UNL d   1     -50.190  27.171  36.558  0.00  0.00    -0.298 N 
ATOM      3  C   UNL d   1     -50.033  27.247  37.356  0.00  0.00     0.100 A 
ATOM      4  C   UNL d   1     -50.520  26.868  37.916  0.00  0.00     0.100 A 
ATOM      5  N   UNL d   1     -51.161  26.416  37.659  0.00  0.00    -0.301 N 
ATOM      6  C   UNL d   1     -51.311  26.347  36.845  0.00  0.00     0.100 A 
ATOM      7  C   UNL d   1     -50.831  26.720  36.301  0.00  0.00     0.100 A 
BRANCH   5   8
ATOM      8  C   UNL d   1     -51.639  26.045  38.194  0.00  0.00     0.064 A 
ATOM      9  C   UNL d   1     -51.321  25.492  38.726  0.00  0.00     0.020 A 
ATOM     10  C   UNL d   1     -51.800  25.109  39.275  0.00  0.00     0.026 A 
ATOM     11  C   UNL d   1     -52.608  25.275  39.298  0.00  0.00     0.094 A 
ATOM     12  C   UNL d   1     -52.931  25.829  38.766  0.00  0.00     0.026 A 
ATOM     13  C   UNL d   1     -52.446  26.211  38.217  0.00  0.00     0.020 A 
BRANCH  11  14
ATOM     14  O   UNL d   1     -53.093  24.891  39.850  0.00  0.00    -0.328 OA
ATOM     15  C   UNL d   1     -52.973  24.092  40.022  0.00  0.00     0.181 C 
ENDBRANCH  11  14
ENDBRANCH   5   8
ENDBRANCH   1   2
BRANCH   1  16
ATOM     16  C   UNL d   1     -49.223  28.193  36.245  0.00  0.00     0.118 A 
ATOM     17  O   UNL d   1     -49.348  28.804  36.789  0.00  0.00    -0.304 OA
ATOM     18  C   UNL d   1     -48.662  29.273  36.793  0.00  0.00     0.123 A 
ATOM     19  C   UNL d   1     -48.128  28.958  36.264  0.00  0.00     0.029 A 
ATOM     20  C   UNL d   1     -48.474  28.286  35.922  0.00  0.00     0.028 A 
ENDBRANCH   1  16
BRANCH   1  21
ATOM     21  C   UNL d   1     -49.684  27.309  35.212  0.00  0.00     0.122 C 
BRANCH  21  22
ATOM     22  N   UNL d   1     -50.374  26.982  34.863  0.00  0.00    -0.201 NA
ATOM     23  C   UNL d   1     -50.369  26.748  34.074  0.00  0.00     0.337 C 
ATOM     24  O   UNL d   1     -49.694  26.833  33.624  0.00  0.00    -0.260 OA
BRANCH  23  25
ATOM     25  C   UNL d   1     -51.052  26.431  33.748  0.00  0.00     0.337 C 
ATOM     26  N   UNL d   1     -51.110  25.613  33.647  0.00  0.00    -0.200 NA
ATOM     27  O   UNL d   1     -51.674  26.912  33.522  0.00  0.00    -0.260 OA
BRANCH  26  28
ATOM     28  C   UNL d   1     -51.793  25.286  33.320  0.00  0.00     0.127 C 
BRANCH  28  29
ATOM     29  C   UNL d   1     -51.913  24.470  33.350  0.00  0.00     0.119 A 
ATOM     30  O   UNL d   1     -52.598  24.011  33.313  0.00  0.00    -0.304 OA
ATOM     31  C   UNL d   1     -52.368  23.218  33.371  0.00  0.00     0.123 A 
ATOM     32  C   UNL d   1     -51.555  23.189  33.442  0.00  0.00     0.029 A 
ATOM     33  C   UNL d   1     -51.268  23.961  33.429  0.00  0.00     0.028 A 
ENDBRANCH  28  29
ENDBRANCH  26  28
ENDBRANCH  23  25
ENDBRANCH  21  22
ENDBRANCH   1  21
TORSDOF 9
ENDMDL
MODEL 6
REMARK VINA RESULT:      88.3      1.718      6.607
REMARK  9 active torsions:
REMARK  status: ('A' for Active; 'I' for Inactive)
REMARK    1  A    between atoms: C_2  and  N_1 
REMARK    2  A    between atoms: C_6  and  C_2 
REMARK    3  A    between atoms: C_8  and  C_2 
REMARK    4  A    between atoms: C_10  and  N_3 
REMARK       I    between atoms: C_4  and  N_7 
REMARK    5  A    between atoms: C_5  and  C_4 
REMARK       I    between atoms: N_9  and  C_5 
REMARK    6  A    between atoms: N_7  and  C_8 
REMARK    7  A    between atoms: C_24  and  N_9 
REMARK    8  A    between atoms: C_26  and  C_24 
REMARK    9  A    between atoms: O_29  and  C_25 
ROOT
ATOM      1  C   UNL d   1     -49.216  27.708  35.774  0.00  0.00     0.106 C 
ENDROOT
BRANCH   1   2
ATOM      2  N   UNL d   1     -48.884  28.442  35.564  0.00  0.00    -0.298 N 
ATOM      3  C   UNL d   1     -48.554  28.922  36.138  0.00  0.00     0.100 A 
ATOM      4  C   UNL d   1     -48.222  29.657  35.928  0.00  0.00     0.100 A 
ATOM      5  N   UNL d   1     -48.229  29.897  35.138  0.00  0.00    -0.301 N 
ATOM      6  C   UNL d   1     -48.568  29.401  34.564  0.00  0.00     0.100 A 
ATOM      7  C   UNL d   1     -48.891  28.683  34.775  0.00  0.00     0.100 A 
BRANCH   5   8
ATOM      8  C   UNL d   1     -47.909  30.607  34.925  0.00  0.00     0.064 A 
ATOM      9  C   UNL d   1     -48.179  31.310  35.278  0.00  0.00     0.020 A 
ATOM     10  C   UNL d   1     -47.859  32.039  35.066  0.00  0.00     0.026 A 
ATOM     11  C   UNL d   1     -47.263  32.074  34.498  0.00  0.00     0.094 A 
ATOM     12  C   UNL d   1     -46.989  31.371  34.142  0.00  0.00     0.026 A 
ATOM     13  C   UNL d   1     -47.313  30.642  34.357  0.00  0.00     0.020 A 
BRANCH  11  14
ATOM     14  O   UNL d   1     -46.939  32.806  34.283  0.00  0.00    -0.328 OA
ATOM     15  C   UNL d   1     -47.373  33.330  33.816  0.00  0.00     0.181 C 
ENDBRANCH  11  14
ENDBRANCH   5   8
ENDBRANCH   1   2
BRANCH   1  16
ATOM     16  C   UNL d   1     -49.507  27.600  36.554  0.00  0.00     0.118 A 
ATOM     17  O   UNL d   1     -49.392  27.000  37.113  0.00  0.00    -0.304 OA
ATOM     18  C   UNL d   1     -49.829  27.208  37.788  0.00  0.00     0.123 A 
ATOM     19  C   UNL d   1     -50.204  27.918  37.648  0.00  0.00     0.029 A 
ATOM     20  C   UNL d   1     -50.005  28.165  36.882  0.00  0.00     0.028 A 
ENDBRANCH   1  16
BRANCH   1  21
ATOM     21  C   UNL d   1     -49.264  27.089  35.234  0.00  0.00     0.122 C 
BRANCH  21  22
ATOM     22  N   UNL d   1     -49.936  27.025  34.736  0.00  0.00    -0.201 NA
ATOM     23  C   UNL d   1     -50.098  26.319  34.344  0.00  0.00     0.337 C 
ATOM     24  O   UNL d   1     -49.606  25.676  34.437  0.00  0.00    -0.260 OA
BRANCH  23  25
ATOM     25  C   UNL d   1     -50.759  26.274  33.861  0.00  0.00     0.337 C 
ATOM     26  N   UNL d   1     -51.161  25.556  33.791  0.00  0.00    -0.200 NA
ATOM     27  O   UNL d   1     -51.025  26.929  33.450  0.00  0.00    -0.260 OA
BRANCH  26  28
ATOM     28  C   UNL d   1     -51.827  25.502  33.307  0.00  0.00     0.127 C 
BRANCH  28  29
ATOM     29  C   UNL d   1     -52.364  24.885  33.414  0.00  0.00     0.119 A 
ATOM     30  O   UNL d   1     -53.180  24.839  33.306  0.00  0.00    -0.304 OA
ATOM     31  C   UNL d   1     -53.415  24.070  33.504  0.00  0.00     0.123 A 
ATOM     32  C   UNL d   1     -52.753  23.649  33.730  0.00  0.00     0.029 A 
ATOM     33  C   UNL d   1     -52.099  24.149  33.677  0.00  0.00     0.028 A 
ENDBRANCH  28  29
ENDBRANCH  26  28
ENDBRANCH  23  25
ENDBRANCH  21  22
ENDBRANCH   1  21
TORSDOF 9
ENDMDL
