MODEL 1
REMARK VINA RESULT:      -6.6      0.000      0.000
REMARK  3 active torsions:
REMARK  status: ('A' for Active; 'I' for Inactive)
REMARK    1  A    between atoms: C_2  and  O_1 
REMARK    2  A    between atoms: C_5  and  O_1 
REMARK    3  A    between atoms: C_10  and  C_5 
ROOT
ATOM      1  O   UNL d   1     -48.326  14.286  23.179  0.00  0.00    -0.305 OA
ENDROOT
BRANCH   1   2
ATOM      2  C   UNL d   1     -47.581  13.996  22.946  0.00  0.00     0.100 A 
ATOM      3  C   UNL d   1     -46.934  14.514  22.833  0.00  0.00     0.026 A 
ATOM      4  C   UNL d   1     -46.200  14.215  22.603  0.00  0.00     0.023 A 
ATOM      5  C   UNL d   1     -46.105  13.405  22.484  0.00  0.00     0.103 A 
ATOM      6  C   UNL d   1     -46.770  12.872  22.600  0.00  0.00     0.023 A 
ATOM      7  N   UNL d   1     -45.361  13.091  22.249  0.00  0.00    -0.148 N 
ATOM      8  C   UNL d   1     -47.486  13.185  22.827  0.00  0.00     0.026 A 
ENDBRANCH   1   2
BRANCH   1   9
ATOM      9  C   UNL d   1     -48.777  14.722  22.646  0.00  0.00     0.122 C 
BRANCH   9  10
ATOM     10  C   UNL d   1     -49.546  14.965  22.884  0.00  0.00     0.025 A 
ATOM     11  C   UNL d   1     -50.217  14.609  22.533  0.00  0.00     0.002 A 
ATOM     12  C   UNL d   1     -50.975  14.841  22.761  0.00  0.00     0.000 A 
ATOM     13  C   UNL d   1     -51.064  15.443  23.351  0.00  0.00     0.000 A 
ATOM     14  C   UNL d   1     -50.400  15.783  23.686  0.00  0.00     0.000 A 
ATOM     15  C   UNL d   1     -49.642  15.550  23.458  0.00  0.00     0.002 A 
ENDBRANCH   9  10
ENDBRANCH   1   9
TORSDOF 3
ENDMDL
MODEL 2
REMARK VINA RESULT:      -6.4      1.566      1.925
REMARK  3 active torsions:
REMARK  status: ('A' for Active; 'I' for Inactive)
REMARK    1  A    between atoms: C_2  and  O_1 
REMARK    2  A    between atoms: C_5  and  O_1 
REMARK    3  A    between atoms: C_10  and  C_5 
ROOT
ATOM      1  O   UNL d   1     -48.164  13.018  23.330  0.00  0.00    -0.305 OA
ENDROOT
BRANCH   1   2
ATOM      2  C   UNL d   1     -47.394  13.160  23.047  0.00  0.00     0.100 A 
ATOM      3  C   UNL d   1     -47.134  13.938  22.877  0.00  0.00     0.026 A 
ATOM      4  C   UNL d   1     -46.369  14.066  22.597  0.00  0.00     0.023 A 
ATOM      5  C   UNL d   1     -45.859  13.427  22.485  0.00  0.00     0.103 A 
ATOM      6  C   UNL d   1     -46.126  12.629  22.660  0.00  0.00     0.023 A 
ATOM      7  N   UNL d   1     -45.077  13.549  22.201  0.00  0.00    -0.148 N 
ATOM      8  C   UNL d   1     -46.884  12.522  22.935  0.00  0.00     0.026 A 
ENDBRANCH   1   2
BRANCH   1   9
ATOM      9  C   UNL d   1     -48.784  12.937  22.795  0.00  0.00     0.122 C 
BRANCH   9  10
ATOM     10  C   UNL d   1     -49.548  12.756  23.099  0.00  0.00     0.025 A 
ATOM     11  C   UNL d   1     -50.116  13.367  23.172  0.00  0.00     0.002 A 
ATOM     12  C   UNL d   1     -50.867  13.199  23.469  0.00  0.00     0.000 A 
ATOM     13  C   UNL d   1     -51.054  12.404  23.698  0.00  0.00     0.000 A 
ATOM     14  C   UNL d   1     -50.489  11.818  23.622  0.00  0.00     0.000 A 
ATOM     15  C   UNL d   1     -49.738  11.986  23.325  0.00  0.00     0.002 A 
ENDBRANCH   9  10
ENDBRANCH   1   9
TORSDOF 3
ENDMDL
MODEL 3
REMARK VINA RESULT:      -6.4      1.764      4.018
REMARK  3 active torsions:
REMARK  status: ('A' for Active; 'I' for Inactive)
REMARK    1  A    between atoms: C_2  and  O_1 
REMARK    2  A    between atoms: C_5  and  O_1 
REMARK    3  A    between atoms: C_10  and  C_5 
ROOT
ATOM      1  O   UNL d   1     -48.249  13.974  22.694  0.00  0.00    -0.305 OA
ENDROOT
BRANCH   1   2
ATOM      2  C   UNL d   1     -48.949  14.380  22.894  0.00  0.00     0.100 A 
ATOM      3  C   UNL d   1     -48.976  15.216  22.893  0.00  0.00     0.026 A 
ATOM      4  C   UNL d   1     -49.675  15.607  23.093  0.00  0.00     0.023 A 
ATOM      5  C   UNL d   1     -50.347  15.172  23.293  0.00  0.00     0.103 A 
ATOM      6  C   UNL d   1     -50.319  14.314  23.293  0.00  0.00     0.023 A 
ATOM      7  N   UNL d   1     -51.063  15.563  23.498  0.00  0.00    -0.148 N 
ATOM      8  C   UNL d   1     -49.621  13.945  23.094  0.00  0.00     0.026 A 
ENDBRANCH   1   2
BRANCH   1   9
ATOM      9  C   UNL d   1     -47.578  14.070  23.158  0.00  0.00     0.122 C 
BRANCH   9  10
ATOM     10  C   UNL d   1     -46.900  13.606  22.976  0.00  0.00     0.025 A 
ATOM     11  C   UNL d   1     -46.827  12.840  23.306  0.00  0.00     0.002 A 
ATOM     12  C   UNL d   1     -46.167  12.377  23.133  0.00  0.00     0.000 A 
ATOM     13  C   UNL d   1     -45.567  12.686  22.620  0.00  0.00     0.000 A 
ATOM     14  C   UNL d   1     -45.652  13.436  22.305  0.00  0.00     0.000 A 
ATOM     15  C   UNL d   1     -46.312  13.899  22.478  0.00  0.00     0.002 A 
ENDBRANCH   9  10
ENDBRANCH   1   9
TORSDOF 3
ENDMDL
MODEL 4
REMARK VINA RESULT:      -6.4      1.240      1.878
REMARK  3 active torsions:
REMARK  status: ('A' for Active; 'I' for Inactive)
REMARK    1  A    between atoms: C_2  and  O_1 
REMARK    2  A    between atoms: C_5  and  O_1 
REMARK    3  A    between atoms: C_10  and  C_5 
ROOT
ATOM      1  O   UNL d   1     -48.142  13.328  23.357  0.00  0.00    -0.305 OA
ENDROOT
BRANCH   1   2
ATOM      2  C   UNL d   1     -47.594  12.706  23.436  0.00  0.00     0.100 A 
ATOM      3  C   UNL d   1     -47.849  11.930  23.619  0.00  0.00     0.026 A 
ATOM      4  C   UNL d   1     -47.297  11.321  23.695  0.00  0.00     0.023 A 
ATOM      5  C   UNL d   1     -46.494  11.478  23.590  0.00  0.00     0.103 A 
ATOM      6  C   UNL d   1     -46.233  12.275  23.402  0.00  0.00     0.023 A 
ATOM      7  N   UNL d   1     -45.925  10.864  23.665  0.00  0.00    -0.148 N 
ATOM      8  C   UNL d   1     -46.791  12.863  23.331  0.00  0.00     0.026 A 
ENDBRANCH   1   2
BRANCH   1   9
ATOM      9  C   UNL d   1     -48.443  13.513  22.615  0.00  0.00     0.122 C 
BRANCH   9  10
ATOM     10  C   UNL d   1     -49.057  14.086  22.567  0.00  0.00     0.025 A 
ATOM     11  C   UNL d   1     -48.902  14.875  22.801  0.00  0.00     0.002 A 
ATOM     12  C   UNL d   1     -49.498  15.443  22.758  0.00  0.00     0.000 A 
ATOM     13  C   UNL d   1     -50.265  15.219  22.475  0.00  0.00     0.000 A 
ATOM     14  C   UNL d   1     -50.402  14.445  22.250  0.00  0.00     0.000 A 
ATOM     15  C   UNL d   1     -49.806  13.876  22.293  0.00  0.00     0.002 A 
ENDBRANCH   9  10
ENDBRANCH   1   9
TORSDOF 3
ENDMDL
MODEL 5
REMARK VINA RESULT:      -6.0      2.433      4.054
REMARK  3 active torsions:
REMARK  status: ('A' for Active; 'I' for Inactive)
REMARK    1  A    between atoms: C_2  and  O_1 
REMARK    2  A    between atoms: C_5  and  O_1 
REMARK    3  A    between atoms: C_10  and  C_5 
ROOT
ATOM      1  O   UNL d   1     -48.051  12.663  22.628  0.00  0.00    -0.305 OA
ENDROOT
BRANCH   1   2
ATOM      2  C   UNL d   1     -48.809  12.422  22.878  0.00  0.00     0.100 A 
ATOM      3  C   UNL d   1     -49.497  12.800  22.589  0.00  0.00     0.026 A 
ATOM      4  C   UNL d   1     -50.242  12.553  22.844  0.00  0.00     0.023 A 
ATOM      5  C   UNL d   1     -50.307  11.933  23.384  0.00  0.00     0.103 A 
ATOM      6  C   UNL d   1     -49.600  11.545  23.680  0.00  0.00     0.023 A 
ATOM      7  N   UNL d   1     -51.062  11.675  23.649  0.00  0.00    -0.148 N 
ATOM      8  C   UNL d   1     -48.874  11.802  23.418  0.00  0.00     0.026 A 
ENDBRANCH   1   2
BRANCH   1   9
ATOM      9  C   UNL d   1     -47.532  12.998  23.171  0.00  0.00     0.122 C 
BRANCH   9  10
ATOM     10  C   UNL d   1     -46.797  13.291  22.886  0.00  0.00     0.025 A 
ATOM     11  C   UNL d   1     -46.257  12.765  22.524  0.00  0.00     0.002 A 
ATOM     12  C   UNL d   1     -45.533  13.044  22.242  0.00  0.00     0.000 A 
ATOM     13  C   UNL d   1     -45.346  13.866  22.324  0.00  0.00     0.000 A 
ATOM     14  C   UNL d   1     -45.884  14.370  22.680  0.00  0.00     0.000 A 
ATOM     15  C   UNL d   1     -46.607  14.090  22.962  0.00  0.00     0.002 A 
ENDBRANCH   9  10
ENDBRANCH   1   9
TORSDOF 3
ENDMDL
MODEL 6
REMARK VINA RESULT:      -5.1      8.067      9.679
REMARK  3 active torsions:
REMARK  status: ('A' for Active; 'I' for Inactive)
REMARK    1  A    between atoms: C_2  and  O_1 
REMARK    2  A    between atoms: C_5  and  O_1 
REMARK    3  A    between atoms: C_10  and  C_5 
ROOT
ATOM      1  O   UNL d   1     -40.083  14.323  18.553  0.00  0.00    -0.305 OA
ENDROOT
BRANCH   1   2
ATOM      2  C   UNL d   1     -39.609  14.164  17.887  0.00  0.00     0.100 A 
ATOM      3  C   UNL d   1     -39.595  14.687  17.234  0.00  0.00     0.026 A 
ATOM      4  C   UNL d   1     -39.121  14.519  16.580  0.00  0.00     0.023 A 
ATOM      5  C   UNL d   1     -38.661  13.835  16.570  0.00  0.00     0.103 A 
ATOM      6  C   UNL d   1     -38.675  13.297  17.240  0.00  0.00     0.023 A 
ATOM      7  N   UNL d   1     -38.176  13.655  15.907  0.00  0.00    -0.148 N 
ATOM      8  C   UNL d   1     -39.148  13.479  17.877  0.00  0.00     0.026 A 
ENDBRANCH   1   2
BRANCH   1   9
ATOM      9  C   UNL d   1     -39.803  14.827  19.139  0.00  0.00     0.122 C 
BRANCH   9  10
ATOM     10  C   UNL d   1     -40.309  14.997  19.790  0.00  0.00     0.025 A 
ATOM     11  C   UNL d   1     -40.676  15.747  19.840  0.00  0.00     0.002 A 
ATOM     12  C   UNL d   1     -41.173  15.922  20.475  0.00  0.00     0.000 A 
ATOM     13  C   UNL d   1     -41.307  15.335  21.071  0.00  0.00     0.000 A 
ATOM     14  C   UNL d   1     -40.941  14.606  21.009  0.00  0.00     0.000 A 
ATOM     15  C   UNL d   1     -40.444  14.431  20.375  0.00  0.00     0.002 A 
ENDBRANCH   9  10
ENDBRANCH   1   9
TORSDOF 3
ENDMDL
MODEL 7
REMARK VINA RESULT:      -5.0      9.115      9.822
REMARK  3 active torsions:
REMARK  status: ('A' for Active; 'I' for Inactive)
REMARK    1  A    between atoms: C_2  and  O_1 
REMARK    2  A    between atoms: C_5  and  O_1 
REMARK    3  A    between atoms: C_10  and  C_5 
ROOT
ATOM      1  O   UNL d   1     -39.953  14.229  19.806  0.00  0.00    -0.305 OA
ENDROOT
BRANCH   1   2
ATOM      2  C   UNL d   1     -40.203  14.580  19.092  0.00  0.00     0.100 A 
ATOM      3  C   UNL d   1     -40.441  15.382  19.068  0.00  0.00     0.026 A 
ATOM      4  C   UNL d   1     -40.686  15.719  18.357  0.00  0.00     0.023 A 
ATOM      5  C   UNL d   1     -40.696  15.264  17.668  0.00  0.00     0.103 A 
ATOM      6  C   UNL d   1     -40.452  14.441  17.693  0.00  0.00     0.023 A 
ATOM      7  N   UNL d   1     -40.945  15.600  16.938  0.00  0.00    -0.148 N 
ATOM      8  C   UNL d   1     -40.213  14.126  18.404  0.00  0.00     0.026 A 
ENDBRANCH   1   2
BRANCH   1   9
ATOM      9  C   UNL d   1     -39.277  14.510  20.181  0.00  0.00     0.122 C 
BRANCH   9  10
ATOM     10  C   UNL d   1     -39.002  14.097  20.861  0.00  0.00     0.025 A 
ATOM     11  C   UNL d   1     -38.283  13.671  20.820  0.00  0.00     0.002 A 
ATOM     12  C   UNL d   1     -38.006  13.264  21.482  0.00  0.00     0.000 A 
ATOM     13  C   UNL d   1     -38.456  13.283  22.199  0.00  0.00     0.000 A 
ATOM     14  C   UNL d   1     -39.157  13.704  22.225  0.00  0.00     0.000 A 
ATOM     15  C   UNL d   1     -39.435  14.111  21.563  0.00  0.00     0.002 A 
ENDBRANCH   9  10
ENDBRANCH   1   9
TORSDOF 3
ENDMDL
MODEL 8
REMARK VINA RESULT:      -5.0      8.239     10.352
REMARK  3 active torsions:
REMARK  status: ('A' for Active; 'I' for Inactive)
REMARK    1  A    between atoms: C_2  and  O_1 
REMARK    2  A    between atoms: C_5  and  O_1 
REMARK    3  A    between atoms: C_10  and  C_5 
ROOT
ATOM      1  O   UNL d   1     -39.443  14.515  18.794  0.00  0.00    -0.305 OA
ENDROOT
BRANCH   1   2
ATOM      2  C   UNL d   1     -39.965  14.869  19.338  0.00  0.00     0.100 A 
ATOM      3  C   UNL d   1     -40.365  15.580  19.149  0.00  0.00     0.026 A 
ATOM      4  C   UNL d   1     -40.880  15.922  19.696  0.00  0.00     0.023 A 
ATOM      5  C   UNL d   1     -40.999  15.563  20.429  0.00  0.00     0.103 A 
ATOM      6  C   UNL d   1     -40.587  14.834  20.623  0.00  0.00     0.023 A 
ATOM      7  N   UNL d   1     -41.521  15.905  20.993  0.00  0.00    -0.148 N 
ATOM      8  C   UNL d   1     -40.084  14.510  20.071  0.00  0.00     0.026 A 
ENDBRANCH   1   2
BRANCH   1   9
ATOM      9  C   UNL d   1     -39.734  14.226  18.081  0.00  0.00     0.122 C 
BRANCH   9  10
ATOM     10  C   UNL d   1     -39.188  13.886  17.539  0.00  0.00     0.025 A 
ATOM     11  C   UNL d   1     -39.006  14.292  16.830  0.00  0.00     0.002 A 
ATOM     12  C   UNL d   1     -38.472  13.965  16.293  0.00  0.00     0.000 A 
ATOM     13  C   UNL d   1     -38.112  13.218  16.467  0.00  0.00     0.000 A 
ATOM     14  C   UNL d   1     -38.300  12.832  17.164  0.00  0.00     0.000 A 
ATOM     15  C   UNL d   1     -38.834  13.159  17.701  0.00  0.00     0.002 A 
ENDBRANCH   9  10
ENDBRANCH   1   9
TORSDOF 3
ENDMDL
MODEL 9
REMARK VINA RESULT:      -4.9      8.953      9.475
REMARK  3 active torsions:
REMARK  status: ('A' for Active; 'I' for Inactive)
REMARK    1  A    between atoms: C_2  and  O_1 
REMARK    2  A    between atoms: C_5  and  O_1 
REMARK    3  A    between atoms: C_10  and  C_5 
ROOT
ATOM      1  O   UNL d   1     -39.631  14.786  19.644  0.00  0.00    -0.305 OA
ENDROOT
BRANCH   1   2
ATOM      2  C   UNL d   1     -39.416  14.426  20.364  0.00  0.00     0.100 A 
ATOM      3  C   UNL d   1     -39.934  14.435  21.021  0.00  0.00     0.026 A 
ATOM      4  C   UNL d   1     -39.710  14.075  21.729  0.00  0.00     0.023 A 
ATOM      5  C   UNL d   1     -38.975  13.707  21.788  0.00  0.00     0.103 A 
ATOM      6  C   UNL d   1     -38.443  13.697  21.114  0.00  0.00     0.023 A 
ATOM      7  N   UNL d   1     -38.738  13.337  22.506  0.00  0.00    -0.148 N 
ATOM      8  C   UNL d   1     -38.680  14.057  20.424  0.00  0.00     0.026 A 
ENDBRANCH   1   2
BRANCH   1   9
ATOM      9  C   UNL d   1     -40.225  14.451  19.185  0.00  0.00     0.122 C 
BRANCH   9  10
ATOM     10  C   UNL d   1     -40.391  14.799  18.437  0.00  0.00     0.025 A 
ATOM     11  C   UNL d   1     -40.179  14.391  17.737  0.00  0.00     0.002 A 
ATOM     12  C   UNL d   1     -40.338  14.725  17.000  0.00  0.00     0.000 A 
ATOM     13  C   UNL d   1     -40.716  15.482  16.961  0.00  0.00     0.000 A 
ATOM     14  C   UNL d   1     -40.918  15.869  17.652  0.00  0.00     0.000 A 
ATOM     15  C   UNL d   1     -40.759  15.535  18.390  0.00  0.00     0.002 A 
ENDBRANCH   9  10
ENDBRANCH   1   9
TORSDOF 3
ENDMDL
