MODEL 1
REMARK VINA RESULT:      -4.9      0.000      0.000
REMARK  4 active torsions:
REMARK  status: ('A' for Active; 'I' for Inactive)
REMARK    1  A    between atoms: C_5  and  C_3 
REMARK    2  A    between atoms: C_8  and  C_5 
REMARK    3  A    between atoms: C_7  and  C_9 
REMARK    4  A    between atoms: C_9  and  C_8 
ROOT
ATOM      1  C   UNL d   1     -41.469-122.756 -51.770  0.00  0.00     0.042 C 
ENDROOT
BRANCH   1   2
ATOM      2  C   UNL d   1     -41.416-122.337 -52.475  0.00  0.00     0.006 C 
BRANCH   2   3
ATOM      3  C   UNL d   1     -41.371-122.749 -53.197  0.00  0.00     0.039 A 
ATOM      4  C   UNL d   1     -41.124-123.525 -53.384  0.00  0.00     0.122 A 
ATOM      5  N   UNL d   1     -41.201-123.619 -54.188  0.00  0.00    -0.164 NA
ATOM      6  N   UNL d   1     -41.490-122.924 -54.518  0.00  0.00    -0.227 N 
ATOM      7  C   UNL d   1     -41.596-122.380 -53.895  0.00  0.00     0.085 A 
ATOM      8  C   UNL d   1     -41.665-122.731 -55.301  0.00  0.00     0.121 C 
ATOM      9  C   UNL d   1     -41.867-121.601 -53.877  0.00  0.00     0.021 C 
ENDBRANCH   2   3
ENDBRANCH   1   2
BRANCH   1  10
ATOM     10  C   UNL d   1     -41.552-122.342 -51.056  0.00  0.00     0.199 C 
ATOM     11  O   UNL d   1     -41.469-121.511 -51.039  0.00  0.00    -0.286 OA
BRANCH  10  12
ATOM     12  C   UNL d   1     -41.720-122.755 -50.350  0.00  0.00     0.078 A 
ATOM     13  C   UNL d   1     -42.471-122.720 -50.017  0.00  0.00     0.199 A 
ATOM     14  O   UNL d   1     -43.056-122.276 -50.382  0.00  0.00    -0.286 OA
ATOM     15  C   UNL d   1     -42.625-123.132 -49.319  0.00  0.00     0.042 A 
ATOM     16  C   UNL d   1     -42.029-123.579 -48.954  0.00  0.00     0.003 A 
ATOM     17  C   UNL d   1     -41.289-123.610 -49.287  0.00  0.00     0.000 A 
ATOM     18  C   UNL d   1     -41.125-123.202 -49.985  0.00  0.00     0.006 A 
ENDBRANCH  10  12
ENDBRANCH   1  10
TORSDOF 4
ENDMDL
MODEL 2
REMARK VINA RESULT:      -4.6      1.748      4.054
REMARK  4 active torsions:
REMARK  status: ('A' for Active; 'I' for Inactive)
REMARK    1  A    between atoms: C_5  and  C_3 
REMARK    2  A    between atoms: C_8  and  C_5 
REMARK    3  A    between atoms: C_7  and  C_9 
REMARK    4  A    between atoms: C_9  and  C_8 
ROOT
ATOM      1  C   UNL d   1     -41.454-122.568 -52.447  0.00  0.00     0.042 C 
ENDROOT
BRANCH   1   2
ATOM      2  C   UNL d   1     -41.595-122.298 -51.684  0.00  0.00     0.006 C 
BRANCH   2   3
ATOM      3  C   UNL d   1     -41.543-122.828 -51.043  0.00  0.00     0.039 A 
ATOM      4  C   UNL d   1     -41.123-123.542 -50.941  0.00  0.00     0.122 A 
ATOM      5  N   UNL d   1     -41.288-123.817 -50.193  0.00  0.00    -0.164 NA
ATOM      6  N   UNL d   1     -41.802-123.299 -49.817  0.00  0.00    -0.227 N 
ATOM      7  C   UNL d   1     -41.961-122.679 -50.353  0.00  0.00     0.085 A 
ATOM      8  C   UNL d   1     -42.136-123.321 -49.064  0.00  0.00     0.121 C 
ATOM      9  C   UNL d   1     -42.431-122.003 -50.296  0.00  0.00     0.021 C 
ENDBRANCH   2   3
ENDBRANCH   1   2
BRANCH   1  10
ATOM     10  C   UNL d   1     -41.500-122.035 -53.081  0.00  0.00     0.199 C 
ATOM     11  O   UNL d   1     -41.449-121.213 -52.945  0.00  0.00    -0.286 OA
BRANCH  10  12
ATOM     12  C   UNL d   1     -41.598-122.319 -53.860  0.00  0.00     0.078 A 
ATOM     13  C   UNL d   1     -42.159-121.983 -54.358  0.00  0.00     0.199 A 
ATOM     14  O   UNL d   1     -42.624-121.364 -54.085  0.00  0.00    -0.286 OA
ATOM     15  C   UNL d   1     -42.247-122.272 -55.125  0.00  0.00     0.042 A 
ATOM     16  C   UNL d   1     -41.774-122.898 -55.396  0.00  0.00     0.003 A 
ATOM     17  C   UNL d   1     -41.221-123.227 -54.900  0.00  0.00     0.000 A 
ATOM     18  C   UNL d   1     -41.126-122.945 -54.131  0.00  0.00     0.006 A 
ENDBRANCH  10  12
ENDBRANCH   1  10
TORSDOF 4
ENDMDL
MODEL 3
REMARK VINA RESULT:      -3.4      2.224      4.275
REMARK  4 active torsions:
REMARK  status: ('A' for Active; 'I' for Inactive)
REMARK    1  A    between atoms: C_5  and  C_3 
REMARK    2  A    between atoms: C_8  and  C_5 
REMARK    3  A    between atoms: C_7  and  C_9 
REMARK    4  A    between atoms: C_9  and  C_8 
ROOT
ATOM      1  C   UNL d   1     -41.611-122.724 -50.668  0.00  0.00     0.042 C 
ENDROOT
BRANCH   1   2
ATOM      2  C   UNL d   1     -42.138-122.917 -50.066  0.00  0.00     0.006 C 
BRANCH   2   3
ATOM      3  C   UNL d   1     -41.855-123.021 -49.289  0.00  0.00     0.039 A 
ATOM      4  C   UNL d   1     -41.123-122.841 -48.932  0.00  0.00     0.122 A 
ATOM      5  N   UNL d   1     -41.169-123.071 -48.152  0.00  0.00    -0.164 NA
ATOM      6  N   UNL d   1     -41.910-123.393 -48.005  0.00  0.00    -0.227 N 
ATOM      7  C   UNL d   1     -42.339-123.361 -48.720  0.00  0.00     0.085 A 
ATOM      8  C   UNL d   1     -42.234-123.705 -47.314  0.00  0.00     0.121 C 
ATOM      9  C   UNL d   1     -43.104-123.597 -48.919  0.00  0.00     0.021 C 
ENDBRANCH   2   3
ENDBRANCH   1   2
BRANCH   1  10
ATOM     10  C   UNL d   1     -41.902-122.400 -51.373  0.00  0.00     0.199 C 
ATOM     11  O   UNL d   1     -42.452-121.771 -51.352  0.00  0.00    -0.286 OA
BRANCH  10  12
ATOM     12  C   UNL d   1     -41.646-122.700 -52.108  0.00  0.00     0.078 A 
ATOM     13  C   UNL d   1     -41.375-122.190 -52.695  0.00  0.00     0.199 A 
ATOM     14  O   UNL d   1     -41.358-121.383 -52.552  0.00  0.00    -0.286 OA
ATOM     15  C   UNL d   1     -41.125-122.499 -53.417  0.00  0.00     0.042 A 
ATOM     16  C   UNL d   1     -41.144-123.317 -53.556  0.00  0.00     0.003 A 
ATOM     17  C   UNL d   1     -41.413-123.816 -52.973  0.00  0.00     0.000 A 
ATOM     18  C   UNL d   1     -41.666-123.517 -52.247  0.00  0.00     0.006 A 
ENDBRANCH  10  12
ENDBRANCH   1  10
TORSDOF 4
ENDMDL
