MODEL 1
REMARK VINA RESULT:       0.3      0.000      0.000
REMARK  4 active torsions:
REMARK  status: ('A' for Active; 'I' for Inactive)
REMARK    1  A    between atoms: C_11  and  C_4 
REMARK    2  A    between atoms: N_10  and  C_5 
REMARK    3  A    between atoms: C_15  and  N_10 
REMARK    4  A    between atoms: C_16  and  C_15 
ROOT
ATOM      1  N   UNL d   1      32.978  20.250 -23.168  0.00  0.00    -0.195 N 
ATOM      2  C   UNL d   1      32.785  19.542 -22.801  0.00  0.00     0.167 A 
ATOM      3  N   UNL d   1      33.072  20.095 -23.965  0.00  0.00    -0.163 NA
ATOM      4  C   UNL d   1      32.762  18.956 -23.373  0.00  0.00     0.055 A 
ATOM      5  C   UNL d   1      33.040  20.936 -22.722  0.00  0.00     0.167 A 
ATOM      6  C   UNL d   1      32.936  19.292 -24.082  0.00  0.00     0.104 A 
ATOM      7  N   UNL d   1      32.655  19.519 -21.986  0.00  0.00    -0.227 NA
ATOM      8  C   UNL d   1      32.908  20.917 -21.901  0.00  0.00     0.058 A 
ATOM      9  C   UNL d   1      32.718  20.217 -21.537  0.00  0.00     0.086 A 
ATOM     10  C   UNL d   1      32.972  18.891 -24.806  0.00  0.00     0.023 C 
ATOM     11  C   UNL d   1      32.587  20.202 -20.707  0.00  0.00     0.021 C 
ENDROOT
BRANCH   5  12
ATOM     12  N   UNL d   1      33.234  21.652 -23.094  0.00  0.00    -0.224 NA
BRANCH  12  13
ATOM     13  C   UNL d   1      32.705  22.279 -23.074  0.00  0.00     0.120 C 
BRANCH  13  14
ATOM     14  C   UNL d   1      32.603  22.753 -23.745  0.00  0.00     0.101 A 
ATOM     15  N   UNL d   1      33.238  22.876 -24.269  0.00  0.00    -0.242 NA
ATOM     16  C   UNL d   1      33.137  23.348 -24.937  0.00  0.00     0.099 A 
ATOM     17  C   UNL d   1      32.399  23.700 -25.084  0.00  0.00     0.021 A 
ATOM     18  C   UNL d   1      31.771  23.578 -24.567  0.00  0.00     0.003 A 
ATOM     19  C   UNL d   1      31.873  23.106 -23.899  0.00  0.00     0.021 A 
ENDBRANCH  13  14
ENDBRANCH  12  13
ENDBRANCH   5  12
BRANCH   4  20
ATOM     20  C   UNL d   1      32.600  18.141 -23.328  0.00  0.00     0.004 A 
ATOM     21  C   UNL d   1      31.839  17.859 -23.473  0.00  0.00     0.001 A 
ATOM     22  C   UNL d   1      31.674  17.053 -23.429  0.00  0.00     0.011 A 
ATOM     23  C   UNL d   1      32.281  16.526 -23.238  0.00  0.00     0.058 A 
ATOM     24  C   UNL d   1      33.047  16.809 -23.092  0.00  0.00     0.011 A 
ATOM     25 CL   UNL d   1      32.111  15.704 -23.194  0.00  0.00    -0.082 Cl
ATOM     26  C   UNL d   1      33.207  17.615 -23.136  0.00  0.00     0.001 A 
ENDBRANCH   4  20
TORSDOF 4
ENDMDL
