MODEL 1
REMARK VINA RESULT:      -1.8      0.000      0.000
REMARK  4 active torsions:
REMARK  status: ('A' for Active; 'I' for Inactive)
REMARK    1  A    between atoms: C_5  and  N_1 
REMARK    2  A    between atoms: C_7  and  C_5 
REMARK    3  A    between atoms: O_11  and  C_8 
REMARK    4  A    between atoms: C_16  and  O_11 
ROOT
ATOM      1  N   UNL d   1      30.973  16.572 -24.565  0.00  0.00    -0.251 N 
ATOM      2  C   UNL d   1      31.112  15.799 -24.854  0.00  0.00     0.378 A 
ATOM      3  C   UNL d   1      30.173  16.642 -24.391  0.00  0.00     0.092 A 
ATOM      4  O   UNL d   1      30.362  15.459 -24.829  0.00  0.00    -0.258 OA
ATOM      5  C   UNL d   1      29.807  15.917 -24.569  0.00  0.00     0.121 A 
ATOM      6  O   UNL d   1      31.844  15.491 -25.097  0.00  0.00    -0.237 OA
ATOM      7  C   UNL d   1      29.727  17.267 -24.094  0.00  0.00     0.020 A 
ATOM      8  C   UNL d   1      28.987  15.823 -24.446  0.00  0.00     0.026 A 
ATOM      9  C   UNL d   1      28.907  17.171 -23.972  0.00  0.00     0.002 A 
ATOM     10  C   UNL d   1      28.532  16.452 -24.146  0.00  0.00     0.002 A 
ATOM     11  C   UNL d   1      28.457  17.813 -23.669  0.00  0.00     0.000 C 
ENDROOT
BRANCH   1  12
ATOM     12  C   UNL d   1      31.546  17.151 -24.476  0.00  0.00     0.087 C 
BRANCH  12  13
ATOM     13  C   UNL d   1      32.112  17.092 -23.878  0.00  0.00     0.041 A 
ATOM     14  C   UNL d   1      32.457  17.777 -23.579  0.00  0.00     0.101 A 
ATOM     15  C   UNL d   1      33.021  17.714 -22.981  0.00  0.00     0.025 A 
ATOM     16  C   UNL d   1      33.240  16.977 -22.685  0.00  0.00     0.002 A 
ATOM     17  C   UNL d   1      32.888  16.289 -22.992  0.00  0.00     0.000 A 
ATOM     18  C   UNL d   1      32.324  16.352 -23.589  0.00  0.00     0.004 A 
BRANCH  14  19
ATOM     19  O   UNL d   1      32.219  18.497 -23.894  0.00  0.00    -0.307 OA
BRANCH  19  20
ATOM     20  C   UNL d   1      32.647  19.190 -23.717  0.00  0.00     0.100 C 
ATOM     21  C   UNL d   1      33.241  19.450 -24.230  0.00  0.00     0.027 C 
ATOM     22  C   UNL d   1      32.478  19.614 -23.030  0.00  0.00     0.027 C 
ENDBRANCH  19  20
ENDBRANCH  14  19
ENDBRANCH  12  13
ENDBRANCH   1  12
TORSDOF 4
ENDMDL
MODEL 2
REMARK VINA RESULT:      -1.8      1.794      4.318
REMARK  4 active torsions:
REMARK  status: ('A' for Active; 'I' for Inactive)
REMARK    1  A    between atoms: C_5  and  N_1 
REMARK    2  A    between atoms: C_7  and  C_5 
REMARK    3  A    between atoms: O_11  and  C_8 
REMARK    4  A    between atoms: C_16  and  O_11 
ROOT
ATOM      1  N   UNL d   1      33.132  19.223 -23.443  0.00  0.00    -0.251 N 
ATOM      2  C   UNL d   1      33.131  19.720 -24.115  0.00  0.00     0.378 A 
ATOM      3  C   UNL d   1      33.167  19.696 -22.770  0.00  0.00     0.092 A 
ATOM      4  O   UNL d   1      33.166  20.474 -23.782  0.00  0.00    -0.258 OA
ATOM      5  C   UNL d   1      33.187  20.489 -23.017  0.00  0.00     0.121 A 
ATOM      6  O   UNL d   1      33.101  19.473 -24.907  0.00  0.00    -0.237 OA
ATOM      7  C   UNL d   1      33.182  19.513 -21.969  0.00  0.00     0.020 A 
ATOM      8  C   UNL d   1      33.224  21.101 -22.451  0.00  0.00     0.026 A 
ATOM      9  C   UNL d   1      33.219  20.125 -21.403  0.00  0.00     0.002 A 
ATOM     10  C   UNL d   1      33.240  20.921 -21.638  0.00  0.00     0.002 A 
ATOM     11  C   UNL d   1      33.235  19.932 -20.585  0.00  0.00     0.000 C 
ENDROOT
BRANCH   1  12
ATOM     12  C   UNL d   1      33.103  18.404 -23.463  0.00  0.00     0.087 C 
BRANCH  12  13
ATOM     13  C   UNL d   1      32.418  18.015 -23.710  0.00  0.00     0.041 A 
ATOM     14  C   UNL d   1      32.433  17.199 -23.818  0.00  0.00     0.101 A 
ATOM     15  C   UNL d   1      31.747  16.814 -24.065  0.00  0.00     0.025 A 
ATOM     16  C   UNL d   1      31.053  17.238 -24.201  0.00  0.00     0.002 A 
ATOM     17  C   UNL d   1      31.045  18.061 -24.089  0.00  0.00     0.000 A 
ATOM     18  C   UNL d   1      31.730  18.446 -23.843  0.00  0.00     0.004 A 
BRANCH  14  19
ATOM     19  O   UNL d   1      33.139  16.804 -23.675  0.00  0.00    -0.307 OA
BRANCH  19  20
ATOM     20  C   UNL d   1      33.137  15.980 -23.556  0.00  0.00     0.100 C 
ATOM     21  C   UNL d   1      33.030  15.672 -22.796  0.00  0.00     0.027 C 
ATOM     22  C   UNL d   1      33.241  15.471 -24.198  0.00  0.00     0.027 C 
ENDBRANCH  19  20
ENDBRANCH  14  19
ENDBRANCH  12  13
ENDBRANCH   1  12
TORSDOF 4
ENDMDL
MODEL 3
REMARK VINA RESULT:       0.3      1.303      2.385
REMARK  4 active torsions:
REMARK  status: ('A' for Active; 'I' for Inactive)
REMARK    1  A    between atoms: C_5  and  N_1 
REMARK    2  A    between atoms: C_7  and  C_5 
REMARK    3  A    between atoms: O_11  and  C_8 
REMARK    4  A    between atoms: C_16  and  O_11 
ROOT
ATOM      1  N   UNL d   1      29.856  17.546 -24.338  0.00  0.00    -0.251 N 
ATOM      2  C   UNL d   1      29.542  18.256 -24.647  0.00  0.00     0.378 A 
ATOM      3  C   UNL d   1      29.258  17.154 -23.931  0.00  0.00     0.092 A 
ATOM      4  O   UNL d   1      28.758  18.233 -24.393  0.00  0.00    -0.258 OA
ATOM      5  C   UNL d   1      28.569  17.616 -23.983  0.00  0.00     0.121 A 
ATOM      6  O   UNL d   1      29.955  18.820 -25.096  0.00  0.00    -0.237 OA
ATOM      7  C   UNL d   1      29.247  16.442 -23.521  0.00  0.00     0.020 A 
ATOM      8  C   UNL d   1      27.865  17.356 -23.618  0.00  0.00     0.026 A 
ATOM      9  C   UNL d   1      28.542  16.182 -23.156  0.00  0.00     0.002 A 
ATOM     10  C   UNL d   1      27.848  16.635 -23.201  0.00  0.00     0.002 A 
ATOM     11  C   UNL d   1      28.537  15.453 -22.739  0.00  0.00     0.000 C 
ENDROOT
BRANCH   1  12
ATOM     12  C   UNL d   1      30.630  17.293 -24.433  0.00  0.00     0.087 C 
BRANCH  12  13
ATOM     13  C   UNL d   1      31.242  17.655 -24.015  0.00  0.00     0.041 A 
ATOM     14  C   UNL d   1      31.872  17.200 -23.743  0.00  0.00     0.101 A 
ATOM     15  C   UNL d   1      32.482  17.565 -23.326  0.00  0.00     0.025 A 
ATOM     16  C   UNL d   1      32.465  18.376 -23.181  0.00  0.00     0.002 A 
ATOM     17  C   UNL d   1      31.827  18.831 -23.458  0.00  0.00     0.000 A 
ATOM     18  C   UNL d   1      31.217  18.465 -23.875  0.00  0.00     0.004 A 
BRANCH  14  19
ATOM     19  O   UNL d   1      31.861  16.394 -23.902  0.00  0.00    -0.307 OA
BRANCH  19  20
ATOM     20  C   UNL d   1      32.529  15.927 -23.730  0.00  0.00     0.100 C 
ATOM     21  C   UNL d   1      32.538  15.453 -23.052  0.00  0.00     0.027 C 
ATOM     22  C   UNL d   1      33.182  15.940 -24.236  0.00  0.00     0.027 C 
ENDBRANCH  19  20
ENDBRANCH  14  19
ENDBRANCH  12  13
ENDBRANCH   1  12
TORSDOF 4
ENDMDL
