MODEL 1
REMARK VINA RESULT:       3.4      0.000      0.000
REMARK  7 active torsions:
REMARK  status: ('A' for Active; 'I' for Inactive)
REMARK    1  A    between atoms: C_10  and  N_2 
REMARK    2  A    between atoms: S_11  and  C_5 
REMARK    3  A    between atoms: C_12  and  C_10 
REMARK    4  A    between atoms: C_22  and  S_11 
REMARK    5  A    between atoms: C_14  and  C_22 
REMARK       I    between atoms: N_16  and  C_14 
REMARK    6  A    between atoms: C_23  and  N_16 
REMARK    7  A    between atoms: C_24  and  C_23 
ROOT
ATOM      1  C   UNL d   1      60.013  -1.202  30.138  0.00  0.00     0.104 A 
ATOM      2  N   UNL d   1      59.503  -0.048  30.797  0.00  0.00    -0.250 N 
ATOM      3  C   UNL d   1      59.236  -1.459  29.985  0.00  0.00     0.095 A 
ATOM      4  C   UNL d   1      60.141  -0.496  30.544  0.00  0.00     0.274 A 
ATOM      5  C   UNL d   1      58.725  -0.305  30.644  0.00  0.00     0.182 A 
ATOM      6  N   UNL d   1      58.595  -1.007  30.240  0.00  0.00    -0.222 NA
ATOM      7  S   UNL d   1      60.534  -1.771  29.814  0.00  0.00    -0.081 SA
ATOM      8  C   UNL d   1      59.289  -2.182  29.570  0.00  0.00     0.024 A 
ATOM      9  C   UNL d   1      60.079  -2.372  29.466  0.00  0.00     0.031 A 
ATOM     10  O   UNL d   1      60.925  -0.237  30.698  0.00  0.00    -0.266 OA
ATOM     11  C   UNL d   1      58.704  -2.686  29.277  0.00  0.00     0.002 A 
ATOM     12  C   UNL d   1      60.306  -3.063  29.071  0.00  0.00     0.006 A 
ATOM     13  C   UNL d   1      58.911  -3.381  28.879  0.00  0.00     0.000 A 
ATOM     14  C   UNL d   1      59.717  -3.568  28.777  0.00  0.00     0.001 A 
ENDROOT
BRANCH   5  15
ATOM     15  S   UNL d   1      58.074   0.150  30.902  0.00  0.00    -0.044 SA
BRANCH  15  16
ATOM     16  C   UNL d   1      57.363  -0.231  31.127  0.00  0.00     0.101 C 
BRANCH  16  17
ATOM     17  C   UNL d   1      56.734   0.213  31.413  0.00  0.00     0.286 C 
ATOM     18  N   UNL d   1      56.584   0.230  32.225  0.00  0.00    -0.204 NA
ATOM     19  O   UNL d   1      56.256   0.637  30.891  0.00  0.00    -0.265 OA
BRANCH  18  20
ATOM     20  C   UNL d   1      55.952   0.676  32.512  0.00  0.00     0.127 C 
BRANCH  20  21
ATOM     21  C   UNL d   1      55.675   0.547  33.276  0.00  0.00     0.119 A 
ATOM     22  O   UNL d   1      55.996   0.434  34.028  0.00  0.00    -0.304 OA
ATOM     23  C   UNL d   1      55.378   0.334  34.560  0.00  0.00     0.123 A 
ATOM     24  C   UNL d   1      54.670   0.385  34.137  0.00  0.00     0.029 A 
ATOM     25  C   UNL d   1      54.860   0.516  33.349  0.00  0.00     0.028 A 
ENDBRANCH  20  21
ENDBRANCH  18  20
ENDBRANCH  16  17
ENDBRANCH  15  16
ENDBRANCH   5  15
BRANCH   2  26
ATOM     26  C   UNL d   1      59.628   0.664  31.207  0.00  0.00     0.110 C 
BRANCH  26  27
ATOM     27  C   UNL d   1      60.043   0.665  31.926  0.00  0.00     0.118 A 
ATOM     28  O   UNL d   1      60.852   0.650  31.998  0.00  0.00    -0.304 OA
ATOM     29  C   UNL d   1      61.030   0.657  32.783  0.00  0.00     0.123 A 
ATOM     30  C   UNL d   1      60.341   0.676  33.198  0.00  0.00     0.029 A 
ATOM     31  C   UNL d   1      59.737   0.681  32.666  0.00  0.00     0.028 A 
ENDBRANCH  26  27
ENDBRANCH   2  26
TORSDOF 7
ENDMDL
