MODEL 1
REMARK VINA RESULT:      23.9      0.000      0.000
REMARK  2 active torsions:
REMARK  status: ('A' for Active; 'I' for Inactive)
REMARK    1  A    between atoms: N_3  and  C_1 
REMARK       I    between atoms: C_6  and  N_3 
REMARK    2  A    between atoms: C_8  and  C_6 
ROOT
ATOM      1  N   UNL d   1      13.091  11.779  -3.869  0.00  0.00    -0.183 NA
ATOM      2  C   UNL d   1      13.076  12.494  -4.322  0.00  0.00     0.281 C 
ATOM      3  O   UNL d   1      12.797  12.484  -5.093  0.00  0.00    -0.265 OA
ENDROOT
BRANCH   1   4
ATOM      4  C   UNL d   1      13.369  11.789  -3.101  0.00  0.00     0.197 A 
ATOM      5  N   UNL d   1      14.153  11.800  -2.874  0.00  0.00    -0.221 NA
ATOM      6  C   UNL d   1      14.184  11.808  -2.064  0.00  0.00     0.090 A 
ATOM      7  C   UNL d   1      14.814  11.820  -1.532  0.00  0.00     0.020 A 
ATOM      8  C   UNL d   1      13.407  11.802  -1.782  0.00  0.00     0.050 A 
ATOM      9  C   UNL d   1      14.672  11.826  -0.719  0.00  0.00     0.002 A 
ATOM     10  C   UNL d   1      13.895  11.820  -0.437  0.00  0.00     0.001 A 
ATOM     11  C   UNL d   1      13.268  11.808  -0.972  0.00  0.00     0.008 A 
ATOM     12  S   UNL d   1      12.913  11.791  -2.424  0.00  0.00    -0.047 SA
ENDBRANCH   1   4
BRANCH   2  13
ATOM     13  C   UNL d   1      13.339  13.183  -3.990  0.00  0.00     0.058 A 
ATOM     14  C   UNL d   1      12.932  13.887  -4.133  0.00  0.00     0.005 A 
ATOM     15  C   UNL d   1      13.192  14.595  -3.798  0.00  0.00     0.000 A 
ATOM     16  C   UNL d   1      12.794  15.288  -3.938  0.00  0.00     0.000 C 
ATOM     17  C   UNL d   1      13.866  14.599  -3.316  0.00  0.00     0.000 A 
ATOM     18  C   UNL d   1      14.271  13.881  -3.178  0.00  0.00     0.000 A 
ATOM     19  C   UNL d   1      14.012  13.188  -3.508  0.00  0.00     0.005 A 
ENDBRANCH   2  13
TORSDOF 2
ENDMDL
