MODEL 1
REMARK VINA RESULT:      -7.7      0.000      0.000
REMARK  1 active torsions:
REMARK  status: ('A' for Active; 'I' for Inactive)
REMARK    1  A    between atoms: C_2  and  N_1 
ROOT
ATOM      1  C   UNL d   1     -48.157  12.963  23.023  0.00  0.00     0.129 A 
ATOM      2  C   UNL d   1     -47.551  12.450  23.248  0.00  0.00     0.043 A 
ATOM      3  C   UNL d   1     -46.765  12.714  23.251  0.00  0.00     0.123 A 
ATOM      4  C   UNL d   1     -46.593  13.490  23.029  0.00  0.00     0.224 A 
ATOM      5  C   UNL d   1     -47.981  13.731  22.804  0.00  0.00     0.038 A 
ATOM      6  C   UNL d   1     -47.195  13.996  22.807  0.00  0.00     0.100 A 
ATOM      7  N   UNL d   1     -46.162  12.205  23.475  0.00  0.00    -0.241 NA
ATOM      8  O   UNL d   1     -45.815  13.752  23.032  0.00  0.00    -0.284 OA
ATOM      9 CL   UNL d   1     -47.022  14.767  22.587  0.00  0.00    -0.079 Cl
ATOM     10  C   UNL d   1     -47.726  11.678  23.469  0.00  0.00     0.005 A 
ATOM     11  C   UNL d   1     -46.333  11.425  23.698  0.00  0.00     0.099 A 
ATOM     12  C   UNL d   1     -47.119  11.161  23.695  0.00  0.00     0.021 A 
ENDROOT
BRANCH   1  13
ATOM     13  N   UNL d   1     -48.934  12.702  23.020  0.00  0.00    -0.114 N 
ATOM     14  O   UNL d   1     -49.258  12.371  22.339  0.00  0.00    -0.532 OA
ATOM     15  O   UNL d   1     -49.393  12.768  23.698  0.00  0.00    -0.532 OA
ENDBRANCH   1  13
TORSDOF 1
ENDMDL
MODEL 2
REMARK VINA RESULT:      -7.6      1.290      2.106
REMARK  1 active torsions:
REMARK  status: ('A' for Active; 'I' for Inactive)
REMARK    1  A    between atoms: C_2  and  N_1 
ROOT
ATOM      1  C   UNL d   1     -48.111  11.959  23.130  0.00  0.00     0.129 A 
ATOM      2  C   UNL d   1     -47.966  12.765  23.023  0.00  0.00     0.043 A 
ATOM      3  C   UNL d   1     -47.200  13.064  23.130  0.00  0.00     0.123 A 
ATOM      4  C   UNL d   1     -46.587  12.554  23.343  0.00  0.00     0.224 A 
ATOM      5  C   UNL d   1     -47.500  11.458  23.341  0.00  0.00     0.038 A 
ATOM      6  C   UNL d   1     -46.734  11.757  23.448  0.00  0.00     0.100 A 
ATOM      7  N   UNL d   1     -47.054  13.865  23.025  0.00  0.00    -0.241 NA
ATOM      8  O   UNL d   1     -45.829  12.851  23.450  0.00  0.00    -0.284 OA
ATOM      9 CL   UNL d   1     -46.123  11.252  23.660  0.00  0.00    -0.079 Cl
ATOM     10  C   UNL d   1     -48.578  13.269  22.811  0.00  0.00     0.005 A 
ATOM     11  C   UNL d   1     -47.668  14.378  22.811  0.00  0.00     0.099 A 
ATOM     12  C   UNL d   1     -48.434  14.079  22.704  0.00  0.00     0.021 A 
ENDROOT
BRANCH   1  13
ATOM     13  N   UNL d   1     -48.868  11.663  23.023  0.00  0.00    -0.114 N 
ATOM     14  O   UNL d   1     -49.381  11.595  23.664  0.00  0.00    -0.532 OA
ATOM     15  O   UNL d   1     -49.118  11.433  22.276  0.00  0.00    -0.532 OA
ENDBRANCH   1  13
TORSDOF 1
ENDMDL
MODEL 3
REMARK VINA RESULT:      -7.5      1.253      2.990
REMARK  1 active torsions:
REMARK  status: ('A' for Active; 'I' for Inactive)
REMARK    1  A    between atoms: C_2  and  N_1 
ROOT
ATOM      1  C   UNL d   1     -46.991  13.088  23.105  0.00  0.00     0.129 A 
ATOM      2  C   UNL d   1     -47.631  13.577  22.922  0.00  0.00     0.043 A 
ATOM      3  C   UNL d   1     -48.404  13.284  22.977  0.00  0.00     0.123 A 
ATOM      4  C   UNL d   1     -48.530  12.504  23.215  0.00  0.00     0.224 A 
ATOM      5  C   UNL d   1     -47.122  12.316  23.340  0.00  0.00     0.038 A 
ATOM      6  C   UNL d   1     -47.895  12.022  23.395  0.00  0.00     0.100 A 
ATOM      7  N   UNL d   1     -49.041  13.769  22.796  0.00  0.00    -0.241 NA
ATOM      8  O   UNL d   1     -49.296  12.213  23.270  0.00  0.00    -0.284 OA
ATOM      9 CL   UNL d   1     -48.023  11.247  23.631  0.00  0.00    -0.079 Cl
ATOM     10  C   UNL d   1     -47.502  14.353  22.686  0.00  0.00     0.005 A 
ATOM     11  C   UNL d   1     -48.916  14.552  22.557  0.00  0.00     0.099 A 
ATOM     12  C   UNL d   1     -48.143  14.846  22.502  0.00  0.00     0.021 A 
ENDROOT
BRANCH   1  13
ATOM     13  N   UNL d   1     -46.226  13.378  23.050  0.00  0.00    -0.114 N 
ATOM     14  O   UNL d   1     -45.803  13.303  22.348  0.00  0.00    -0.532 OA
ATOM     15  O   UNL d   1     -45.879  13.747  23.696  0.00  0.00    -0.532 OA
ENDBRANCH   1  13
TORSDOF 1
ENDMDL
MODEL 4
REMARK VINA RESULT:      -7.2      1.647      2.088
REMARK  1 active torsions:
REMARK  status: ('A' for Active; 'I' for Inactive)
REMARK    1  A    between atoms: C_2  and  N_1 
ROOT
ATOM      1  C   UNL d   1     -48.568  12.283  22.969  0.00  0.00     0.129 A 
ATOM      2  C   UNL d   1     -47.899  12.767  22.964  0.00  0.00     0.043 A 
ATOM      3  C   UNL d   1     -47.986  13.591  22.951  0.00  0.00     0.123 A 
ATOM      4  C   UNL d   1     -48.741  13.924  22.945  0.00  0.00     0.224 A 
ATOM      5  C   UNL d   1     -49.314  12.618  22.962  0.00  0.00     0.038 A 
ATOM      6  C   UNL d   1     -49.401  13.442  22.950  0.00  0.00     0.100 A 
ATOM      7  N   UNL d   1     -47.322  14.074  22.946  0.00  0.00    -0.241 NA
ATOM      8  O   UNL d   1     -48.827  14.740  22.932  0.00  0.00    -0.284 OA
ATOM      9 CL   UNL d   1     -50.151  13.775  22.943  0.00  0.00    -0.079 Cl
ATOM     10  C   UNL d   1     -47.149  12.433  22.971  0.00  0.00     0.005 A 
ATOM     11  C   UNL d   1     -46.563  13.741  22.953  0.00  0.00     0.099 A 
ATOM     12  C   UNL d   1     -46.476  12.917  22.965  0.00  0.00     0.021 A 
ENDROOT
BRANCH   1  13
ATOM     13  N   UNL d   1     -48.482  11.468  22.981  0.00  0.00    -0.114 N 
ATOM     14  O   UNL d   1     -48.438  11.066  23.698  0.00  0.00    -0.532 OA
ATOM     15  O   UNL d   1     -48.440  11.049  22.276  0.00  0.00    -0.532 OA
ENDBRANCH   1  13
TORSDOF 1
ENDMDL
MODEL 5
REMARK VINA RESULT:      -5.7      9.452     10.510
REMARK  1 active torsions:
REMARK  status: ('A' for Active; 'I' for Inactive)
REMARK    1  A    between atoms: C_2  and  N_1 
ROOT
ATOM      1  C   UNL d   1     -39.081  15.072  16.757  0.00  0.00     0.129 A 
ATOM      2  C   UNL d   1     -38.954  14.314  17.058  0.00  0.00     0.043 A 
ATOM      3  C   UNL d   1     -39.560  13.928  17.471  0.00  0.00     0.123 A 
ATOM      4  C   UNL d   1     -40.286  14.304  17.580  0.00  0.00     0.224 A 
ATOM      5  C   UNL d   1     -39.802  15.441  16.867  0.00  0.00     0.038 A 
ATOM      6  C   UNL d   1     -40.408  15.054  17.281  0.00  0.00     0.100 A 
ATOM      7  N   UNL d   1     -39.436  13.174  17.771  0.00  0.00    -0.241 NA
ATOM      8  O   UNL d   1     -40.886  13.921  17.990  0.00  0.00    -0.284 OA
ATOM      9 CL   UNL d   1     -41.132  15.426  17.390  0.00  0.00    -0.079 Cl
ATOM     10  C   UNL d   1     -38.230  13.943  16.948  0.00  0.00     0.005 A 
ATOM     11  C   UNL d   1     -38.707  12.795  17.663  0.00  0.00     0.099 A 
ATOM     12  C   UNL d   1     -38.101  13.181  17.250  0.00  0.00     0.021 A 
ENDROOT
BRANCH   1  13
ATOM     13  N   UNL d   1     -38.481  15.454  16.348  0.00  0.00    -0.114 N 
ATOM     14  O   UNL d   1     -38.419  15.373  15.531  0.00  0.00    -0.532 OA
ATOM     15  O   UNL d   1     -37.940  15.921  16.753  0.00  0.00    -0.532 OA
ENDBRANCH   1  13
TORSDOF 1
ENDMDL
MODEL 6
REMARK VINA RESULT:      -5.5      8.788      9.746
REMARK  1 active torsions:
REMARK  status: ('A' for Active; 'I' for Inactive)
REMARK    1  A    between atoms: C_2  and  N_1 
ROOT
ATOM      1  C   UNL d   1     -40.134  14.182  18.187  0.00  0.00     0.129 A 
ATOM      2  C   UNL d   1     -40.295  14.762  17.621  0.00  0.00     0.043 A 
ATOM      3  C   UNL d   1     -39.815  14.828  16.949  0.00  0.00     0.123 A 
ATOM      4  C   UNL d   1     -39.177  14.314  16.849  0.00  0.00     0.224 A 
ATOM      5  C   UNL d   1     -39.500  13.676  18.083  0.00  0.00     0.038 A 
ATOM      6  C   UNL d   1     -39.019  13.742  17.411  0.00  0.00     0.100 A 
ATOM      7  N   UNL d   1     -39.974  15.403  16.386  0.00  0.00    -0.241 NA
ATOM      8  O   UNL d   1     -38.700  14.379  16.184  0.00  0.00    -0.284 OA
ATOM      9 CL   UNL d   1     -38.384  13.232  17.310  0.00  0.00    -0.079 Cl
ATOM     10  C   UNL d   1     -40.931  15.271  17.723  0.00  0.00     0.005 A 
ATOM     11  C   UNL d   1     -40.614  15.920  16.484  0.00  0.00     0.099 A 
ATOM     12  C   UNL d   1     -41.095  15.854  17.156  0.00  0.00     0.021 A 
ENDROOT
BRANCH   1  13
ATOM     13  N   UNL d   1     -40.610  14.117  18.851  0.00  0.00    -0.114 N 
ATOM     14  O   UNL d   1     -40.400  14.497  19.551  0.00  0.00    -0.532 OA
ATOM     15  O   UNL d   1     -41.299  13.672  18.821  0.00  0.00    -0.532 OA
ENDBRANCH   1  13
TORSDOF 1
ENDMDL
MODEL 7
REMARK VINA RESULT:      -5.5      8.840      9.438
REMARK  1 active torsions:
REMARK  status: ('A' for Active; 'I' for Inactive)
REMARK    1  A    between atoms: C_2  and  N_1 
ROOT
ATOM      1  C   UNL d   1     -40.230  14.868  17.471  0.00  0.00     0.129 A 
ATOM      2  C   UNL d   1     -40.198  15.071  18.271  0.00  0.00     0.043 A 
ATOM      3  C   UNL d   1     -39.736  14.621  18.792  0.00  0.00     0.123 A 
ATOM      4  C   UNL d   1     -39.312  13.972  18.509  0.00  0.00     0.224 A 
ATOM      5  C   UNL d   1     -39.808  14.224  17.195  0.00  0.00     0.038 A 
ATOM      6  C   UNL d   1     -39.347  13.774  17.717  0.00  0.00     0.100 A 
ATOM      7  N   UNL d   1     -39.703  14.821  19.587  0.00  0.00    -0.241 NA
ATOM      8  O   UNL d   1     -38.856  13.526  19.025  0.00  0.00    -0.284 OA
ATOM      9 CL   UNL d   1     -38.924  13.129  17.437  0.00  0.00    -0.079 Cl
ATOM     10  C   UNL d   1     -40.621  15.717  18.550  0.00  0.00     0.005 A 
ATOM     11  C   UNL d   1     -40.128  15.472  19.874  0.00  0.00     0.099 A 
ATOM     12  C   UNL d   1     -40.589  15.922  19.353  0.00  0.00     0.021 A 
ENDROOT
BRANCH   1  13
ATOM     13  N   UNL d   1     -40.687  15.314  16.956  0.00  0.00    -0.114 N 
ATOM     14  O   UNL d   1     -41.490  15.155  16.869  0.00  0.00    -0.532 OA
ATOM     15  O   UNL d   1     -40.343  15.921  16.523  0.00  0.00    -0.532 OA
ENDBRANCH   1  13
TORSDOF 1
ENDMDL
MODEL 8
REMARK VINA RESULT:      -5.4      9.278     10.163
REMARK  1 active torsions:
REMARK  status: ('A' for Active; 'I' for Inactive)
REMARK    1  A    between atoms: C_2  and  N_1 
ROOT
ATOM      1  C   UNL d   1     -39.834  14.340  17.791  0.00  0.00     0.129 A 
ATOM      2  C   UNL d   1     -39.221  13.843  17.548  0.00  0.00     0.043 A 
ATOM      3  C   UNL d   1     -38.765  14.043  16.885  0.00  0.00     0.123 A 
ATOM      4  C   UNL d   1     -38.927  14.739  16.472  0.00  0.00     0.224 A 
ATOM      5  C   UNL d   1     -39.989  15.029  17.379  0.00  0.00     0.038 A 
ATOM      6  C   UNL d   1     -39.534  15.229  16.716  0.00  0.00     0.100 A 
ATOM      7  N   UNL d   1     -38.156  13.550  16.642  0.00  0.00    -0.241 NA
ATOM      8  O   UNL d   1     -38.475  14.938  15.816  0.00  0.00    -0.284 OA
ATOM      9 CL   UNL d   1     -39.692  15.921  16.303  0.00  0.00    -0.079 Cl
ATOM     10  C   UNL d   1     -39.063  13.151  17.961  0.00  0.00     0.005 A 
ATOM     11  C   UNL d   1     -37.993  12.851  17.056  0.00  0.00     0.099 A 
ATOM     12  C   UNL d   1     -38.449  12.650  17.719  0.00  0.00     0.021 A 
ENDROOT
BRANCH   1  13
ATOM     13  N   UNL d   1     -40.284  14.142  18.447  0.00  0.00    -0.114 N 
ATOM     14  O   UNL d   1     -40.994  13.735  18.355  0.00  0.00    -0.532 OA
ATOM     15  O   UNL d   1     -40.029  14.348  19.200  0.00  0.00    -0.532 OA
ENDBRANCH   1  13
TORSDOF 1
ENDMDL
MODEL 9
REMARK VINA RESULT:      -5.3      8.468      9.401
REMARK  1 active torsions:
REMARK  status: ('A' for Active; 'I' for Inactive)
REMARK    1  A    between atoms: C_2  and  N_1 
ROOT
ATOM      1  C   UNL d   1     -39.587  14.153  18.312  0.00  0.00     0.129 A 
ATOM      2  C   UNL d   1     -40.069  14.724  17.960  0.00  0.00     0.043 A 
ATOM      3  C   UNL d   1     -40.504  15.246  18.434  0.00  0.00     0.123 A 
ATOM      4  C   UNL d   1     -40.452  15.193  19.256  0.00  0.00     0.224 A 
ATOM      5  C   UNL d   1     -39.540  14.105  19.127  0.00  0.00     0.038 A 
ATOM      6  C   UNL d   1     -39.974  14.627  19.601  0.00  0.00     0.100 A 
ATOM      7  N   UNL d   1     -40.983  15.814  18.086  0.00  0.00    -0.241 NA
ATOM      8  O   UNL d   1     -40.883  15.711  19.726  0.00  0.00    -0.284 OA
ATOM      9 CL   UNL d   1     -39.925  14.577  20.419  0.00  0.00    -0.079 Cl
ATOM     10  C   UNL d   1     -40.118  14.774  17.142  0.00  0.00     0.005 A 
ATOM     11  C   UNL d   1     -41.036  15.869  17.261  0.00  0.00     0.099 A 
ATOM     12  C   UNL d   1     -40.601  15.346  16.786  0.00  0.00     0.021 A 
ENDROOT
BRANCH   1  13
ATOM     13  N   UNL d   1     -39.157  13.636  17.843  0.00  0.00    -0.114 N 
ATOM     14  O   UNL d   1     -39.480  12.913  17.618  0.00  0.00    -0.532 OA
ATOM     15  O   UNL d   1     -38.401  13.838  17.595  0.00  0.00    -0.532 OA
ENDBRANCH   1  13
TORSDOF 1
ENDMDL
