MODEL 1
REMARK VINA RESULT:      26.2      0.000      0.000
REMARK  1 active torsions:
REMARK  status: ('A' for Active; 'I' for Inactive)
REMARK    1  A    between atoms: C_13  and  C_7 
ROOT
ATOM      1  C   UNL d   1      46.556 -19.027  42.046  0.00  0.00     0.120 A 
ATOM      2  C   UNL d   1      46.369 -18.306  42.400  0.00  0.00     0.058 A 
ATOM      3  N   UNL d   1      46.614 -18.899  41.234  0.00  0.00    -0.195 NA
ATOM      4  S   UNL d   1      46.647 -19.697  42.504  0.00  0.00    -0.072 SA
ATOM      5  C   UNL d   1      46.553 -19.652  43.315  0.00  0.00     0.009 A 
ATOM      6  C   UNL d   1      46.366 -18.931  43.673  0.00  0.00    -0.015 A 
ATOM      7  C   UNL d   1      46.275 -18.261  43.211  0.00  0.00     0.005 A 
ATOM      8  C   UNL d   1      46.463 -18.098  41.084  0.00  0.00     0.311 A 
ATOM      9  S   UNL d   1      46.312 -17.736  41.814  0.00  0.00    -0.024 SA
ATOM     10  C   UNL d   1      46.271 -18.888  44.492  0.00  0.00     0.045 A 
ATOM     11  C   UNL d   1      46.645 -20.330  43.777  0.00  0.00     0.050 A 
ATOM     12  C   UNL d   1      46.467 -19.534  43.898  0.00  0.00     0.018 A 
ATOM     13  O   UNL d   1      46.463 -17.727  40.345  0.00  0.00    -0.258 OA
ATOM     14  C   UNL d   1      46.363 -19.566  44.954  0.00  0.00    -0.026 A 
ATOM     15  C   UNL d   1      46.550 -20.286  44.596  0.00  0.00    -0.026 A 
ENDROOT
BRANCH   7  16
ATOM     16  C   UNL d   1      46.089 -17.544  43.564  0.00  0.00     0.001 A 
ATOM     17  C   UNL d   1      45.334 -17.215  43.458  0.00  0.00     0.003 A 
ATOM     18  C   UNL d   1      45.150 -16.501  43.810  0.00  0.00     0.042 A 
ATOM     19  C   UNL d   1      45.715 -16.101  44.273  0.00  0.00     0.196 A 
ATOM     20  C   UNL d   1      46.467 -16.439  44.372  0.00  0.00     0.042 A 
ATOM     21  O   UNL d   1      45.527 -15.381  44.627  0.00  0.00    -0.287 OA
ATOM     22  C   UNL d   1      46.647 -17.155  44.018  0.00  0.00     0.003 A 
ENDBRANCH   7  16
TORSDOF 1
ENDMDL
