MODEL 1
REMARK VINA RESULT:       2.7      0.000      0.000
REMARK  5 active torsions:
REMARK  status: ('A' for Active; 'I' for Inactive)
REMARK    1  A    between atoms: C_2  and  C_1 
REMARK    2  A    between atoms: C_6  and  C_2 
REMARK    3  A    between atoms: S_3  and  C_11 
REMARK    4  A    between atoms: N_7  and  S_3 
REMARK    5  A    between atoms: C_15  and  C_6 
ROOT
ATOM      1  C   UNL d   1      32.096  18.823 -23.285  0.00  0.00     0.141 C 
ATOM      2  C   UNL d   1      31.339  19.051 -23.012  0.00  0.00     0.107 C 
ATOM      3  N   UNL d   1      30.611  19.286 -22.746  0.00  0.00    -0.191 NA
ENDROOT
BRANCH   1   4
ATOM      4  C   UNL d   1      32.222  18.042 -23.520  0.00  0.00     0.161 A 
ATOM      5  N   UNL d   1      31.862  17.665 -24.166  0.00  0.00    -0.287 N 
ATOM      6  C   UNL d   1      32.139  16.892 -24.207  0.00  0.00     0.083 A 
ATOM      7  C   UNL d   1      31.301  18.012 -24.697  0.00  0.00     0.101 C 
ATOM      8  C   UNL d   1      31.975  16.283 -24.722  0.00  0.00     0.019 A 
ATOM      9  C   UNL d   1      32.689  16.788 -23.567  0.00  0.00     0.099 A 
ATOM     10  C   UNL d   1      32.356  15.557 -24.609  0.00  0.00     0.002 A 
ATOM     11  C   UNL d   1      32.905  15.453 -23.969  0.00  0.00     0.002 A 
ATOM     12  C   UNL d   1      33.061  16.078 -23.457  0.00  0.00     0.021 A 
ATOM     13  N   UNL d   1      32.725  17.501 -23.160  0.00  0.00    -0.226 NA
ENDBRANCH   1   4
BRANCH   1  14
ATOM     14  C   UNL d   1      32.707  19.366 -23.319  0.00  0.00     0.208 C 
ATOM     15  O   UNL d   1      33.240  19.335 -23.935  0.00  0.00    -0.286 OA
BRANCH  14  16
ATOM     16  C   UNL d   1      32.782  19.945 -22.730  0.00  0.00     0.040 A 
ATOM     17  C   UNL d   1      32.710  20.752 -22.936  0.00  0.00     0.004 A 
ATOM     18  C   UNL d   1      32.785  21.328 -22.350  0.00  0.00     0.013 A 
ATOM     19  C   UNL d   1      32.929  21.107 -21.576  0.00  0.00     0.104 A 
ATOM     20  C   UNL d   1      33.001  20.301 -21.369  0.00  0.00     0.013 A 
ATOM     21  C   UNL d   1      32.926  19.725 -21.955  0.00  0.00     0.004 A 
BRANCH  19  22
ATOM     22  S   UNL d   1      33.004  21.687 -20.986  0.00  0.00     0.271 S 
ATOM     23  O   UNL d   1      32.987  22.295 -21.581  0.00  0.00    -0.200 OA
ATOM     24  O   UNL d   1      33.021  21.094 -20.405  0.00  0.00    -0.200 OA
BRANCH  22  25
ATOM     25  N   UNL d   1      33.080  22.263 -20.400  0.00  0.00    -0.229 N 
ATOM     26  C   UNL d   1      33.115  23.054 -20.605  0.00  0.00     0.092 A 
ATOM     27  C   UNL d   1      33.190  23.633 -20.015  0.00  0.00     0.020 A 
ATOM     28  C   UNL d   1      33.230  23.417 -19.225  0.00  0.00     0.003 A 
ATOM     29  C   UNL d   1      33.194  22.629 -19.030  0.00  0.00     0.020 A 
ATOM     30  C   UNL d   1      33.119  22.050 -19.619  0.00  0.00     0.092 A 
ENDBRANCH  22  25
ENDBRANCH  19  22
ENDBRANCH  14  16
ENDBRANCH   1  14
TORSDOF 5
ENDMDL
