MODEL 1
REMARK VINA RESULT:      -4.7      0.000      0.000
REMARK  6 active torsions:
REMARK  status: ('A' for Active; 'I' for Inactive)
REMARK    1  A    between atoms: C_8  and  N_1 
REMARK    2  A    between atoms: C_6  and  C_3 
REMARK    3  A    between atoms: C_7  and  C_6 
REMARK       I    between atoms: N_11  and  C_7 
REMARK    4  A    between atoms: C_9  and  C_8 
REMARK       I    between atoms: N_12  and  C_9 
REMARK    5  A    between atoms: C_17  and  N_11 
REMARK    6  A    between atoms: C_16  and  N_12 
ROOT
ATOM      1  N   UNL d   1     -45.069  12.616  22.127  0.00  0.00    -0.230 N 
ATOM      2  C   UNL d   1     -45.158  12.226  22.853  0.00  0.00     0.299 A 
ATOM      3  C   UNL d   1     -46.140  13.118  22.737  0.00  0.00     0.095 A 
ATOM      4  C   UNL d   1     -45.677  13.168  22.056  0.00  0.00     0.274 A 
ATOM      5  S   UNL d   1     -45.822  12.544  23.222  0.00  0.00    -0.022 SA
ATOM      6  O   UNL d   1     -44.667  11.631  23.143  0.00  0.00    -0.259 OA
ATOM      7  O   UNL d   1     -45.798  13.678  21.416  0.00  0.00    -0.266 OA
ENDROOT
BRANCH   1   8
ATOM      8  C   UNL d   1     -44.473  12.473  21.571  0.00  0.00     0.149 C 
BRANCH   8   9
ATOM      9  C   UNL d   1     -43.801  12.953  21.558  0.00  0.00     0.297 C 
ATOM     10  N   UNL d   1     -43.137  12.711  21.145  0.00  0.00    -0.207 NA
ATOM     11  O   UNL d   1     -43.801  13.675  21.963  0.00  0.00    -0.264 OA
BRANCH  10  12
ATOM     12  C   UNL d   1     -42.461  13.191  21.131  0.00  0.00     0.085 A 
ATOM     13  C   UNL d   1     -41.866  13.072  21.685  0.00  0.00     0.019 A 
ATOM     14  C   UNL d   1     -41.194  13.548  21.672  0.00  0.00     0.002 A 
ATOM     15  C   UNL d   1     -41.122  14.144  21.103  0.00  0.00     0.000 A 
ATOM     16  C   UNL d   1     -41.728  14.260  20.546  0.00  0.00     0.002 A 
ATOM     17  C   UNL d   1     -40.454  14.622  21.086  0.00  0.00     0.000 C 
ATOM     18  C   UNL d   1     -42.396  13.782  20.562  0.00  0.00     0.019 A 
ENDBRANCH  10  12
ENDBRANCH   8   9
ENDBRANCH   1   8
BRANCH   3  19
ATOM     19  C   UNL d   1     -46.808  13.577  22.892  0.00  0.00     0.074 C 
BRANCH  19  20
ATOM     20  C   UNL d   1     -47.521  13.212  23.076  0.00  0.00     0.280 C 
ATOM     21  N   UNL d   1     -48.209  13.416  22.681  0.00  0.00    -0.208 NA
ATOM     22  O   UNL d   1     -47.550  12.631  23.665  0.00  0.00    -0.265 OA
BRANCH  21  23
ATOM     23  C   UNL d   1     -48.919  13.050  22.868  0.00  0.00     0.085 A 
ATOM     24  C   UNL d   1     -49.176  12.406  22.427  0.00  0.00     0.020 A 
ATOM     25  C   UNL d   1     -49.891  12.039  22.616  0.00  0.00     0.013 A 
ATOM     26  C   UNL d   1     -50.343  12.313  23.240  0.00  0.00     0.058 A 
ATOM     27  C   UNL d   1     -50.086  12.964  23.688  0.00  0.00     0.013 A 
ATOM     28 CL   UNL d   1     -51.058  11.946  23.430  0.00  0.00    -0.082 Cl
ATOM     29  C   UNL d   1     -49.371  13.331  23.498  0.00  0.00     0.020 A 
ENDBRANCH  21  23
ENDBRANCH  19  20
ENDBRANCH   3  19
TORSDOF 6
ENDMDL
MODEL 2
REMARK VINA RESULT:      -3.0      3.105      4.989
REMARK  6 active torsions:
REMARK  status: ('A' for Active; 'I' for Inactive)
REMARK    1  A    between atoms: C_8  and  N_1 
REMARK    2  A    between atoms: C_6  and  C_3 
REMARK    3  A    between atoms: C_7  and  C_6 
REMARK       I    between atoms: N_11  and  C_7 
REMARK    4  A    between atoms: C_9  and  C_8 
REMARK       I    between atoms: N_12  and  C_9 
REMARK    5  A    between atoms: C_17  and  N_11 
REMARK    6  A    between atoms: C_16  and  N_12 
ROOT
ATOM      1  N   UNL d   1     -41.005  14.558  20.200  0.00  0.00    -0.230 N 
ATOM      2  C   UNL d   1     -40.818  14.614  21.005  0.00  0.00     0.299 A 
ATOM      3  C   UNL d   1     -41.672  13.605  20.846  0.00  0.00     0.095 A 
ATOM      4  C   UNL d   1     -41.533  13.933  20.101  0.00  0.00     0.274 A 
ATOM      5  S   UNL d   1     -41.235  14.021  21.395  0.00  0.00    -0.022 SA
ATOM      6  O   UNL d   1     -40.308  15.165  21.344  0.00  0.00    -0.259 OA
ATOM      7  O   UNL d   1     -41.863  13.683  19.385  0.00  0.00    -0.266 OA
ENDROOT
BRANCH   1   8
ATOM      8  C   UNL d   1     -40.711  15.046  19.600  0.00  0.00     0.149 C 
BRANCH   8   9
ATOM      9  C   UNL d   1     -40.164  14.748  19.059  0.00  0.00     0.297 C 
ATOM     10  N   UNL d   1     -40.141  15.046  18.297  0.00  0.00    -0.207 NA
ATOM     11  O   UNL d   1     -39.641  14.148  19.288  0.00  0.00    -0.264 OA
BRANCH  10  12
ATOM     12  C   UNL d   1     -39.592  14.748  17.752  0.00  0.00     0.085 A 
ATOM     13  C   UNL d   1     -39.792  14.100  17.287  0.00  0.00     0.019 A 
ATOM     14  C   UNL d   1     -39.249  13.802  16.745  0.00  0.00     0.002 A 
ATOM     15  C   UNL d   1     -38.504  14.155  16.672  0.00  0.00     0.000 A 
ATOM     16  C   UNL d   1     -38.308  14.810  17.146  0.00  0.00     0.002 A 
ATOM     17  C   UNL d   1     -37.958  13.861  16.133  0.00  0.00     0.000 C 
ATOM     18  C   UNL d   1     -38.853  15.103  17.685  0.00  0.00     0.019 A 
ENDBRANCH  10  12
ENDBRANCH   8   9
ENDBRANCH   1   8
BRANCH   3  19
ATOM     19  C   UNL d   1     -42.170  12.964  20.996  0.00  0.00     0.074 C 
BRANCH  19  20
ATOM     20  C   UNL d   1     -42.872  13.079  21.406  0.00  0.00     0.280 C 
ATOM     21  N   UNL d   1     -43.459  12.508  21.399  0.00  0.00    -0.208 NA
ATOM     22  O   UNL d   1     -42.993  13.778  21.833  0.00  0.00    -0.265 OA
BRANCH  21  23
ATOM     23  C   UNL d   1     -44.160  12.627  21.810  0.00  0.00     0.085 A 
ATOM     24  C   UNL d   1     -44.692  13.198  21.555  0.00  0.00     0.020 A 
ATOM     25  C   UNL d   1     -45.396  13.316  21.970  0.00  0.00     0.013 A 
ATOM     26  C   UNL d   1     -45.565  12.866  22.632  0.00  0.00     0.058 A 
ATOM     27  C   UNL d   1     -45.028  12.288  22.892  0.00  0.00     0.013 A 
ATOM     28 CL   UNL d   1     -46.269  12.983  23.048  0.00  0.00    -0.082 Cl
ATOM     29  C   UNL d   1     -44.324  12.171  22.477  0.00  0.00     0.020 A 
ENDBRANCH  21  23
ENDBRANCH  19  20
ENDBRANCH   3  19
TORSDOF 6
ENDMDL
MODEL 3
REMARK VINA RESULT:      -2.9      1.189      1.502
REMARK  6 active torsions:
REMARK  status: ('A' for Active; 'I' for Inactive)
REMARK    1  A    between atoms: C_8  and  N_1 
REMARK    2  A    between atoms: C_6  and  C_3 
REMARK    3  A    between atoms: C_7  and  C_6 
REMARK       I    between atoms: N_11  and  C_7 
REMARK    4  A    between atoms: C_9  and  C_8 
REMARK       I    between atoms: N_12  and  C_9 
REMARK    5  A    between atoms: C_17  and  N_11 
REMARK    6  A    between atoms: C_16  and  N_12 
ROOT
ATOM      1  N   UNL d   1     -45.289  12.620  22.180  0.00  0.00    -0.230 N 
ATOM      2  C   UNL d   1     -45.824  12.820  21.580  0.00  0.00     0.299 A 
ATOM      3  C   UNL d   1     -46.392  13.097  22.752  0.00  0.00     0.095 A 
ATOM      4  C   UNL d   1     -45.641  12.792  22.905  0.00  0.00     0.274 A 
ATOM      5  S   UNL d   1     -46.502  13.113  21.944  0.00  0.00    -0.022 SA
ATOM      6  O   UNL d   1     -45.692  12.737  20.771  0.00  0.00    -0.259 OA
ATOM      7  O   UNL d   1     -45.300  12.678  23.651  0.00  0.00    -0.266 OA
ENDROOT
BRANCH   1   8
ATOM      8  C   UNL d   1     -44.532  12.304  22.069  0.00  0.00     0.149 C 
BRANCH   8   9
ATOM      9  C   UNL d   1     -43.910  12.797  21.844  0.00  0.00     0.297 C 
ATOM     10  N   UNL d   1     -43.216  12.472  21.557  0.00  0.00    -0.207 NA
ATOM     11  O   UNL d   1     -43.990  13.619  21.910  0.00  0.00    -0.264 OA
BRANCH  10  12
ATOM     12  C   UNL d   1     -42.590  12.966  21.332  0.00  0.00     0.085 A 
ATOM     13  C   UNL d   1     -41.995  13.141  21.871  0.00  0.00     0.019 A 
ATOM     14  C   UNL d   1     -41.372  13.631  21.649  0.00  0.00     0.002 A 
ATOM     15  C   UNL d   1     -41.348  13.946  20.884  0.00  0.00     0.000 A 
ATOM     16  C   UNL d   1     -41.953  13.766  20.343  0.00  0.00     0.002 A 
ATOM     17  C   UNL d   1     -40.729  14.436  20.657  0.00  0.00     0.000 C 
ATOM     18  C   UNL d   1     -42.572  13.276  20.570  0.00  0.00     0.019 A 
ENDBRANCH  10  12
ENDBRANCH   8   9
ENDBRANCH   1   8
BRANCH   3  19
ATOM     19  C   UNL d   1     -46.932  13.340  23.326  0.00  0.00     0.074 C 
BRANCH  19  20
ATOM     20  C   UNL d   1     -47.694  13.557  23.106  0.00  0.00     0.280 C 
ATOM     21  N   UNL d   1     -48.011  14.271  23.348  0.00  0.00    -0.208 NA
ATOM     22  O   UNL d   1     -48.149  13.050  22.635  0.00  0.00    -0.265 OA
BRANCH  21  23
ATOM     23  C   UNL d   1     -48.772  14.484  23.127  0.00  0.00     0.085 A 
ATOM     24  C   UNL d   1     -48.886  15.008  22.504  0.00  0.00     0.020 A 
ATOM     25  C   UNL d   1     -49.653  15.221  22.283  0.00  0.00     0.013 A 
ATOM     26  C   UNL d   1     -50.298  14.912  22.680  0.00  0.00     0.058 A 
ATOM     27  C   UNL d   1     -50.185  14.382  23.310  0.00  0.00     0.013 A 
ATOM     28 CL   UNL d   1     -51.064  15.125  22.459  0.00  0.00    -0.082 Cl
ATOM     29  C   UNL d   1     -49.419  14.170  23.531  0.00  0.00     0.020 A 
ENDBRANCH  21  23
ENDBRANCH  19  20
ENDBRANCH   3  19
TORSDOF 6
ENDMDL
MODEL 4
REMARK VINA RESULT:      -2.3      5.729      8.352
REMARK  6 active torsions:
REMARK  status: ('A' for Active; 'I' for Inactive)
REMARK    1  A    between atoms: C_8  and  N_1 
REMARK    2  A    between atoms: C_6  and  C_3 
REMARK    3  A    between atoms: C_7  and  C_6 
REMARK       I    between atoms: N_11  and  C_7 
REMARK    4  A    between atoms: C_9  and  C_8 
REMARK       I    between atoms: N_12  and  C_9 
REMARK    5  A    between atoms: C_17  and  N_11 
REMARK    6  A    between atoms: C_16  and  N_12 
ROOT
ATOM      1  N   UNL d   1     -39.054  15.345  17.116  0.00  0.00    -0.230 N 
ATOM      2  C   UNL d   1     -39.881  15.334  17.154  0.00  0.00     0.299 A 
ATOM      3  C   UNL d   1     -39.408  15.093  18.374  0.00  0.00     0.095 A 
ATOM      4  C   UNL d   1     -38.761  15.196  17.872  0.00  0.00     0.274 A 
ATOM      5  S   UNL d   1     -40.090  15.178  17.934  0.00  0.00    -0.022 SA
ATOM      6  O   UNL d   1     -40.393  15.458  16.520  0.00  0.00    -0.259 OA
ATOM      7  O   UNL d   1     -37.963  15.157  18.086  0.00  0.00    -0.266 OA
ENDROOT
BRANCH   1   8
ATOM      8  C   UNL d   1     -38.602  15.483  16.437  0.00  0.00     0.149 C 
BRANCH   8   9
ATOM      9  C   UNL d   1     -38.602  14.930  15.825  0.00  0.00     0.297 C 
ATOM     10  N   UNL d   1     -37.945  14.855  15.343  0.00  0.00    -0.207 NA
ATOM     11  O   UNL d   1     -39.268  14.453  15.699  0.00  0.00    -0.264 OA
BRANCH  10  12
ATOM     12  C   UNL d   1     -37.944  14.300  14.728  0.00  0.00     0.085 A 
ATOM     13  C   UNL d   1     -37.946  14.558  13.947  0.00  0.00     0.019 A 
ATOM     14  C   UNL d   1     -37.945  14.009  13.335  0.00  0.00     0.002 A 
ATOM     15  C   UNL d   1     -37.942  13.199  13.507  0.00  0.00     0.000 A 
ATOM     16  C   UNL d   1     -37.940  12.945  14.298  0.00  0.00     0.002 A 
ATOM     17  C   UNL d   1     -37.941  12.647  12.899  0.00  0.00     0.000 C 
ATOM     18  C   UNL d   1     -37.940  13.497  14.906  0.00  0.00     0.019 A 
ENDBRANCH  10  12
ENDBRANCH   8   9
ENDBRANCH   1   8
BRANCH   3  19
ATOM     19  C   UNL d   1     -39.361  14.932  19.182  0.00  0.00     0.074 C 
BRANCH  19  20
ATOM     20  C   UNL d   1     -39.971  14.527  19.555  0.00  0.00     0.280 C 
ATOM     21  N   UNL d   1     -40.330  14.834  20.224  0.00  0.00    -0.208 NA
ATOM     22  O   UNL d   1     -40.230  13.799  19.255  0.00  0.00    -0.265 OA
BRANCH  21  23
ATOM     23  C   UNL d   1     -40.939  14.426  20.593  0.00  0.00     0.085 A 
ATOM     24  C   UNL d   1     -41.699  14.737  20.593  0.00  0.00     0.020 A 
ATOM     25  C   UNL d   1     -42.310  14.325  20.965  0.00  0.00     0.013 A 
ATOM     26  C   UNL d   1     -42.161  13.610  21.333  0.00  0.00     0.058 A 
ATOM     27  C   UNL d   1     -41.393  13.293  21.336  0.00  0.00     0.013 A 
ATOM     28 CL   UNL d   1     -42.772  13.197  21.706  0.00  0.00    -0.082 Cl
ATOM     29  C   UNL d   1     -40.782  13.706  20.963  0.00  0.00     0.020 A 
ENDBRANCH  21  23
ENDBRANCH  19  20
ENDBRANCH   3  19
TORSDOF 6
ENDMDL
