MODEL 1
REMARK VINA RESULT:      51.2      0.000      0.000
REMARK  6 active torsions:
REMARK  status: ('A' for Active; 'I' for Inactive)
REMARK    1  A    between atoms: C_16  and  C_2 
REMARK    2  A    between atoms: C_11  and  C_7 
REMARK    3  A    between atoms: S_17  and  C_9 
REMARK    4  A    between atoms: O_20  and  C_11 
REMARK    5  A    between atoms: C_13  and  C_19 
REMARK    6  A    between atoms: C_19  and  S_17 
ROOT
ATOM      1  N   UNL d   1     -51.138  26.191  33.353  0.00  0.00    -0.191 N 
ATOM      2  C   UNL d   1     -51.384  25.409  33.341  0.00  0.00     0.187 A 
ATOM      3  N   UNL d   1     -52.204  25.404  33.313  0.00  0.00    -0.127 NA
ATOM      4  C   UNL d   1     -51.795  26.680  33.333  0.00  0.00     0.187 A 
ATOM      5  N   UNL d   1     -50.373  26.533  33.381  0.00  0.00    -0.156 NA
ATOM      6  N   UNL d   1     -52.466  26.187  33.308  0.00  0.00    -0.127 NA
ATOM      7  C   UNL d   1     -50.285  27.353  33.388  0.00  0.00     0.131 A 
ATOM      8  C   UNL d   1     -51.708  27.500  33.340  0.00  0.00     0.043 A 
ATOM      9  C   UNL d   1     -50.954  27.837  33.368  0.00  0.00     0.031 A 
ENDROOT
BRANCH   7  10
ATOM     10  S   UNL d   1     -49.532  27.690  33.415  0.00  0.00    -0.064 SA
BRANCH  10  11
ATOM     11  C   UNL d   1     -49.434  28.453  33.708  0.00  0.00     0.062 C 
BRANCH  11  12
ATOM     12  C   UNL d   1     -48.878  28.595  34.292  0.00  0.00     0.107 A 
ATOM     13  O   UNL d   1     -48.669  29.331  34.588  0.00  0.00    -0.301 OA
ATOM     14  C   UNL d   1     -48.096  29.229  35.163  0.00  0.00     0.163 A 
ATOM     15  C   UNL d   1     -47.940  28.416  35.230  0.00  0.00     0.032 A 
ATOM     16  C   UNL d   1     -48.427  28.028  34.690  0.00  0.00     0.027 A 
BRANCH  14  17
ATOM     17  C   UNL d   1     -47.729  29.818  35.603  0.00  0.00     0.319 C 
ATOM     18  O   UNL d   1     -47.326  29.642  36.306  0.00  0.00    -0.257 OA
BRANCH  17  19
ATOM     19  O   UNL d   1     -47.759  30.601  35.346  0.00  0.00    -0.294 OA
ATOM     20  C   UNL d   1     -47.074  30.995  35.102  0.00  0.00     0.185 C 
ENDBRANCH  17  19
ENDBRANCH  14  17
ENDBRANCH  11  12
ENDBRANCH  10  11
ENDBRANCH   7  10
BRANCH   2  21
ATOM     21  C   UNL d   1     -50.904  24.745  33.353  0.00  0.00     0.038 A 
ATOM     22  C   UNL d   1     -51.248  23.994  33.309  0.00  0.00     0.003 A 
ATOM     23  C   UNL d   1     -50.767  23.319  33.321  0.00  0.00     0.000 A 
ATOM     24  C   UNL d   1     -49.948  23.402  33.378  0.00  0.00     0.000 A 
ATOM     25  C   UNL d   1     -49.604  24.153  33.423  0.00  0.00     0.000 A 
ATOM     26  C   UNL d   1     -50.090  24.822  33.410  0.00  0.00     0.003 A 
ENDBRANCH   2  21
TORSDOF 6
ENDMDL
MODEL 2
REMARK VINA RESULT:      53.5      2.772      6.213
REMARK  6 active torsions:
REMARK  status: ('A' for Active; 'I' for Inactive)
REMARK    1  A    between atoms: C_16  and  C_2 
REMARK    2  A    between atoms: C_11  and  C_7 
REMARK    3  A    between atoms: S_17  and  C_9 
REMARK    4  A    between atoms: O_20  and  C_11 
REMARK    5  A    between atoms: C_13  and  C_19 
REMARK    6  A    between atoms: C_19  and  S_17 
ROOT
ATOM      1  N   UNL d   1     -47.628  30.356  35.292  0.00  0.00    -0.191 N 
ATOM      2  C   UNL d   1     -47.378  31.135  35.340  0.00  0.00     0.187 A 
ATOM      3  N   UNL d   1     -46.947  31.217  36.033  0.00  0.00    -0.127 NA
ATOM      4  C   UNL d   1     -47.359  29.945  35.947  0.00  0.00     0.187 A 
ATOM      5  N   UNL d   1     -48.084  29.953  34.713  0.00  0.00    -0.156 NA
ATOM      6  N   UNL d   1     -46.930  30.485  36.415  0.00  0.00    -0.127 NA
ATOM      7  C   UNL d   1     -48.257  29.152  34.807  0.00  0.00     0.131 A 
ATOM      8  C   UNL d   1     -47.532  29.144  36.041  0.00  0.00     0.043 A 
ATOM      9  C   UNL d   1     -47.980  28.747  35.471  0.00  0.00     0.031 A 
ENDROOT
BRANCH   7  10
ATOM     10  S   UNL d   1     -48.705  28.755  34.238  0.00  0.00    -0.064 SA
BRANCH  10  11
ATOM     11  C   UNL d   1     -48.871  27.954  34.331  0.00  0.00     0.062 C 
BRANCH  11  12
ATOM     12  C   UNL d   1     -49.535  27.634  33.978  0.00  0.00     0.107 A 
ATOM     13  O   UNL d   1     -49.739  26.839  33.969  0.00  0.00    -0.301 OA
ATOM     14  C   UNL d   1     -50.442  26.754  33.559  0.00  0.00     0.163 A 
ATOM     15  C   UNL d   1     -50.686  27.506  33.306  0.00  0.00     0.032 A 
ATOM     16  C   UNL d   1     -50.122  28.047  33.567  0.00  0.00     0.027 A 
BRANCH  14  17
ATOM     17  C   UNL d   1     -50.847  26.053  33.416  0.00  0.00     0.319 C 
ATOM     18  O   UNL d   1     -51.674  26.040  33.347  0.00  0.00    -0.257 OA
BRANCH  17  19
ATOM     19  O   UNL d   1     -50.429  25.347  33.338  0.00  0.00    -0.294 OA
ATOM     20  C   UNL d   1     -50.792  24.618  33.489  0.00  0.00     0.185 C 
ENDBRANCH  17  19
ENDBRANCH  14  17
ENDBRANCH  11  12
ENDBRANCH  10  11
ENDBRANCH   7  10
BRANCH   2  21
ATOM     21  C   UNL d   1     -47.527  31.732  34.799  0.00  0.00     0.038 A 
ATOM     22  C   UNL d   1     -46.931  32.276  34.620  0.00  0.00     0.003 A 
ATOM     23  C   UNL d   1     -47.077  32.882  34.073  0.00  0.00     0.000 A 
ATOM     24  C   UNL d   1     -47.816  32.936  33.711  0.00  0.00     0.000 A 
ATOM     25  C   UNL d   1     -48.413  32.391  33.890  0.00  0.00     0.000 A 
ATOM     26  C   UNL d   1     -48.260  31.790  34.437  0.00  0.00     0.003 A 
ENDBRANCH   2  21
TORSDOF 6
ENDMDL
