MODEL 1
REMARK VINA RESULT:      -5.4      0.000      0.000
REMARK  3 active torsions:
REMARK  status: ('A' for Active; 'I' for Inactive)
REMARK    1  A    between atoms: C_8  and  N_1 
REMARK    2  A    between atoms: N_7  and  C_2 
REMARK    3  A    between atoms: C_16  and  C_8 
ROOT
ATOM      1  N   UNL d   1     -41.352-122.439 -52.497  0.00  0.00    -0.225 N 
ATOM      2  C   UNL d   1     -41.810-122.961 -51.004  0.00  0.00     0.158 A 
ATOM      3  C   UNL d   1     -41.374-123.249 -52.328  0.00  0.00     0.358 A 
ATOM      4  N   UNL d   1     -41.602-123.506 -51.585  0.00  0.00    -0.174 NA
ATOM      5  C   UNL d   1     -41.558-121.888 -51.922  0.00  0.00     0.271 A 
ATOM      6  C   UNL d   1     -41.787-122.152 -51.173  0.00  0.00     0.099 A 
ATOM      7  O   UNL d   1     -41.166-123.798 -52.913  0.00  0.00    -0.244 OA
ATOM      8  O   UNL d   1     -41.536-121.079 -52.091  0.00  0.00    -0.266 OA
ENDROOT
BRANCH   1   9
ATOM      9  C   UNL d   1     -41.123-122.180 -53.245  0.00  0.00     0.087 C 
BRANCH   9  10
ATOM     10  C   UNL d   1     -41.656-122.214 -53.875  0.00  0.00     0.018 A 
ATOM     11  C   UNL d   1     -41.529-122.764 -54.480  0.00  0.00     0.004 A 
ATOM     12  C   UNL d   1     -42.062-122.798 -55.109  0.00  0.00     0.030 A 
ATOM     13  C   UNL d   1     -42.706-122.290 -55.126  0.00  0.00     0.140 A 
ATOM     14  C   UNL d   1     -42.827-121.750 -54.529  0.00  0.00     0.030 A 
ATOM     15  F   UNL d   1     -43.237-122.330 -55.762  0.00  0.00    -0.204 F 
ATOM     16  C   UNL d   1     -42.302-121.709 -53.899  0.00  0.00     0.004 A 
ENDBRANCH   9  10
ENDBRANCH   1   9
BRANCH   2  17
ATOM     17  N   UNL d   1     -42.039-123.217 -50.257  0.00  0.00    -0.285 N 
ATOM     18  C   UNL d   1     -42.822-123.388 -50.105  0.00  0.00     0.106 A 
ATOM     19  C   UNL d   1     -43.052-123.644 -49.357  0.00  0.00     0.118 A 
ATOM     20  C   UNL d   1     -43.843-123.816 -49.203  0.00  0.00     0.028 C 
ATOM     21  O   UNL d   1     -42.501-123.730 -48.759  0.00  0.00    -0.304 OA
ATOM     22  C   UNL d   1     -41.691-123.555 -48.911  0.00  0.00     0.118 A 
ATOM     23  C   UNL d   1     -41.465-123.299 -49.662  0.00  0.00     0.106 A 
ATOM     24  C   UNL d   1     -41.134-123.641 -48.312  0.00  0.00     0.028 C 
ENDBRANCH   2  17
TORSDOF 3
ENDMDL
MODEL 2
REMARK VINA RESULT:      -4.0      1.842      4.571
REMARK  3 active torsions:
REMARK  status: ('A' for Active; 'I' for Inactive)
REMARK    1  A    between atoms: C_8  and  N_1 
REMARK    2  A    between atoms: N_7  and  C_2 
REMARK    3  A    between atoms: C_16  and  C_8 
ROOT
ATOM      1  N   UNL d   1     -41.288-122.394 -51.194  0.00  0.00    -0.225 N 
ATOM      2  C   UNL d   1     -41.517-122.474 -52.822  0.00  0.00     0.158 A 
ATOM      3  C   UNL d   1     -41.263-123.124 -51.582  0.00  0.00     0.358 A 
ATOM      4  N   UNL d   1     -41.378-123.161 -52.392  0.00  0.00    -0.174 NA
ATOM      5  C   UNL d   1     -41.426-121.702 -51.617  0.00  0.00     0.271 A 
ATOM      6  C   UNL d   1     -41.541-121.744 -52.434  0.00  0.00     0.099 A 
ATOM      7  O   UNL d   1     -41.123-123.817 -51.149  0.00  0.00    -0.244 OA
ATOM      8  O   UNL d   1     -41.450-120.972 -51.229  0.00  0.00    -0.266 OA
ENDROOT
BRANCH   1   9
ATOM      9  C   UNL d   1     -41.172-122.356 -50.378  0.00  0.00     0.087 C 
BRANCH   9  10
ATOM     10  C   UNL d   1     -41.768-122.609 -49.866  0.00  0.00     0.018 A 
ATOM     11  C   UNL d   1     -41.558-123.001 -49.168  0.00  0.00     0.004 A 
ATOM     12  C   UNL d   1     -42.153-123.255 -48.656  0.00  0.00     0.030 A 
ATOM     13  C   UNL d   1     -42.940-123.115 -48.844  0.00  0.00     0.140 A 
ATOM     14  C   UNL d   1     -43.142-122.729 -49.531  0.00  0.00     0.030 A 
ATOM     15  F   UNL d   1     -43.533-123.373 -48.324  0.00  0.00    -0.204 F 
ATOM     16  C   UNL d   1     -42.556-122.474 -50.046  0.00  0.00     0.004 A 
ENDBRANCH   9  10
ENDBRANCH   1   9
BRANCH   2  17
ATOM     17  N   UNL d   1     -41.633-122.508 -53.636  0.00  0.00    -0.285 N 
ATOM     18  C   UNL d   1     -42.048-121.918 -54.016  0.00  0.00     0.106 A 
ATOM     19  C   UNL d   1     -42.164-121.953 -54.830  0.00  0.00     0.118 A 
ATOM     20  C   UNL d   1     -42.584-121.356 -55.215  0.00  0.00     0.028 C 
ATOM     21  O   UNL d   1     -41.865-122.576 -55.267  0.00  0.00    -0.304 OA
ATOM     22  C   UNL d   1     -41.435-123.188 -54.879  0.00  0.00     0.118 A 
ATOM     23  C   UNL d   1     -41.321-123.150 -54.063  0.00  0.00     0.106 A 
ATOM     24  C   UNL d   1     -41.133-123.817 -55.316  0.00  0.00     0.028 C 
ENDBRANCH   2  17
TORSDOF 3
ENDMDL
